@<TRIPOS>MOLECULE
3R540
247   249    1
SMALL
USER_CHARGES


@<TRIPOS>ATOM
      1 CA          2.7382  -11.6746  -45.2080 C.3       0 UNK        -0.1800 
      2 C           3.1040  -12.5304  -46.4112 C.2       0 UNK         0.5000 
      3 O           4.2011  -12.3855  -46.9508 O.2       0 UNK        -0.5000 
      4 N           2.1899  -13.4130  -46.8361 N.am      1 UNK        -0.5000 
      5 CA          2.3732  -14.3206  -47.9778 C.3       1 UNK         0.1400 
      6 C6          1.0618  -15.0055  -48.4371 C.3       23 UNK        -0.0398 
      7 S7         -0.3298  -13.8510  -48.6909 S.3       23 UNK        -0.2404 
      8 C8         -0.2504  -13.5288  -50.4832 C.3       23 UNK        -0.0205 
      9 C9         -0.5713  -14.7653  -51.3110 C.ar      23 UNK        -0.0193 
     10 C10         0.4232  -15.3765  -52.0799 C.ar      23 UNK        -0.1150 
     11 C11         0.1375  -16.5123  -52.8432 C.ar      23 UNK        -0.0193 
     12 C12        -1.1530  -17.0478  -52.8059 C.ar      23 UNK        -0.1150 
     13 C13        -2.1583  -16.4584  -52.0339 C.ar      23 UNK        -0.0193 
     14 C14        -1.8652  -15.2938  -51.3147 C.ar      23 UNK        -0.1150 
     15 C15        -3.5491  -17.0935  -52.0172 C.3       23 UNK        -0.0205 
     16 S16        -4.4358  -17.0221  -50.4182 S.3       23 UNK        -0.2404 
     17 C17        -3.1934  -17.6001  -49.2156 C.3       23 UNK        -0.0398 
     18 CA         -2.8076  -19.0954  -49.3472 C.3       11 UNK         0.1400 
     19 N          -1.4626  -19.3012  -48.8198 N.am      11 UNK        -0.5000 
     20 C          -0.4806  -19.9934  -49.4062 C.2       10 UNK         0.5000 
     21 O          -0.6135  -20.6340  -50.4484 O.2       10 UNK        -0.5000 
     22 CA          0.8983  -19.9510  -48.7162 C.3       10 UNK         0.1400 
     23 CB          1.8019  -18.9311  -49.4233 C.3       10 UNK        -0.1800 
     24 N           0.8287  -19.6223  -47.2902 N.am      10 UNK        -0.5000 
     25 C           0.2998  -20.4158  -46.3491 C.2       9 UNK         0.5000 
     26 O          -0.1538  -21.5382  -46.5749 O.2       9 UNK        -0.5000 
     27 CA          0.1976  -19.8294  -44.9278 C.3       9 UNK         0.1400 
     28 CB          1.4121  -20.2347  -44.0855 C.3       9 UNK        -0.1800 
     29 N           0.0226  -18.3697  -44.8798 N.am      9 UNK        -0.5000 
     30 C          -1.0360  -17.7278  -45.4016 C.2       8 UNK         0.5000 
     31 O          -1.8877  -18.2970  -46.0840 O.2       8 UNK        -0.5000 
     32 CA         -1.1869  -16.2212  -45.1405 C.3       8 UNK         0.1400 
     33 CB         -2.6549  -15.8255  -44.8921 C.3       8 UNK        -0.1800 
     34 N          -0.3647  -15.7705  -44.0207 N.am      8 UNK        -0.5000 
     35 C           0.1827  -14.5548  -43.9246 C.2       7 UNK         0.5000 
     36 O           0.1326  -13.7235  -44.8318 O.2       7 UNK        -0.5000 
     37 CA          0.9369  -14.2104  -42.6240 C.3       7 UNK         0.1400 
     38 CB          0.6469  -12.7757  -42.1379 C.3       7 UNK        -0.1800 
     39 N           0.7523  -15.1774  -41.5366 N.am      7 UNK        -0.5000 
     40 C          -0.3537  -15.4488  -40.8262 C.2       6 UNK         0.5000 
     41 O          -1.4477  -14.9179  -41.0150 O.2       6 UNK        -0.5000 
     42 CA         -0.2028  -16.5028  -39.7156 C.3       6 UNK         0.1400 
     43 CB         -0.2932  -17.9171  -40.3130 C.3       6 UNK        -0.1800 
     44 N           1.0835  -16.3530  -39.0350 N.am      6 UNK        -0.5000 
     45 C           1.2719  -15.7663  -37.8459 C.2       5 UNK         0.5000 
     46 O           0.3568  -15.3777  -37.1189 O.2       5 UNK        -0.5000 
     47 CA          2.7360  -15.5616  -37.3977 C.3       5 UNK         0.1400 
     48 CB          3.2379  -16.7892  -36.6223 C.3       5 UNK        -0.1800 
     49 N           3.6468  -15.2961  -38.5152 N.am      5 UNK        -0.5000 
     50 C           3.6051  -14.2007  -39.2864 C.2       4 UNK         0.5000 
     51 O           2.8833  -13.2330  -39.0449 O.2       4 UNK        -0.5000 
     52 CA          4.4907  -14.1715  -40.5531 C.3       4 UNK         0.1400 
     53 CB          5.7148  -13.2717  -40.3230 C.3       4 UNK        -0.1800 
     54 N           4.9533  -15.4626  -41.0873 N.am      4 UNK        -0.5000 
     55 C           4.2085  -16.5422  -41.3610 C.2       3 UNK         0.5000 
     56 O           3.0213  -16.6506  -41.0575 O.2       3 UNK        -0.5000 
     57 CA          4.9018  -17.6726  -42.1410 C.3       3 UNK         0.1400 
     58 CB          4.2348  -19.0389  -41.8926 C.3       3 UNK        -0.1800 
     59 N           4.9639  -17.3879  -43.5798 N.am      3 UNK        -0.5000 
     60 C           3.9534  -17.0853  -44.4097 C.2       2 UNK         0.5000 
     61 O           2.7646  -16.9883  -44.0843 O.2       2 UNK        -0.5000 
     62 CA          4.3387  -16.8880  -45.8807 C.3       2 UNK         0.1400 
     63 CB          4.3381  -18.2421  -46.6138 C.3       2 UNK        -0.1800 
     64 N           3.3811  -15.9593  -46.4701 N.am      2 UNK        -0.5000 
     65 C           3.4500  -15.3845  -47.6772 C.2       1 UNK         0.5000 
     66 O           4.3168  -15.6338  -48.5152 O.2       1 UNK        -0.5000 
     67 C          -3.8063  -20.0024  -48.6075 C.2       11 UNK         0.5000 
     68 O          -4.5947  -20.7030  -49.2424 O.2       11 UNK        -0.5000 
     69 N          -3.7507  -19.9761  -47.2708 N.am      12 UNK        -0.5000 
     70 CA         -4.6369  -20.7188  -46.3866 C.3       12 UNK         0.1400 
     71 CB         -4.5851  -20.1004  -44.9787 C.3       12 UNK        -0.1800 
     72 C          -4.2922  -22.2144  -46.3691 C.2       12 UNK         0.5000 
     73 O          -5.0880  -23.0257  -46.8417 O.2       12 UNK        -0.5000 
     74 N          -3.1198  -22.5488  -45.8179 N.am      13 UNK        -0.5000 
     75 CA         -2.7051  -23.9244  -45.5605 C.3       13 UNK         0.1400 
     76 CB         -1.6323  -23.9430  -44.4589 C.3       13 UNK        -0.1800 
     77 C          -2.2163  -24.6391  -46.8280 C.2       13 UNK         0.5000 
     78 O          -2.7298  -25.7098  -47.1536 O.2       13 UNK        -0.5000 
     79 N          -1.2291  -24.0451  -47.5122 N.am      14 UNK        -0.5000 
     80 CA         -0.5227  -24.6784  -48.6281 C.3       14 UNK         0.1400 
     81 CB          0.7484  -23.8840  -48.9544 C.3       14 UNK        -0.1800 
     82 C          -1.3906  -24.8436  -49.8862 C.2       14 UNK         0.5000 
     83 O          -1.3215  -25.8894  -50.5328 O.2       14 UNK        -0.5000 
     84 N          -2.1935  -23.8188  -50.2033 N.am      15 UNK        -0.5000 
     85 CA         -3.0676  -23.8112  -51.3773 C.3       15 UNK         0.1400 
     86 CB         -3.1493  -22.3939  -51.9540 C.3       15 UNK        -0.1800 
     87 C          -4.4797  -24.3465  -51.0905 C.2       15 UNK         0.5000 
     88 O          -5.2711  -24.4242  -52.0293 O.2       15 UNK        -0.5000 
     89 N          -4.7800  -24.6791  -49.8251 N.am      16 UNK        -0.5000 
     90 CA         -6.0769  -25.1423  -49.3193 C.3       16 UNK         0.1400 
     91 CB         -6.4148  -26.5384  -49.8834 C.3       16 UNK        -0.1800 
     92 C          -7.1875  -24.1015  -49.5705 C.2       16 UNK         0.5000 
     93 O          -8.1383  -24.3674  -50.3066 O.2       16 UNK        -0.5000 
     94 N          -7.0069  -22.9131  -48.9781 N.am      17 UNK        -0.5000 
     95 CA         -7.8394  -21.7132  -49.1219 C.3       17 UNK         0.1400 
     96 CB         -9.2327  -21.9313  -48.4963 C.3       17 UNK        -0.1800 
     97 C          -7.8933  -21.2168  -50.5822 C.2       17 UNK         0.5000 
     98 O          -8.9743  -20.9944  -51.1300 O.2       17 UNK        -0.5000 
     99 N          -6.7021  -21.0777  -51.1812 N.am      18 UNK        -0.5000 
    100 CA        -6.4235  -20.6153  -52.5469 C.3       18 UNK         0.1400 
    101 CB        -6.8861  -19.1560  -52.7322 C.3       18 UNK        -0.1800 
    102 C         -6.9513  -21.5301  -53.6756 C.2       18 UNK         0.5000 
    103 O         -6.9069  -21.1247  -54.8381 O.2       18 UNK        -0.5000 
    104 N         -7.4104  -22.7478  -53.3511 N.am      19 UNK        -0.5000 
    105 CA        -7.9421  -23.7258  -54.3059 C.3       19 UNK         0.1400 
    106 CB        -8.5471  -24.9128  -53.5430 C.3       19 UNK        -0.1800 
    107 C         -6.8922  -24.2125  -55.3218 C.2       19 UNK         0.5000 
    108 O         -7.2070  -24.3519  -56.5040 O.2       19 UNK        -0.5000 
    109 N         -5.6561  -24.4121  -54.8487 N.am      20 UNK        -0.5000 
    110 CA        -4.4814  -24.7489  -55.6559 C.3       20 UNK         0.1400 
    111 CB        -3.6842  -25.8541  -54.9430 C.3       20 UNK        -0.1800 
    112 C         -3.6203  -23.5041  -55.9649 C.2       20 UNK         0.5000 
    113 O         -2.4216  -23.6376  -56.2148 O.2       20 UNK        -0.5000 
    114 N         -4.2454  -22.3174  -55.9476 N.am      21 UNK        -0.5000 
    115 CA        -3.7098  -20.9830  -56.2333 C.3       21 UNK         0.1400 
    116 CB        -3.1318  -20.8855  -57.6592 C.3       21 UNK        -0.1800 
    117 C         -2.7205  -20.4636  -55.1758 C.2       21 UNK         0.5000 
    118 O         -3.0126  -19.4571  -54.5339 O.2       21 UNK        -0.5000 
    119 N         -1.5826  -21.1430  -55.0110 N.am      22 UNK        -0.5000 
    120 CA        -0.4954  -20.7836  -54.0939 C.3       22 UNK         0.1400 
    121 C          0.2991  -22.0592  -53.7126 C.2       22 UNK         0.5000 
    122 N          0.5194  -22.3050  -52.4292 N.am      22 UNK        -0.7600 
    123 O          0.7394  -22.8136  -54.5771 O.2       22 UNK        -0.5000 
    124 C124        0.4220  -19.6857  -54.6941 C.3       23 UNK        -0.0398 
    125 S125        1.4983  -18.8958  -53.4429 S.3       23 UNK        -0.2404 
    126 C126        1.2159  -17.1181  -53.7365 C.3       23 UNK        -0.0205 
    127 H127        3.0690  -12.1570  -44.2885 H         1 UNK         0.0600 
    128 H128        1.6617  -11.5135  -45.1518 H         1 UNK         0.0600 
    129 H129        3.2177  -10.6980  -45.2745 H         1 UNK         0.0600 
    130 H130        1.3041  -13.4814  -46.3406 H         1 UNK         0.3000 
    131 H131        2.7358  -13.7181  -48.8136 H         1 UNK         0.0600 
    132 H132        0.7400  -15.7454  -47.7045 H         1 UNK         0.0800 
    133 H133        1.2376  -15.5613  -49.3581 H         1 UNK         0.0800 
    134 H134       -0.9644  -12.7421  -50.7303 H         1 UNK         0.0800 
    135 H135        0.7360  -13.1348  -50.7329 H         1 UNK         0.0800 
    136 H136        1.4194  -14.9571  -52.0948 H         1 UNK         0.1150 
    137 H137       -1.3783  -17.9279  -53.3862 H         1 UNK         0.1150 
    138 H138       -2.6348  -14.8132  -50.7273 H         1 UNK         0.1150 
    139 H139       -4.1612  -16.6050  -52.7759 H         1 UNK         0.0800 
    140 H140       -3.4841  -18.1411  -52.3120 H         1 UNK         0.0800 
    141 H141       -3.5579  -17.3666  -48.2134 H         1 UNK         0.0800 
    142 H142       -2.3064  -16.9777  -49.3266 H         1 UNK         0.0800 
    143 H143       -2.8218  -19.3755  -50.4020 H         1 UNK         0.0600 
    144 H144       -1.2758  -18.8699  -47.9232 H         1 UNK         0.3000 
    145 H145        1.3606  -20.9331  -48.8151 H         1 UNK         0.0600 
    146 H146        2.8109  -18.9414  -49.0147 H         1 UNK         0.0600 
    147 H147        1.8875  -19.1593  -50.4859 H         1 UNK         0.0600 
    148 H148        1.4098  -17.9183  -49.3386 H         1 UNK         0.0600 
    149 H149        1.1666  -18.7140  -47.0123 H         1 UNK         0.3000 
    150 H150       -0.6863  -20.2760  -44.4676 H         1 UNK         0.0600 
    151 H151        1.5635  -21.3148  -44.1076 H         1 UNK         0.0600 
    152 H152        1.2688  -19.9514  -43.0432 H         1 UNK         0.0600 
    153 H153        2.3286  -19.7668  -44.4454 H         1 UNK         0.0600 
    154 H154        0.7446  -17.8416  -44.4025 H         1 UNK         0.3000 
    155 H155       -0.8590  -15.7278  -46.0556 H         1 UNK         0.0600 
    156 H156       -3.0541  -16.3124  -44.0016 H         1 UNK         0.0600 
    157 H157       -3.2902  -16.1030  -45.7342 H         1 UNK         0.0600 
    158 H158       -2.7558  -14.7484  -44.7578 H         1 UNK         0.0600 
    159 H159       -0.2738  -16.4002  -43.2369 H         1 UNK         0.3000 
    160 H160        1.9951  -14.2614  -42.8827 H         1 UNK         0.0600 
    161 H161        1.2123  -12.5438  -41.2355 H         1 UNK         0.0600 
    162 H162       -0.4106  -12.6280  -41.9184 H         1 UNK         0.0600 
    163 H163        0.9245  -12.0377  -42.8896 H         1 UNK         0.0600 
    164 H164        1.5825  -15.7328  -41.3313 H         1 UNK         0.3000 
    165 H165       -1.0261  -16.3743  -39.0100 H         1 UNK         0.0600 
    166 H166       -0.2348  -18.6758  -39.5326 H         1 UNK         0.0600 
    167 H167       -1.2390  -18.0614  -40.8368 H         1 UNK         0.0600 
    168 H168        0.5110  -18.1098  -41.0249 H         1 UNK         0.0600 
    169 H169        1.9030  -16.5972  -39.5846 H         1 UNK         0.3000 
    170 H170        2.7608  -14.6999  -36.7275 H         1 UNK         0.0600 
    171 H171        2.5933  -17.0015  -35.7683 H         1 UNK         0.0600 
    172 H172        3.2567  -17.6815  -37.2495 H         1 UNK         0.0600 
    173 H173        4.2445  -16.6277  -36.2362 H         1 UNK         0.0600 
    174 H174        4.2669  -16.0450  -38.7852 H         1 UNK         0.3000 
    175 H175        3.8847  -13.7129  -41.3364 H         1 UNK         0.0600 
    176 H176        6.3941  -13.7015  -39.5858 H         1 UNK         0.0600 
    177 H177        6.2731  -13.1182  -41.2467 H         1 UNK         0.0600 
    178 H178        5.4177  -12.2865  -39.9604 H         1 UNK         0.0600 
    179 H179        5.9219  -15.4827  -41.3725 H         1 UNK         0.3000 
    180 H180        5.9304  -17.7383  -41.7830 H         1 UNK         0.0600 
    181 H181        3.1868  -19.0330  -42.1860 H         1 UNK         0.0600 
    182 H182        4.2733  -19.3038  -40.8355 H         1 UNK         0.0600 
    183 H183        4.7349  -19.8322  -42.4480 H         1 UNK         0.0600 
    184 H184        5.8931  -17.4283  -43.9747 H         1 UNK         0.3000 
    185 H185        5.3330  -16.4401  -45.9329 H         1 UNK         0.0600 
    186 H186        5.0287  -18.9418  -46.1417 H         1 UNK         0.0600 
    187 H187        3.3517  -18.7029  -46.6012 H         1 UNK         0.0600 
    188 H188        4.6524  -18.1392  -47.6517 H         1 UNK         0.0600 
    189 H189        2.6479  -15.6828  -45.8298 H         1 UNK         0.3000 
    190 H190       -3.0687  -19.3706  -46.8176 H         1 UNK         0.3000 
    191 H191       -5.6597  -20.6171  -46.7547 H         1 UNK         0.0600 
    192 H192       -3.5747  -20.0935  -44.5684 H         1 UNK         0.0600 
    193 H193       -5.2202  -20.6525  -44.2848 H         1 UNK         0.0600 
    194 H194       -4.9396  -19.0695  -44.9930 H         1 UNK         0.0600 
    195 H195       -2.4863  -21.8202  -45.5258 H         1 UNK         0.3000 
    196 H196       -3.5682  -24.4780  -45.1834 H         1 UNK         0.0600 
    197 H197       -1.3206  -24.9644  -44.2371 H         1 UNK         0.0600 
    198 H198       -2.0134  -23.5129  -43.5326 H         1 UNK         0.0600 
    199 H199       -0.7405  -23.3845  -44.7432 H         1 UNK         0.0600 
    200 H200       -0.8641  -23.1550  -47.1790 H         1 UNK         0.3000 
    201 H201       -0.2172  -25.6749  -48.3017 H         1 UNK         0.0600 
    202 H202        1.3552  -23.7138  -48.0649 H         1 UNK         0.0600 
    203 H203        0.5051  -22.9178  -49.3907 H         1 UNK         0.0600 
    204 H204        1.3664  -24.4197  -49.6758 H         1 UNK         0.0600 
    205 H205       -2.1870  -22.9906  -49.6258 H         1 UNK         0.3000 
    206 H206       -2.6281  -24.4441  -52.1483 H         1 UNK         0.0600 
    207 H207       -2.1600  -21.9877  -52.1285 H         1 UNK         0.0600 
    208 H208       -3.6744  -22.3897  -52.9091 H         1 UNK         0.0600 
    209 H209       -3.6678  -21.7115  -51.2884 H         1 UNK         0.0600 
    210 H210       -4.0556  -24.5746  -49.1287 H         1 UNK         0.3000 
    211 H211       -5.9749  -25.2422  -48.2377 H         1 UNK         0.0600 
    212 H212       -7.3392  -26.9192  -49.4479 H         1 UNK         0.0600 
    213 H213       -5.6270  -27.2555  -49.6533 H         1 UNK         0.0600 
    214 H214       -6.5472  -26.5232  -50.9655 H         1 UNK         0.0600 
    215 H215       -6.1945  -22.8138  -48.3742 H         1 UNK         0.3000 
    216 H216       -7.3460  -20.9257  -48.5512 H         1 UNK         0.0600 
    217 H217       -9.8110  -21.0067  -48.5032 H         1 UNK         0.0600 
    218 H218       -9.1515  -22.2554  -47.4588 H         1 UNK         0.0600 
    219 H219       -9.8105  -22.6809  -49.0377 H         1 UNK         0.0600 
    220 H220       -5.8829  -21.2348  -50.6000 H         1 UNK         0.3000 
    221 H221       -5.3384  -20.6163  -52.6461 H         1 UNK         0.0600 
    222 H222       -7.9729  -19.0766  -52.7668 H         1 UNK         0.0600 
    223 H223       -6.5307  -18.5225  -51.9208 H         1 UNK         0.0600 
    224 H224       -6.4978  -18.7375  -53.6615 H         1 UNK         0.0600 
    225 H225       -7.3769  -23.0377  -52.3824 H         1 UNK         0.3000 
    226 H226       -8.7433  -23.2392  -54.8657 H         1 UNK         0.0600 
    227 H227       -9.3478  -24.5870  -52.8788 H         1 UNK         0.0600 
    228 H228       -8.9715  -25.6457  -54.2303 H         1 UNK         0.0600 
    229 H229       -7.7980  -25.4242  -52.9372 H         1 UNK         0.0600 
    230 H230       -5.5057  -24.3066  -53.8463 H         1 UNK         0.3000 
    231 H231       -4.7991  -25.1501  -56.6201 H         1 UNK         0.0600 
    232 H232       -4.3102  -26.7241  -54.7445 H         1 UNK         0.0600 
    233 H233       -3.2809  -25.5108  -53.9931 H         1 UNK         0.0600 
    234 H234       -2.8459  -26.1923  -55.5532 H         1 UNK         0.0600 
    235 H235       -5.2280  -22.3209  -55.7030 H         1 UNK         0.3000 
    236 H236       -4.5730  -20.3162  -56.1985 H         1 UNK         0.0600 
    237 H237       -2.2560  -21.5197  -57.7966 H         1 UNK         0.0600 
    238 H238       -3.8736  -21.1742  -58.4038 H         1 UNK         0.0600 
    239 H239       -2.8280  -19.8623  -57.8836 H         1 UNK         0.0600 
    240 H240       -1.4588  -22.0137  -55.5210 H         1 UNK         0.3000 
    241 H241       -0.9485  -20.3795  -53.1867 H         1 UNK         0.0600 
    242 H242        0.1497  -21.6862  -51.7089 H         1 UNK         0.3800 
    243 H243        1.0501  -23.1197  -52.1707 H         1 UNK         0.3800 
    244 H244        1.0466  -20.0935  -55.4908 H         1 UNK         0.0800 
    245 H245       -0.1880  -18.9162  -55.1674 H         1 UNK         0.0800 
    246 H246        0.9625  -16.9401  -54.7822 H         1 UNK         0.0800 
    247 H247        2.1655  -16.6069  -53.5715 H         1 UNK         0.0800 
@<TRIPOS>BOND
     1    1    2 1    
     2    1  127 1    
     3    1  128 1    
     4    1  129 1    
     5    2    3 2    
     6    2    4 am   BACKBONE|DICT|INTERRES
     7    4    5 1    
     8    4  130 1    
     9    5    6 1    
    10    5   65 1    
    11    5  131 1    
    12    6    7 1    
    13    6  132 1    
    14    6  133 1    
    15    7    8 1    
    16    8    9 1    
    17    8  134 1    
    18    8  135 1    
    19    9   10 ar   
    20    9   14 ar   
    21   10   11 ar   
    22   10  136 1    
    23   11   12 ar   
    24   11  126 1    
    25   12   13 ar   
    26   12  137 1    
    27   13   14 ar   
    28   13   15 1    
    29   14  138 1    
    30   15   16 1    
    31   15  139 1    
    32   15  140 1    
    33   16   17 1    
    34   17   18 1    
    35   17  141 1    
    36   17  142 1    
    37   18   19 1    
    38   18   67 1    
    39   18  143 1    
    40   19   20 am   BACKBONE|DICT|INTERRES
    41   19  144 1    
    42   20   21 2    
    43   20   22 1    
    44   22   23 1    
    45   22   24 1    
    46   22  145 1    
    47   23  146 1    
    48   23  147 1    
    49   23  148 1    
    50   24   25 am   BACKBONE|DICT|INTERRES
    51   24  149 1    
    52   25   26 2    
    53   25   27 1    
    54   27   28 1    
    55   27   29 1    
    56   27  150 1    
    57   28  151 1    
    58   28  152 1    
    59   28  153 1    
    60   29   30 am   BACKBONE|DICT|INTERRES
    61   29  154 1    
    62   30   31 2    
    63   30   32 1    
    64   32   33 1    
    65   32   34 1    
    66   32  155 1    
    67   33  156 1    
    68   33  157 1    
    69   33  158 1    
    70   34   35 am   BACKBONE|DICT|INTERRES
    71   34  159 1    
    72   35   36 2    
    73   35   37 1    
    74   37   38 1    
    75   37   39 1    
    76   37  160 1    
    77   38  161 1    
    78   38  162 1    
    79   38  163 1    
    80   39   40 am   BACKBONE|DICT|INTERRES
    81   39  164 1    
    82   40   41 2    
    83   40   42 1    
    84   42   43 1    
    85   42   44 1    
    86   42  165 1    
    87   43  166 1    
    88   43  167 1    
    89   43  168 1    
    90   44   45 am   BACKBONE|DICT|INTERRES
    91   44  169 1    
    92   45   46 2    
    93   45   47 1    
    94   47   48 1    
    95   47   49 1    
    96   47  170 1    
    97   48  171 1    
    98   48  172 1    
    99   48  173 1    
   100   49   50 am   BACKBONE|DICT|INTERRES
   101   49  174 1    
   102   50   51 2    
   103   50   52 1    
   104   52   53 1    
   105   52   54 1    
   106   52  175 1    
   107   53  176 1    
   108   53  177 1    
   109   53  178 1    
   110   54   55 am   BACKBONE|DICT|INTERRES
   111   54  179 1    
   112   55   56 2    
   113   55   57 1    
   114   57   58 1    
   115   57   59 1    
   116   57  180 1    
   117   58  181 1    
   118   58  182 1    
   119   58  183 1    
   120   59   60 am   BACKBONE|DICT|INTERRES
   121   59  184 1    
   122   60   61 2    
   123   60   62 1    
   124   62   63 1    
   125   62   64 1    
   126   62  185 1    
   127   63  186 1    
   128   63  187 1    
   129   63  188 1    
   130   64   65 am   BACKBONE|DICT|INTERRES
   131   64  189 1    
   132   65   66 2    
   133   67   68 2    
   134   67   69 am   BACKBONE|DICT|INTERRES
   135   69   70 1    
   136   69  190 1    
   137   70   71 1    
   138   70   72 1    
   139   70  191 1    
   140   71  192 1    
   141   71  193 1    
   142   71  194 1    
   143   72   73 2    
   144   72   74 am   BACKBONE|DICT|INTERRES
   145   74   75 1    
   146   74  195 1    
   147   75   76 1    
   148   75   77 1    
   149   75  196 1    
   150   76  197 1    
   151   76  198 1    
   152   76  199 1    
   153   77   78 2    
   154   77   79 am   BACKBONE|DICT|INTERRES
   155   79   80 1    
   156   79  200 1    
   157   80   81 1    
   158   80   82 1    
   159   80  201 1    
   160   81  202 1    
   161   81  203 1    
   162   81  204 1    
   163   82   83 2    
   164   82   84 am   BACKBONE|DICT|INTERRES
   165   84   85 1    
   166   84  205 1    
   167   85   86 1    
   168   85   87 1    
   169   85  206 1    
   170   86  207 1    
   171   86  208 1    
   172   86  209 1    
   173   87   88 2    
   174   87   89 am   BACKBONE|DICT|INTERRES
   175   89   90 1    
   176   89  210 1    
   177   90   91 1    
   178   90   92 1    
   179   90  211 1    
   180   91  212 1    
   181   91  213 1    
   182   91  214 1    
   183   92   93 2    
   184   92   94 am   BACKBONE|DICT|INTERRES
   185   94   95 1    
   186   94  215 1    
   187   95   96 1    
   188   95   97 1    
   189   95  216 1    
   190   96  217 1    
   191   96  218 1    
   192   96  219 1    
   193   97   98 2    
   194   97   99 am   BACKBONE|DICT|INTERRES
   195   99  100 1    
   196   99  220 1    
   197  100  101 1    
   198  100  102 1    
   199  100  221 1    
   200  101  222 1    
   201  101  223 1    
   202  101  224 1    
   203  102  103 2    
   204  102  104 am   BACKBONE|DICT|INTERRES
   205  104  105 1    
   206  104  225 1    
   207  105  106 1    
   208  105  107 1    
   209  105  226 1    
   210  106  227 1    
   211  106  228 1    
   212  106  229 1    
   213  107  108 2    
   214  107  109 am   BACKBONE|DICT|INTERRES
   215  109  110 1    
   216  109  230 1    
   217  110  111 1    
   218  110  112 1    
   219  110  231 1    
   220  111  232 1    
   221  111  233 1    
   222  111  234 1    
   223  112  113 2    
   224  112  114 am   BACKBONE|DICT|INTERRES
   225  114  115 1    
   226  114  235 1    
   227  115  116 1    
   228  115  117 1    
   229  115  236 1    
   230  116  237 1    
   231  116  238 1    
   232  116  239 1    
   233  117  118 2    
   234  117  119 am   BACKBONE|DICT|INTERRES
   235  119  120 1    
   236  119  240 1    
   237  120  121 1    
   238  120  124 1    
   239  120  241 1    
   240  121  122 am   BACKBONE|DICT|INTERRES
   241  121  123 2    
   242  122  242 1    
   243  122  243 1    
   244  124  125 1    
   245  124  244 1    
   246  124  245 1    
   247  125  126 1    
   248  126  246 1    
   249  126  247 1    
@<TRIPOS>SUBSTRUCTURE
     1 UNK         1 GROUP             0       ****    0 ROOT    
