@<TRIPOS>MOLECULE
3R540
247   249    1
SMALL
USER_CHARGES


@<TRIPOS>ATOM
      1 CA         -1.3145  -13.8582  -43.8302 C.3       0 UNK        -0.1800 
      2 C          -1.2298  -13.0233  -45.1001 C.2       0 UNK         0.5000 
      3 O          -2.0591  -12.1370  -45.3058 O.2       0 UNK        -0.5000 
      4 N          -0.2334  -13.3009  -45.9505 N.am      1 UNK        -0.5000 
      5 CA          0.0542  -12.5478  -47.1807 C.3       1 UNK         0.1400 
      6 C6          0.7294  -13.4199  -48.2710 C.3       23 UNK        -0.0398 
      7 S7          2.1956  -14.3455  -47.7001 S.3       23 UNK        -0.2404 
      8 C8          2.7811  -15.0999  -49.2476 C.3       23 UNK        -0.0205 
      9 C9          1.9037  -16.2575  -49.7047 C.ar      23 UNK        -0.0193 
     10 C10         0.9367  -16.0603  -50.6963 C.ar      23 UNK        -0.1150 
     11 C11         0.1710  -17.1329  -51.1618 C.ar      23 UNK        -0.0193 
     12 C12         0.3825  -18.4072  -50.6329 C.ar      23 UNK        -0.1150 
     13 C13         1.3313  -18.6191  -49.6275 C.ar      23 UNK        -0.0193 
     14 C14         2.0884  -17.5366  -49.1665 C.ar      23 UNK        -0.1150 
     15 C15         1.5533  -20.0191  -49.0641 C.3       23 UNK        -0.0205 
     16 S16        -0.0126  -20.8096  -48.5800 S.3       23 UNK        -0.2404 
     17 C17         0.5205  -22.4920  -48.1369 C.3       23 UNK        -0.0398 
     18 CA         -0.4776  -23.2418  -47.2207 C.3       11 UNK         0.1400 
     19 N          -0.5176  -22.6991  -45.8566 N.am      11 UNK        -0.5000 
     20 C          -1.0889  -23.3194  -44.8124 C.2       10 UNK         0.5000 
     21 O          -1.7036  -24.3833  -44.9052 O.2       10 UNK        -0.5000 
     22 CA         -0.9933  -22.6195  -43.4500 C.3       10 UNK         0.1400 
     23 CB          0.4393  -22.6725  -42.8960 C.3       10 UNK        -0.1800 
     24 N          -1.4407  -21.2325  -43.5379 N.am      10 UNK        -0.5000 
     25 C          -2.7249  -20.8498  -43.5217 C.2       9 UNK         0.5000 
     26 O          -3.6689  -21.6320  -43.4100 O.2       9 UNK        -0.5000 
     27 CA         -3.0069  -19.3412  -43.6516 C.3       9 UNK         0.1400 
     28 CB         -3.1522  -18.6979  -42.2643 C.3       9 UNK        -0.1800 
     29 N          -1.9655  -18.6374  -44.3994 N.am      9 UNK        -0.5000 
     30 C          -1.8298  -18.7032  -45.7319 C.2       8 UNK         0.5000 
     31 O          -2.5915  -19.3351  -46.4621 O.2       8 UNK        -0.5000 
     32 CA         -0.6273  -17.9641  -46.3489 C.3       8 UNK         0.1400 
     33 CB         -1.0161  -16.5277  -46.7077 C.3       8 UNK        -0.1800 
     34 N           0.5626  -17.9576  -45.4943 N.am      8 UNK        -0.5000 
     35 C           1.1828  -19.0543  -45.0335 C.2       7 UNK         0.5000 
     36 O           0.8492  -20.2034  -45.3237 O.2       7 UNK        -0.5000 
     37 CA          2.3381  -18.8497  -44.0364 C.3       7 UNK         0.1400 
     38 CB          3.6833  -18.9128  -44.7751 C.3       7 UNK        -0.1800 
     39 N           2.2836  -17.6080  -43.2588 N.am      7 UNK        -0.5000 
     40 C           1.2632  -17.1547  -42.5135 C.2       6 UNK         0.5000 
     41 O           0.1789  -17.7312  -42.4184 O.2       6 UNK        -0.5000 
     42 CA          1.4842  -15.8267  -41.7560 C.3       6 UNK         0.1400 
     43 CB          1.5817  -16.0807  -40.2444 C.3       6 UNK        -0.1800 
     44 N           2.6764  -15.0885  -42.1851 N.am      6 UNK        -0.5000 
     45 C           2.8379  -14.4939  -43.3735 C.2       5 UNK         0.5000 
     46 O           1.9663  -14.4607  -44.2447 O.2       5 UNK        -0.5000 
     47 CA          4.2195  -13.8578  -43.6125 C.3       5 UNK         0.1400 
     48 CB          4.4406  -13.4343  -45.0730 C.3       5 UNK        -0.1800 
     49 N           4.4320  -12.7057  -42.7379 N.am      5 UNK        -0.5000 
     50 C           4.9039  -12.7656  -41.4855 C.2       4 UNK         0.5000 
     51 O           5.1503  -13.8236  -40.9042 O.2       4 UNK        -0.5000 
     52 CA          5.1515  -11.4265  -40.7666 C.3       4 UNK         0.1400 
     53 CB          6.5881  -10.9448  -41.0221 C.3       4 UNK        -0.1800 
     54 N           4.2173  -10.3850  -41.1970 N.am      4 UNK        -0.5000 
     55 C           3.0151  -10.1777  -40.6431 C.2       3 UNK         0.5000 
     56 O           2.5889  -10.8022  -39.6708 O.2       3 UNK        -0.5000 
     57 CA          2.1298   -9.1027  -41.3051 C.3       3 UNK         0.1400 
     58 CB          2.4899   -7.7044  -40.7798 C.3       3 UNK        -0.1800 
     59 N           2.2003   -9.1049  -42.7711 N.am      3 UNK        -0.5000 
     60 C           1.8332  -10.1371  -43.5414 C.2       2 UNK         0.5000 
     61 O           1.4204  -11.2095  -43.0896 O.2       2 UNK        -0.5000 
     62 CA          1.9593   -9.9516  -45.0625 C.3       2 UNK         0.1400 
     63 CB          3.4204   -9.7441  -45.5030 C.3       2 UNK        -0.1800 
     64 N           1.4026  -11.1453  -45.6835 N.am      2 UNK        -0.5000 
     65 C           0.8329  -11.2437  -46.8881 C.2       1 UNK         0.5000 
     66 O           0.8607  -10.3459  -47.7313 O.2       1 UNK        -0.5000 
     67 C          -1.8794  -23.3834  -47.8556 C.2       11 UNK         0.5000 
     68 O          -2.0766  -24.2631  -48.6954 O.2       11 UNK        -0.5000 
     69 N          -2.8410  -22.5609  -47.4089 N.am      12 UNK        -0.5000 
     70 CA         -4.2556  -22.6399  -47.7734 C.3       12 UNK         0.1400 
     71 CB         -5.0269  -21.5010  -47.0920 C.3       12 UNK        -0.1800 
     72 C          -4.9042  -23.9963  -47.4424 C.2       12 UNK         0.5000 
     73 O          -5.7938  -24.4255  -48.1762 O.2       12 UNK        -0.5000 
     74 N          -4.4292  -24.6470  -46.3727 N.am      13 UNK        -0.5000 
     75 CA         -4.8402  -25.9864  -45.9668 C.3       13 UNK         0.1400 
     76 CB         -4.9967  -26.0229  -44.4381 C.3       13 UNK        -0.1800 
     77 C          -3.8222  -27.0395  -46.4327 C.2       13 UNK         0.5000 
     78 O          -4.2215  -28.0563  -46.9999 O.2       13 UNK        -0.5000 
     79 N          -2.5298  -26.7883  -46.1775 N.am      14 UNK        -0.5000 
     80 CA         -1.4478  -27.7578  -46.3632 C.3       14 UNK         0.1400 
     81 CB         -0.2014  -27.2749  -45.6054 C.3       14 UNK        -0.1800 
     82 C          -1.1021  -28.0528  -47.8336 C.2       14 UNK         0.5000 
     83 O          -0.7430  -29.1888  -48.1465 O.2       14 UNK        -0.5000 
     84 N          -1.2052  -27.0382  -48.7006 N.am      15 UNK        -0.5000 
     85 CA         -0.8848  -27.1225  -50.1286 C.3       15 UNK         0.1400 
     86 CB          0.2387  -26.1169  -50.4371 C.3       15 UNK        -0.1800 
     87 C          -2.1142  -26.8535  -51.0164 C.2       15 UNK         0.5000 
     88 O          -1.9853  -26.8896  -52.2406 O.2       15 UNK        -0.5000 
     89 N          -3.2698  -26.5691  -50.3941 N.am      16 UNK        -0.5000 
     90 CA         -4.5349  -26.1547  -51.0114 C.3       16 UNK         0.1400 
     91 CB         -5.1385  -27.2957  -51.8562 C.3       16 UNK        -0.1800 
     92 C          -4.4135  -24.8282  -51.7938 C.2       16 UNK         0.5000 
     93 O          -5.1022  -24.6386  -52.7984 O.2       16 UNK        -0.5000 
     94 N          -3.5401  -23.9234  -51.3226 N.am      17 UNK        -0.5000 
     95 CA         -3.1743  -22.6794  -52.0086 C.3       17 UNK         0.1400 
     96 CB         -2.0485  -21.9791  -51.2390 C.3       17 UNK        -0.1800 
     97 C          -4.3448  -21.7054  -52.2353 C.2       17 UNK         0.5000 
     98 O          -4.3174  -20.9501  -53.2062 O.2       17 UNK        -0.5000 
     99 N          -5.3563  -21.7540  -51.3580 N.am      18 UNK        -0.5000 
    100 CA        -6.5817  -20.9632  -51.4644 C.3       18 UNK         0.1400 
    101 CB        -7.3199  -20.9826  -50.1183 C.3       18 UNK        -0.1800 
    102 C         -7.4974  -21.4541  -52.5996 C.2       18 UNK         0.5000 
    103 O         -8.0783  -20.6310  -53.3066 O.2       18 UNK        -0.5000 
    104 N         -7.5785  -22.7802  -52.7815 N.am      19 UNK        -0.5000 
    105 CA        -8.3205  -23.4218  -53.8696 C.3       19 UNK         0.1400 
    106 CB        -8.5390  -24.9058  -53.5379 C.3       19 UNK        -0.1800 
    107 C         -7.6010  -23.2613  -55.2205 C.2       19 UNK         0.5000 
    108 O         -8.2574  -23.0802  -56.2462 O.2       19 UNK        -0.5000 
    109 N         -6.2618  -23.2852  -55.1844 N.am      20 UNK        -0.5000 
    110 CA        -5.3821  -23.0149  -56.3226 C.3       20 UNK         0.1400 
    111 CB        -3.9857  -23.5716  -56.0041 C.3       20 UNK        -0.1800 
    112 C         -5.2893  -21.5182  -56.6910 C.2       20 UNK         0.5000 
    113 O         -4.6876  -21.1945  -57.7158 O.2       20 UNK        -0.5000 
    114 N         -5.8415  -20.6337  -55.8449 N.am      21 UNK        -0.5000 
    115 CA        -5.8404  -19.1691  -55.9494 C.3       21 UNK         0.1400 
    116 CB        -6.7558  -18.7139  -57.1042 C.3       21 UNK        -0.1800 
    117 C         -4.4165  -18.5764  -56.0357 C.2       21 UNK         0.5000 
    118 O         -4.1670  -17.6607  -56.8217 O.2       21 UNK        -0.5000 
    119 N         -3.5018  -19.1431  -55.2385 N.am      22 UNK        -0.5000 
    120 CA        -2.0538  -18.8798  -55.2386 C.3       22 UNK         0.1400 
    121 C         -1.2911  -19.4081  -56.4973 C.2       22 UNK         0.5000 
    122 N         -1.9080  -20.1736  -57.3908 N.am      22 UNK        -0.7600 
    123 O         -0.1023  -19.1492  -56.6606 O.2       22 UNK        -0.5000 
    124 C124       -1.7140  -17.3992  -54.8901 C.3       23 UNK        -0.0398 
    125 S125       -0.1926  -17.2388  -53.8924 S.3       23 UNK        -0.2404 
    126 C126       -0.8828  -16.9316  -52.2386 C.3       23 UNK        -0.0205 
    127 H127       -0.7006  -14.7555  -43.8974 H         1 UNK         0.0600 
    128 H128       -2.3433  -14.1680  -43.6471 H         1 UNK         0.0600 
    129 H129       -0.9725  -13.2733  -42.9762 H         1 UNK         0.0600 
    130 H130        0.4673  -13.9867  -45.6875 H         1 UNK         0.3000 
    131 H131       -0.9004  -12.2252  -47.6019 H         1 UNK         0.0600 
    132 H132        0.0029  -14.1422  -48.6441 H         1 UNK         0.0800 
    133 H133        1.0051  -12.8115  -49.1341 H         1 UNK         0.0800 
    134 H134        2.8481  -14.3367  -50.0244 H         1 UNK         0.0800 
    135 H135        3.7991  -15.4605  -49.0931 H         1 UNK         0.0800 
    136 H136        0.7894  -15.0753  -51.1165 H         1 UNK         0.1150 
    137 H137       -0.1989  -19.2392  -51.0039 H         1 UNK         0.1150 
    138 H138        2.8334  -17.6887  -48.3982 H         1 UNK         0.1150 
    139 H139        2.0501  -20.6292  -49.8194 H         1 UNK         0.0800 
    140 H140        2.2122  -19.9859  -48.1948 H         1 UNK         0.0800 
    141 H141        1.4950  -22.4381  -47.6495 H         1 UNK         0.0800 
    142 H142        0.6775  -23.0517  -49.0601 H         1 UNK         0.0800 
    143 H143       -0.0953  -24.2597  -47.1284 H         1 UNK         0.0600 
    144 H144       -0.0495  -21.8067  -45.7103 H         1 UNK         0.3000 
    145 H145       -1.6385  -23.1567  -42.7512 H         1 UNK         0.0600 
    146 H146        0.4968  -22.2092  -41.9109 H         1 UNK         0.0600 
    147 H147        0.7752  -23.7048  -42.7893 H         1 UNK         0.0600 
    148 H148        1.1515  -22.1640  -43.5458 H         1 UNK         0.0600 
    149 H149       -0.7291  -20.5336  -43.6994 H         1 UNK         0.3000 
    150 H150       -3.9553  -19.2244  -44.1806 H         1 UNK         0.0600 
    151 H151       -3.9594  -19.1666  -41.7000 H         1 UNK         0.0600 
    152 H152       -3.3845  -17.6358  -42.3436 H         1 UNK         0.0600 
    153 H153       -2.2395  -18.7987  -41.6757 H         1 UNK         0.0600 
    154 H154       -1.2717  -18.1379  -43.8528 H         1 UNK         0.3000 
    155 H155       -0.3610  -18.4620  -47.2763 H         1 UNK         0.0600 
    156 H156       -1.3421  -15.9714  -45.8309 H         1 UNK         0.0600 
    157 H157       -1.8347  -16.5143  -47.4282 H         1 UNK         0.0600 
    158 H158       -0.1787  -16.0021  -47.1610 H         1 UNK         0.0600 
    159 H159        0.9089  -17.0559  -45.2003 H         1 UNK         0.3000 
    160 H160        2.2969  -19.6767  -43.3250 H         1 UNK         0.0600 
    161 H161        3.7968  -18.0820  -45.4730 H         1 UNK         0.0600 
    162 H162        3.7727  -19.8370  -45.3482 H         1 UNK         0.0600 
    163 H163        4.5203  -18.8839  -44.0773 H         1 UNK         0.0600 
    164 H164        3.1236  -17.0499  -43.2650 H         1 UNK         0.3000 
    165 H165        0.6119  -15.1973  -41.9381 H         1 UNK         0.0600 
    166 H166        1.6651  -15.1444  -39.6921 H         1 UNK         0.0600 
    167 H167        0.6938  -16.5960  -39.8751 H         1 UNK         0.0600 
    168 H168        2.4468  -16.6964  -39.9951 H         1 UNK         0.0600 
    169 H169        3.4392  -15.0278  -41.5206 H         1 UNK         0.3000 
    170 H170        4.9711  -14.6173  -43.3864 H         1 UNK         0.0600 
    171 H171        4.4397  -14.3068  -45.7267 H         1 UNK         0.0600 
    172 H172        3.6598  -12.7632  -45.4268 H         1 UNK         0.0600 
    173 H173        5.4010  -12.9356  -45.2034 H         1 UNK         0.0600 
    174 H174        4.1822  -11.8050  -43.1134 H         1 UNK         0.3000 
    175 H175        5.0413  -11.5985  -39.6936 H         1 UNK         0.0600 
    176 H176        6.7689  -10.7534  -42.0806 H         1 UNK         0.0600 
    177 H177        6.7984  -10.0262  -40.4741 H         1 UNK         0.0600 
    178 H178        7.3138  -11.6906  -40.6947 H         1 UNK         0.0600 
    179 H179        4.4962   -9.8082  -41.9769 H         1 UNK         0.3000 
    180 H180        1.0956   -9.3134  -41.0241 H         1 UNK         0.0600 
    181 H181        3.5035   -7.4160  -41.0606 H         1 UNK         0.0600 
    182 H182        2.4281   -7.6685  -39.6912 H         1 UNK         0.0600 
    183 H183        1.8058   -6.9491  -41.1671 H         1 UNK         0.0600 
    184 H184        2.5267   -8.2549  -43.2082 H         1 UNK         0.3000 
    185 H185        1.3600   -9.0860  -45.3515 H         1 UNK         0.0600 
    186 H186        3.8011   -8.7846  -45.1521 H         1 UNK         0.0600 
    187 H187        4.0806  -10.5166  -45.1113 H         1 UNK         0.0600 
    188 H188        3.5117   -9.7461  -46.5893 H         1 UNK         0.0600 
    189 H189        1.2800  -11.9135  -45.0321 H         1 UNK         0.3000 
    190 H190       -2.5818  -21.8307  -46.7590 H         1 UNK         0.3000 
    191 H191       -4.3252  -22.5014  -48.8519 H         1 UNK         0.0600 
    192 H192       -4.7243  -20.5319  -47.4876 H         1 UNK         0.0600 
    193 H193       -6.1009  -21.5950  -47.2571 H         1 UNK         0.0600 
    194 H194       -4.8624  -21.4921  -46.0140 H         1 UNK         0.0600 
    195 H195       -3.6717  -24.2293  -45.8466 H         1 UNK         0.3000 
    196 H196       -5.8080  -26.2363  -46.4070 H         1 UNK         0.0600 
    197 H197       -5.2939  -27.0160  -44.0990 H         1 UNK         0.0600 
    198 H198       -5.7639  -25.3230  -44.1065 H         1 UNK         0.0600 
    199 H199       -4.0680  -25.7644  -43.9274 H         1 UNK         0.0600 
    200 H200       -2.2789  -25.9254  -45.6999 H         1 UNK         0.3000 
    201 H201       -1.7664  -28.6994  -45.9106 H         1 UNK         0.0600 
    202 H202       -0.4148  -27.1317  -44.5459 H         1 UNK         0.0600 
    203 H203        0.1720  -26.3308  -46.0011 H         1 UNK         0.0600 
    204 H204        0.6072  -28.0034  -45.6783 H         1 UNK         0.0600 
    205 H205       -1.5185  -26.1299  -48.3753 H         1 UNK         0.3000 
    206 H206       -0.5254  -28.1203  -50.3872 H         1 UNK         0.0600 
    207 H207        1.1090  -26.2903  -49.8040 H         1 UNK         0.0600 
    208 H208        0.5694  -26.2048  -51.4726 H         1 UNK         0.0600 
    209 H209       -0.0874  -25.0880  -50.2861 H         1 UNK         0.0600 
    210 H210       -3.2598  -26.5741  -49.3848 H         1 UNK         0.3000 
    211 H211       -5.2258  -25.9627  -50.1916 H         1 UNK         0.0600 
    212 H212       -4.5512  -27.4922  -52.7536 H         1 UNK         0.0600 
    213 H213       -6.1508  -27.0496  -52.1777 H         1 UNK         0.0600 
    214 H214       -5.1980  -28.2212  -51.2836 H         1 UNK         0.0600 
    215 H215       -3.0118  -24.1525  -50.4866 H         1 UNK         0.3000 
    216 H216       -2.7839  -22.9574  -52.9884 H         1 UNK         0.0600 
    217 H217       -1.6849  -21.1088  -51.7867 H         1 UNK         0.0600 
    218 H218       -1.1980  -22.6431  -51.0835 H         1 UNK         0.0600 
    219 H219       -2.3889  -21.6302  -50.2642 H         1 UNK         0.0600 
    220 H220       -5.3070  -22.4248  -50.6073 H         1 UNK         0.3000 
    221 H221       -6.3071  -19.9292  -51.6849 H         1 UNK         0.0600 
    222 H222       -7.5449  -21.9989  -49.7922 H         1 UNK         0.0600 
    223 H223       -6.7251  -20.5018  -49.3423 H         1 UNK         0.0600 
    224 H224       -8.2640  -20.4399  -50.1814 H         1 UNK         0.0600 
    225 H225       -7.0182  -23.3881  -52.2013 H         1 UNK         0.3000 
    226 H226       -9.2993  -22.9441  -53.9507 H         1 UNK         0.0600 
    227 H227       -9.0712  -25.0256  -52.5941 H         1 UNK         0.0600 
    228 H228       -9.1345  -25.3927  -54.3111 H         1 UNK         0.0600 
    229 H229       -7.5959  -25.4475  -53.4631 H         1 UNK         0.0600 
    230 H230       -5.8101  -23.5188  -54.3055 H         1 UNK         0.3000 
    231 H231       -5.7715  -23.5446  -57.1943 H         1 UNK         0.0600 
    232 H232       -4.0309  -24.6247  -55.7251 H         1 UNK         0.0600 
    233 H233       -3.5171  -23.0264  -55.1857 H         1 UNK         0.0600 
    234 H234       -3.3258  -23.4917  -56.8688 H         1 UNK         0.0600 
    235 H235       -6.2739  -21.0038  -55.0103 H         1 UNK         0.3000 
    236 H236       -6.2700  -18.7959  -55.0186 H         1 UNK         0.0600 
    237 H237       -6.8588  -17.6283  -57.1179 H         1 UNK         0.0600 
    238 H238       -6.3641  -19.0186  -58.0752 H         1 UNK         0.0600 
    239 H239       -7.7568  -19.1326  -57.0001 H         1 UNK         0.0600 
    240 H240       -3.8122  -19.8747  -54.6011 H         1 UNK         0.3000 
    241 H241       -1.6885  -19.5031  -54.4215 H         1 UNK         0.0600 
    242 H242       -2.8946  -20.3948  -57.3170 H         1 UNK         0.3800 
    243 H243       -1.3880  -20.5078  -58.1864 H         1 UNK         0.3800 
    244 H244       -2.5326  -16.9411  -54.3334 H         1 UNK         0.0800 
    245 H245       -1.6116  -16.7988  -55.7956 H         1 UNK         0.0800 
    246 H246       -1.7208  -17.6076  -52.0596 H         1 UNK         0.0800 
    247 H247       -1.2856  -15.9186  -52.1937 H         1 UNK         0.0800 
@<TRIPOS>BOND
     1    1    2 1    
     2    1  127 1    
     3    1  128 1    
     4    1  129 1    
     5    2    3 2    
     6    2    4 am   BACKBONE|DICT|INTERRES
     7    4    5 1    
     8    4  130 1    
     9    5    6 1    
    10    5   65 1    
    11    5  131 1    
    12    6    7 1    
    13    6  132 1    
    14    6  133 1    
    15    7    8 1    
    16    8    9 1    
    17    8  134 1    
    18    8  135 1    
    19    9   10 ar   
    20    9   14 ar   
    21   10   11 ar   
    22   10  136 1    
    23   11   12 ar   
    24   11  126 1    
    25   12   13 ar   
    26   12  137 1    
    27   13   14 ar   
    28   13   15 1    
    29   14  138 1    
    30   15   16 1    
    31   15  139 1    
    32   15  140 1    
    33   16   17 1    
    34   17   18 1    
    35   17  141 1    
    36   17  142 1    
    37   18   19 1    
    38   18   67 1    
    39   18  143 1    
    40   19   20 am   BACKBONE|DICT|INTERRES
    41   19  144 1    
    42   20   21 2    
    43   20   22 1    
    44   22   23 1    
    45   22   24 1    
    46   22  145 1    
    47   23  146 1    
    48   23  147 1    
    49   23  148 1    
    50   24   25 am   BACKBONE|DICT|INTERRES
    51   24  149 1    
    52   25   26 2    
    53   25   27 1    
    54   27   28 1    
    55   27   29 1    
    56   27  150 1    
    57   28  151 1    
    58   28  152 1    
    59   28  153 1    
    60   29   30 am   BACKBONE|DICT|INTERRES
    61   29  154 1    
    62   30   31 2    
    63   30   32 1    
    64   32   33 1    
    65   32   34 1    
    66   32  155 1    
    67   33  156 1    
    68   33  157 1    
    69   33  158 1    
    70   34   35 am   BACKBONE|DICT|INTERRES
    71   34  159 1    
    72   35   36 2    
    73   35   37 1    
    74   37   38 1    
    75   37   39 1    
    76   37  160 1    
    77   38  161 1    
    78   38  162 1    
    79   38  163 1    
    80   39   40 am   BACKBONE|DICT|INTERRES
    81   39  164 1    
    82   40   41 2    
    83   40   42 1    
    84   42   43 1    
    85   42   44 1    
    86   42  165 1    
    87   43  166 1    
    88   43  167 1    
    89   43  168 1    
    90   44   45 am   BACKBONE|DICT|INTERRES
    91   44  169 1    
    92   45   46 2    
    93   45   47 1    
    94   47   48 1    
    95   47   49 1    
    96   47  170 1    
    97   48  171 1    
    98   48  172 1    
    99   48  173 1    
   100   49   50 am   BACKBONE|DICT|INTERRES
   101   49  174 1    
   102   50   51 2    
   103   50   52 1    
   104   52   53 1    
   105   52   54 1    
   106   52  175 1    
   107   53  176 1    
   108   53  177 1    
   109   53  178 1    
   110   54   55 am   BACKBONE|DICT|INTERRES
   111   54  179 1    
   112   55   56 2    
   113   55   57 1    
   114   57   58 1    
   115   57   59 1    
   116   57  180 1    
   117   58  181 1    
   118   58  182 1    
   119   58  183 1    
   120   59   60 am   BACKBONE|DICT|INTERRES
   121   59  184 1    
   122   60   61 2    
   123   60   62 1    
   124   62   63 1    
   125   62   64 1    
   126   62  185 1    
   127   63  186 1    
   128   63  187 1    
   129   63  188 1    
   130   64   65 am   BACKBONE|DICT|INTERRES
   131   64  189 1    
   132   65   66 2    
   133   67   68 2    
   134   67   69 am   BACKBONE|DICT|INTERRES
   135   69   70 1    
   136   69  190 1    
   137   70   71 1    
   138   70   72 1    
   139   70  191 1    
   140   71  192 1    
   141   71  193 1    
   142   71  194 1    
   143   72   73 2    
   144   72   74 am   BACKBONE|DICT|INTERRES
   145   74   75 1    
   146   74  195 1    
   147   75   76 1    
   148   75   77 1    
   149   75  196 1    
   150   76  197 1    
   151   76  198 1    
   152   76  199 1    
   153   77   78 2    
   154   77   79 am   BACKBONE|DICT|INTERRES
   155   79   80 1    
   156   79  200 1    
   157   80   81 1    
   158   80   82 1    
   159   80  201 1    
   160   81  202 1    
   161   81  203 1    
   162   81  204 1    
   163   82   83 2    
   164   82   84 am   BACKBONE|DICT|INTERRES
   165   84   85 1    
   166   84  205 1    
   167   85   86 1    
   168   85   87 1    
   169   85  206 1    
   170   86  207 1    
   171   86  208 1    
   172   86  209 1    
   173   87   88 2    
   174   87   89 am   BACKBONE|DICT|INTERRES
   175   89   90 1    
   176   89  210 1    
   177   90   91 1    
   178   90   92 1    
   179   90  211 1    
   180   91  212 1    
   181   91  213 1    
   182   91  214 1    
   183   92   93 2    
   184   92   94 am   BACKBONE|DICT|INTERRES
   185   94   95 1    
   186   94  215 1    
   187   95   96 1    
   188   95   97 1    
   189   95  216 1    
   190   96  217 1    
   191   96  218 1    
   192   96  219 1    
   193   97   98 2    
   194   97   99 am   BACKBONE|DICT|INTERRES
   195   99  100 1    
   196   99  220 1    
   197  100  101 1    
   198  100  102 1    
   199  100  221 1    
   200  101  222 1    
   201  101  223 1    
   202  101  224 1    
   203  102  103 2    
   204  102  104 am   BACKBONE|DICT|INTERRES
   205  104  105 1    
   206  104  225 1    
   207  105  106 1    
   208  105  107 1    
   209  105  226 1    
   210  106  227 1    
   211  106  228 1    
   212  106  229 1    
   213  107  108 2    
   214  107  109 am   BACKBONE|DICT|INTERRES
   215  109  110 1    
   216  109  230 1    
   217  110  111 1    
   218  110  112 1    
   219  110  231 1    
   220  111  232 1    
   221  111  233 1    
   222  111  234 1    
   223  112  113 2    
   224  112  114 am   BACKBONE|DICT|INTERRES
   225  114  115 1    
   226  114  235 1    
   227  115  116 1    
   228  115  117 1    
   229  115  236 1    
   230  116  237 1    
   231  116  238 1    
   232  116  239 1    
   233  117  118 2    
   234  117  119 am   BACKBONE|DICT|INTERRES
   235  119  120 1    
   236  119  240 1    
   237  120  121 1    
   238  120  124 1    
   239  120  241 1    
   240  121  122 am   BACKBONE|DICT|INTERRES
   241  121  123 2    
   242  122  242 1    
   243  122  243 1    
   244  124  125 1    
   245  124  244 1    
   246  124  245 1    
   247  125  126 1    
   248  126  246 1    
   249  126  247 1    
@<TRIPOS>SUBSTRUCTURE
     1 UNK         1 GROUP             0       ****    0 ROOT    
