@<TRIPOS>MOLECULE
3R540
247   249    1
SMALL
USER_CHARGES


@<TRIPOS>ATOM
      1 CA          0.4718   -9.8927  -43.6988 C.3       0 UNK        -0.1800 
      2 C           0.8982  -11.1956  -44.3604 C.2       0 UNK         0.5000 
      3 O           0.9443  -12.2258  -43.6905 O.2       0 UNK        -0.5000 
      4 N           1.1945  -11.1436  -45.6659 N.am      1 UNK        -0.5000 
      5 CA          1.6618  -12.2377  -46.5325 C.3       1 UNK         0.1400 
      6 C6          0.7534  -13.5008  -46.5427 C.3       23 UNK        -0.0398 
      7 S7         -0.9862  -13.1050  -46.9307 S.3       23 UNK        -0.2404 
      8 C8         -1.0649  -13.4375  -48.7182 C.3       23 UNK        -0.0205 
      9 C9         -1.2997  -14.9104  -49.0155 C.ar      23 UNK        -0.0193 
     10 C10        -0.2735  -15.7085  -49.5269 C.ar      23 UNK        -0.1150 
     11 C11        -0.5039  -17.0548  -49.8270 C.ar      23 UNK        -0.0193 
     12 C12        -1.7703  -17.6040  -49.6001 C.ar      23 UNK        -0.1150 
     13 C13        -2.8054  -16.8156  -49.0865 C.ar      23 UNK        -0.0193 
     14 C14        -2.5621  -15.4694  -48.8025 C.ar      23 UNK        -0.1150 
     15 C15        -4.1967  -17.3900  -48.8584 C.3       23 UNK        -0.0205 
     16 S16        -4.5493  -17.6148  -47.0845 S.3       23 UNK        -0.2404 
     17 C17        -4.4754  -19.4276  -46.8910 C.3       23 UNK        -0.0398 
     18 CA         -3.0861  -20.0416  -47.1768 C.3       11 UNK         0.1400 
     19 N          -2.0110  -19.3894  -46.4339 N.am      11 UNK        -0.5000 
     20 C          -0.7073  -19.5467  -46.6929 C.2       10 UNK         0.5000 
     21 O          -0.2675  -20.2659  -47.5870 O.2       10 UNK        -0.5000 
     22 CA          0.2631  -18.8209  -45.7496 C.3       10 UNK         0.1400 
     23 CB          0.3958  -17.3481  -46.1647 C.3       10 UNK        -0.1800 
     24 N          -0.1645  -18.9196  -44.3500 N.am      10 UNK        -0.5000 
     25 C          -0.2801  -20.0776  -43.6776 C.2       9 UNK         0.5000 
     26 O           0.0584  -21.1645  -44.1396 O.2       9 UNK        -0.5000 
     27 CA         -0.9351  -20.0459  -42.2851 C.3       9 UNK         0.1400 
     28 CB          0.1203  -20.0586  -41.1696 C.3       9 UNK        -0.1800 
     29 N          -1.8450  -18.9156  -42.1110 N.am      9 UNK        -0.5000 
     30 C          -3.0058  -18.7774  -42.7700 C.2       8 UNK         0.5000 
     31 O          -3.4426  -19.6203  -43.5558 O.2       8 UNK        -0.5000 
     32 CA         -3.7895  -17.4687  -42.5437 C.3       8 UNK         0.1400 
     33 CB         -4.9082  -17.6842  -41.5141 C.3       8 UNK        -0.1800 
     34 N          -2.9419  -16.3542  -42.1066 N.am      8 UNK        -0.5000 
     35 C          -1.9967  -15.7799  -42.8636 C.2       7 UNK         0.5000 
     36 O          -1.7903  -16.1051  -44.0331 O.2       7 UNK        -0.5000 
     37 CA         -1.1261  -14.6815  -42.2111 C.3       7 UNK         0.1400 
     38 CB         -1.1578  -14.6940  -40.6664 C.3       7 UNK        -0.1800 
     39 N           0.2617  -14.7103  -42.6845 N.am      7 UNK        -0.5000 
     40 C           1.1124  -15.7425  -42.6370 C.2       6 UNK         0.5000 
     41 O           0.8382  -16.8376  -42.1401 O.2       6 UNK        -0.5000 
     42 CA          2.5065  -15.5127  -43.2408 C.3       6 UNK         0.1400 
     43 CB          3.4054  -14.7149  -42.2826 C.3       6 UNK        -0.1800 
     44 N           3.1166  -16.8113  -43.5127 N.am      6 UNK        -0.5000 
     45 C           3.8782  -17.1127  -44.5691 C.2       5 UNK         0.5000 
     46 O           4.2174  -16.2864  -45.4194 O.2       5 UNK        -0.5000 
     47 CA          4.3284  -18.5791  -44.7270 C.3       5 UNK         0.1400 
     48 CB          3.6249  -19.5769  -43.7793 C.3       5 UNK        -0.1800 
     49 N           4.1401  -18.9495  -46.1256 N.am      5 UNK        -0.5000 
     50 C           4.6968  -19.9747  -46.7777 C.2       4 UNK         0.5000 
     51 O           5.3774  -20.8441  -46.2330 O.2       4 UNK        -0.5000 
     52 CA          4.5160  -20.0084  -48.3125 C.3       4 UNK         0.1400 
     53 CB          3.1158  -20.5092  -48.7157 C.3       4 UNK        -0.1800 
     54 N           4.8487  -18.7336  -48.9684 N.am      4 UNK        -0.5000 
     55 C           4.2031  -17.5637  -48.8803 C.2       3 UNK         0.5000 
     56 O           3.1439  -17.4018  -48.2710 O.2       3 UNK        -0.5000 
     57 CA          4.8729  -16.3535  -49.5350 C.3       3 UNK         0.1400 
     58 CB          4.2082  -15.9849  -50.8714 C.3       3 UNK        -0.1800 
     59 N           4.7471  -15.2506  -48.5935 N.am      3 UNK        -0.5000 
     60 C           5.6257  -14.2605  -48.4217 C.2       2 UNK         0.5000 
     61 O           6.6362  -14.1167  -49.1123 O.2       2 UNK        -0.5000 
     62 CA          5.2942  -13.2607  -47.3014 C.3       2 UNK         0.1400 
     63 CB          6.1361  -11.9704  -47.3661 C.3       2 UNK        -0.1800 
     64 N           3.8683  -12.9310  -47.3319 N.am      2 UNK        -0.5000 
     65 C           3.1416  -12.5940  -46.2613 C.2       1 UNK         0.5000 
     66 O           3.6063  -12.5459  -45.1208 O.2       1 UNK        -0.5000 
     67 C          -3.0918  -21.5603  -46.9352 C.2       11 UNK         0.5000 
     68 O          -3.2132  -22.3189  -47.8942 O.2       11 UNK        -0.5000 
     69 N          -2.9131  -21.9753  -45.6727 N.am      12 UNK        -0.5000 
     70 CA         -2.8098  -23.3826  -45.2796 C.3       12 UNK         0.1400 
     71 CB         -2.8213  -23.4861  -43.7473 C.3       12 UNK        -0.1800 
     72 C          -1.5655  -24.0790  -45.8652 C.2       12 UNK         0.5000 
     73 O          -1.6537  -25.2350  -46.2802 O.2       12 UNK        -0.5000 
     74 N          -0.4362  -23.3581  -45.9039 N.am      13 UNK        -0.5000 
     75 CA          0.8188  -23.8047  -46.5056 C.3       13 UNK         0.1400 
     76 CB          1.9577  -22.8750  -46.0579 C.3       13 UNK        -0.1800 
     77 C           0.7539  -23.8944  -48.0420 C.2       13 UNK         0.5000 
     78 O           1.4426  -24.7378  -48.6176 O.2       13 UNK        -0.5000 
     79 N          -0.0640  -23.0411  -48.6770 N.am      14 UNK        -0.5000 
     80 CA         -0.2987  -23.0331  -50.1207 C.3       14 UNK         0.1400 
     81 CB         -1.0887  -21.7782  -50.5261 C.3       14 UNK        -0.1800 
     82 C          -1.0085  -24.3104  -50.6012 C.2       14 UNK         0.5000 
     83 O          -0.5041  -24.9712  -51.5104 O.2       14 UNK        -0.5000 
     84 N          -2.1397  -24.6486  -49.9684 N.am      15 UNK        -0.5000 
     85 CA         -2.9419  -25.8377  -50.2492 C.3       15 UNK         0.1400 
     86 CB         -3.5690  -25.7553  -51.6565 C.3       15 UNK        -0.1800 
     87 C          -4.0528  -25.9754  -49.2008 C.2       15 UNK         0.5000 
     88 O          -4.4088  -24.9974  -48.5394 O.2       15 UNK        -0.5000 
     89 N          -4.6330  -27.1792  -49.1116 N.am      16 UNK        -0.5000 
     90 CA         -5.8533  -27.4481  -48.3511 C.3       16 UNK         0.1400 
     91 CB         -6.1472  -28.9561  -48.3720 C.3       16 UNK        -0.1800 
     92 C          -7.0316  -26.6435  -48.9324 C.2       16 UNK         0.5000 
     93 O          -7.3167  -26.7653  -50.1258 O.2       16 UNK        -0.5000 
     94 N          -7.6483  -25.8065  -48.0872 N.am      17 UNK        -0.5000 
     95 CA         -8.6867  -24.8243  -48.4244 C.3       17 UNK         0.1400 
     96 CB         -9.9769  -25.5198  -48.9090 C.3       17 UNK        -0.1800 
     97 C          -8.1973  -23.7179  -49.3886 C.2       17 UNK         0.5000 
     98 O          -8.9950  -23.1791  -50.1575 O.2       17 UNK        -0.5000 
     99 N          -6.8947  -23.3968  -49.3309 N.am      18 UNK        -0.5000 
    100 CA        -6.1602  -22.3489  -50.0554 C.3       18 UNK         0.1400 
    101 CB        -6.7617  -20.9567  -49.7846 C.3       18 UNK        -0.1800 
    102 C         -5.9931  -22.5802  -51.5694 C.2       18 UNK         0.5000 
    103 O         -4.9517  -22.2092  -52.1130 O.2       18 UNK        -0.5000 
    104 N         -7.0008  -23.1749  -52.2220 N.am      19 UNK        -0.5000 
    105 CA        -7.0997  -23.4600  -53.6557 C.3       19 UNK         0.1400 
    106 CB        -6.1206  -24.5868  -54.0536 C.3       19 UNK        -0.1800 
    107 C         -6.9516  -22.1734  -54.4949 C.2       19 UNK         0.5000 
    108 O         -7.8776  -21.3615  -54.5194 O.2       19 UNK        -0.5000 
    109 N         -5.7911  -21.9964  -55.1404 N.am      20 UNK        -0.5000 
    110 CA        -5.4215  -20.8002  -55.9000 C.3       20 UNK         0.1400 
    111 CB        -4.2134  -21.1357  -56.7886 C.3       20 UNK        -0.1800 
    112 C         -5.1097  -19.5754  -55.0147 C.2       20 UNK         0.5000 
    113 O         -5.0773  -18.4581  -55.5340 O.2       20 UNK        -0.5000 
    114 N         -4.8574  -19.8005  -53.7137 N.am      21 UNK        -0.5000 
    115 CA        -4.5857  -18.8004  -52.6724 C.3       21 UNK         0.1400 
    116 CB        -5.8698  -18.0069  -52.3550 C.3       21 UNK        -0.1800 
    117 C         -3.3787  -17.8903  -52.9886 C.2       21 UNK         0.5000 
    118 O         -3.3773  -16.7144  -52.6231 O.2       21 UNK        -0.5000 
    119 N         -2.3895  -18.4586  -53.6915 N.am      22 UNK        -0.5000 
    120 CA        -1.1722  -17.7944  -54.1903 C.3       22 UNK         0.1400 
    121 C         -1.4281  -16.6879  -55.2614 C.2       22 UNK         0.5000 
    122 N         -2.5984  -16.6264  -55.8884 N.am      22 UNK        -0.7600 
    123 O         -0.5417  -15.8924  -55.5613 O.2       22 UNK        -0.5000 
    124 C124       -0.2168  -17.3336  -53.0519 C.3       23 UNK        -0.0398 
    125 S125        0.2450  -18.7258  -51.9616 S.3       23 UNK        -0.2404 
    126 C126        0.6293  -17.9104  -50.3779 C.3       23 UNK        -0.0205 
    127 H127       -0.5295   -9.9958  -43.2807 H         1 UNK         0.0600 
    128 H128        0.4620   -9.0618  -44.4045 H         1 UNK         0.0600 
    129 H129        1.1567   -9.6432  -42.8884 H         1 UNK         0.0600 
    130 H130        1.1364  -10.2469  -46.1271 H         1 UNK         0.3000 
    131 H131        1.6273  -11.8166  -47.5387 H         1 UNK         0.0600 
    132 H132        1.1198  -14.2360  -47.2611 H         1 UNK         0.0800 
    133 H133        0.7693  -14.0032  -45.5765 H         1 UNK         0.0800 
    134 H134       -0.1569  -13.0775  -49.2041 H         1 UNK         0.0800 
    135 H135       -1.8849  -12.8573  -49.1436 H         1 UNK         0.0800 
    136 H136        0.7048  -15.2810  -49.6946 H         1 UNK         0.1150 
    137 H137       -1.9435  -18.6425  -49.8396 H         1 UNK         0.1150 
    138 H138       -3.3589  -14.8539  -48.4091 H         1 UNK         0.1150 
    139 H139       -4.9336  -16.7000  -49.2712 H         1 UNK         0.0800 
    140 H140       -4.3263  -18.3278  -49.3991 H         1 UNK         0.0800 
    141 H141       -5.2249  -19.8698  -47.5459 H         1 UNK         0.0800 
    142 H142       -4.7941  -19.6581  -45.8732 H         1 UNK         0.0800 
    143 H143       -2.8769  -19.9062  -48.2376 H         1 UNK         0.0600 
    144 H144       -2.2908  -18.7898  -45.6708 H         1 UNK         0.3000 
    145 H145        1.2407  -19.2955  -45.8448 H         1 UNK         0.0600 
    146 H146        1.0557  -16.7966  -45.4995 H         1 UNK         0.0600 
    147 H147        0.8083  -17.2694  -47.1695 H         1 UNK         0.0600 
    148 H148       -0.5682  -16.8393  -46.1816 H         1 UNK         0.0600 
    149 H149       -0.4681  -18.0633  -43.9030 H         1 UNK         0.3000 
    150 H150       -1.5256  -20.9583  -42.1851 H         1 UNK         0.0600 
    151 H151        0.7564  -20.9410  -41.2505 H         1 UNK         0.0600 
    152 H152       -0.3461  -20.0846  -40.1848 H         1 UNK         0.0600 
    153 H153        0.7719  -19.1875  -41.2095 H         1 UNK         0.0600 
    154 H154       -1.5279  -18.1638  -41.5160 H         1 UNK         0.3000 
    155 H155       -4.2479  -17.1946  -43.4965 H         1 UNK         0.0600 
    156 H156       -4.5085  -17.9455  -40.5335 H         1 UNK         0.0600 
    157 H157       -5.5729  -18.4920  -41.8237 H         1 UNK         0.0600 
    158 H158       -5.5191  -16.7883  -41.4014 H         1 UNK         0.0600 
    159 H159       -3.0604  -16.0401  -41.1544 H         1 UNK         0.3000 
    160 H160       -1.5383  -13.7290  -42.5467 H         1 UNK         0.0600 
    161 H161       -0.8304  -15.6517  -40.2598 H         1 UNK         0.0600 
    162 H162       -2.1589  -14.4911  -40.2849 H         1 UNK         0.0600 
    163 H163       -0.5038  -13.9230  -40.2586 H         1 UNK         0.0600 
    164 H164        0.5795  -13.8374  -43.1081 H         1 UNK         0.3000 
    165 H165        2.3871  -14.9551  -44.1709 H         1 UNK         0.0600 
    166 H166        4.3908  -14.5484  -42.7180 H         1 UNK         0.0600 
    167 H167        2.9767  -13.7342  -42.0723 H         1 UNK         0.0600 
    168 H168        3.5385  -15.2309  -41.3311 H         1 UNK         0.0600 
    169 H169        2.8049  -17.5482  -42.8932 H         1 UNK         0.3000 
    170 H170        5.3988  -18.5998  -44.5142 H         1 UNK         0.0600 
    171 H171        3.8271  -19.3406  -42.7342 H         1 UNK         0.0600 
    172 H172        2.5468  -19.5754  -43.9183 H         1 UNK         0.0600 
    173 H173        3.9728  -20.5968  -43.9415 H         1 UNK         0.0600 
    174 H174        3.6516  -18.2550  -46.6889 H         1 UNK         0.3000 
    175 H175        5.2382  -20.7288  -48.7000 H         1 UNK         0.0600 
    176 H176        2.9607  -20.4393  -49.7923 H         1 UNK         0.0600 
    177 H177        2.9851  -21.5549  -48.4400 H         1 UNK         0.0600 
    178 H178        2.3249  -19.9420  -48.2261 H         1 UNK         0.0600 
    179 H179        5.7225  -18.7451  -49.4761 H         1 UNK         0.3000 
    180 H180        5.9277  -16.5813  -49.7037 H         1 UNK         0.0600 
    181 H181        3.1774  -15.6591  -50.7316 H         1 UNK         0.0600 
    182 H182        4.1989  -16.8355  -51.5541 H         1 UNK         0.0600 
    183 H183        4.7464  -15.1758  -51.3652 H         1 UNK         0.0600 
    184 H184        3.9858  -15.3570  -47.9329 H         1 UNK         0.3000 
    185 H185        5.5253  -13.7746  -46.3655 H         1 UNK         0.0600 
    186 H186        7.2025  -12.1937  -47.3164 H         1 UNK         0.0600 
    187 H187        5.9553  -11.4212  -48.2907 H         1 UNK         0.0600 
    188 H188        5.9082  -11.3067  -46.5320 H         1 UNK         0.0600 
    189 H189        3.4370  -12.9609  -48.2458 H         1 UNK         0.3000 
    190 H190       -2.8349  -21.2821  -44.9386 H         1 UNK         0.3000 
    191 H191       -3.6913  -23.9003  -45.6645 H         1 UNK         0.0600 
    192 H192       -1.9387  -23.0225  -43.3068 H         1 UNK         0.0600 
    193 H193       -2.8344  -24.5294  -43.4294 H         1 UNK         0.0600 
    194 H194       -3.7026  -23.0045  -43.3232 H         1 UNK         0.0600 
    195 H195       -0.4216  -22.4405  -45.4670 H         1 UNK         0.3000 
    196 H196        1.0356  -24.8064  -46.1289 H         1 UNK         0.0600 
    197 H197        2.9079  -23.1701  -46.5046 H         1 UNK         0.0600 
    198 H198        2.0868  -22.9037  -44.9760 H         1 UNK         0.0600 
    199 H199        1.7652  -21.8396  -46.3403 H         1 UNK         0.0600 
    200 H200       -0.5422  -22.3308  -48.1356 H         1 UNK         0.3000 
    201 H201        0.6763  -22.9832  -50.6098 H         1 UNK         0.0600 
    202 H202       -0.6062  -20.8754  -50.1551 H         1 UNK         0.0600 
    203 H203       -2.1098  -21.7896  -50.1476 H         1 UNK         0.0600 
    204 H204       -1.1491  -21.6928  -51.6116 H         1 UNK         0.0600 
    205 H205       -2.4969  -24.0635  -49.2176 H         1 UNK         0.3000 
    206 H206       -2.2967  -26.7158  -50.1832 H         1 UNK         0.0600 
    207 H207       -2.8157  -25.7746  -52.4432 H         1 UNK         0.0600 
    208 H208       -4.2428  -26.5919  -51.8451 H         1 UNK         0.0600 
    209 H209       -4.1468  -24.8400  -51.7710 H         1 UNK         0.0600 
    210 H210       -4.3105  -27.9234  -49.7125 H         1 UNK         0.3000 
    211 H211       -5.6824  -27.1458  -47.3156 H         1 UNK         0.0600 
    212 H212       -6.3013  -29.3237  -49.3874 H         1 UNK         0.0600 
    213 H213       -7.0475  -29.1846  -47.8002 H         1 UNK         0.0600 
    214 H214       -5.3285  -29.5240  -47.9297 H         1 UNK         0.0600 
    215 H215       -7.3240  -25.7749  -47.1303 H         1 UNK         0.3000 
    216 H216       -8.9276  -24.3132  -47.4913 H         1 UNK         0.0600 
    217 H217      -10.7966  -24.8056  -48.9953 H         1 UNK         0.0600 
    218 H218      -10.2953  -26.2927  -48.2096 H         1 UNK         0.0600 
    219 H219       -9.8474  -25.9840  -49.8869 H         1 UNK         0.0600 
    220 H220       -6.3040  -23.9606  -48.7291 H         1 UNK         0.3000 
    221 H221       -5.1558  -22.3615  -49.6323 H         1 UNK         0.0600 
    222 H222       -7.6975  -20.8071  -50.3243 H         1 UNK         0.0600 
    223 H223       -6.9664  -20.8109  -48.7248 H         1 UNK         0.0600 
    224 H224       -6.0756  -20.1705  -50.0998 H         1 UNK         0.0600 
    225 H225       -7.8362  -23.3643  -51.6759 H         1 UNK         0.3000 
    226 H226       -8.1121  -23.8275  -53.8286 H         1 UNK         0.0600 
    227 H227       -6.3119  -25.4890  -53.4720 H         1 UNK         0.0600 
    228 H228       -6.2370  -24.8519  -55.1052 H         1 UNK         0.0600 
    229 H229       -5.0783  -24.3103  -53.8957 H         1 UNK         0.0600 
    230 H230       -5.0791  -22.7054  -55.0413 H         1 UNK         0.3000 
    231 H231       -6.2588  -20.5305  -56.5469 H         1 UNK         0.0600 
    232 H232       -4.4414  -21.9538  -57.4721 H         1 UNK         0.0600 
    233 H233       -3.3450  -21.4249  -56.1954 H         1 UNK         0.0600 
    234 H234       -3.9240  -20.2778  -57.3971 H         1 UNK         0.0600 
    235 H235       -4.8831  -20.7612  -53.3812 H         1 UNK         0.3000 
    236 H236       -4.3111  -19.3604  -51.7776 H         1 UNK         0.0600 
    237 H237       -6.1778  -17.3871  -53.1975 H         1 UNK         0.0600 
    238 H238       -6.6960  -18.6752  -52.1124 H         1 UNK         0.0600 
    239 H239       -5.7255  -17.3462  -51.5005 H         1 UNK         0.0600 
    240 H240       -2.4940  -19.4281  -53.9504 H         1 UNK         0.3000 
    241 H241       -0.6417  -18.5691  -54.7449 H         1 UNK         0.0600 
    242 H242       -3.3508  -17.2658  -55.6590 H         1 UNK         0.3800 
    243 H243       -2.7469  -15.9153  -56.5866 H         1 UNK         0.3800 
    244 H244       -0.6807  -16.5356  -52.4719 H         1 UNK         0.0800 
    245 H245        0.7047  -16.9181  -53.4621 H         1 UNK         0.0800 
    246 H246        1.5323  -17.3168  -50.5106 H         1 UNK         0.0800 
    247 H247        0.8723  -18.6754  -49.6405 H         1 UNK         0.0800 
@<TRIPOS>BOND
     1    1    2 1    
     2    1  127 1    
     3    1  128 1    
     4    1  129 1    
     5    2    3 2    
     6    2    4 am   BACKBONE|DICT|INTERRES
     7    4    5 1    
     8    4  130 1    
     9    5    6 1    
    10    5   65 1    
    11    5  131 1    
    12    6    7 1    
    13    6  132 1    
    14    6  133 1    
    15    7    8 1    
    16    8    9 1    
    17    8  134 1    
    18    8  135 1    
    19    9   10 ar   
    20    9   14 ar   
    21   10   11 ar   
    22   10  136 1    
    23   11   12 ar   
    24   11  126 1    
    25   12   13 ar   
    26   12  137 1    
    27   13   14 ar   
    28   13   15 1    
    29   14  138 1    
    30   15   16 1    
    31   15  139 1    
    32   15  140 1    
    33   16   17 1    
    34   17   18 1    
    35   17  141 1    
    36   17  142 1    
    37   18   19 1    
    38   18   67 1    
    39   18  143 1    
    40   19   20 am   BACKBONE|DICT|INTERRES
    41   19  144 1    
    42   20   21 2    
    43   20   22 1    
    44   22   23 1    
    45   22   24 1    
    46   22  145 1    
    47   23  146 1    
    48   23  147 1    
    49   23  148 1    
    50   24   25 am   BACKBONE|DICT|INTERRES
    51   24  149 1    
    52   25   26 2    
    53   25   27 1    
    54   27   28 1    
    55   27   29 1    
    56   27  150 1    
    57   28  151 1    
    58   28  152 1    
    59   28  153 1    
    60   29   30 am   BACKBONE|DICT|INTERRES
    61   29  154 1    
    62   30   31 2    
    63   30   32 1    
    64   32   33 1    
    65   32   34 1    
    66   32  155 1    
    67   33  156 1    
    68   33  157 1    
    69   33  158 1    
    70   34   35 am   BACKBONE|DICT|INTERRES
    71   34  159 1    
    72   35   36 2    
    73   35   37 1    
    74   37   38 1    
    75   37   39 1    
    76   37  160 1    
    77   38  161 1    
    78   38  162 1    
    79   38  163 1    
    80   39   40 am   BACKBONE|DICT|INTERRES
    81   39  164 1    
    82   40   41 2    
    83   40   42 1    
    84   42   43 1    
    85   42   44 1    
    86   42  165 1    
    87   43  166 1    
    88   43  167 1    
    89   43  168 1    
    90   44   45 am   BACKBONE|DICT|INTERRES
    91   44  169 1    
    92   45   46 2    
    93   45   47 1    
    94   47   48 1    
    95   47   49 1    
    96   47  170 1    
    97   48  171 1    
    98   48  172 1    
    99   48  173 1    
   100   49   50 am   BACKBONE|DICT|INTERRES
   101   49  174 1    
   102   50   51 2    
   103   50   52 1    
   104   52   53 1    
   105   52   54 1    
   106   52  175 1    
   107   53  176 1    
   108   53  177 1    
   109   53  178 1    
   110   54   55 am   BACKBONE|DICT|INTERRES
   111   54  179 1    
   112   55   56 2    
   113   55   57 1    
   114   57   58 1    
   115   57   59 1    
   116   57  180 1    
   117   58  181 1    
   118   58  182 1    
   119   58  183 1    
   120   59   60 am   BACKBONE|DICT|INTERRES
   121   59  184 1    
   122   60   61 2    
   123   60   62 1    
   124   62   63 1    
   125   62   64 1    
   126   62  185 1    
   127   63  186 1    
   128   63  187 1    
   129   63  188 1    
   130   64   65 am   BACKBONE|DICT|INTERRES
   131   64  189 1    
   132   65   66 2    
   133   67   68 2    
   134   67   69 am   BACKBONE|DICT|INTERRES
   135   69   70 1    
   136   69  190 1    
   137   70   71 1    
   138   70   72 1    
   139   70  191 1    
   140   71  192 1    
   141   71  193 1    
   142   71  194 1    
   143   72   73 2    
   144   72   74 am   BACKBONE|DICT|INTERRES
   145   74   75 1    
   146   74  195 1    
   147   75   76 1    
   148   75   77 1    
   149   75  196 1    
   150   76  197 1    
   151   76  198 1    
   152   76  199 1    
   153   77   78 2    
   154   77   79 am   BACKBONE|DICT|INTERRES
   155   79   80 1    
   156   79  200 1    
   157   80   81 1    
   158   80   82 1    
   159   80  201 1    
   160   81  202 1    
   161   81  203 1    
   162   81  204 1    
   163   82   83 2    
   164   82   84 am   BACKBONE|DICT|INTERRES
   165   84   85 1    
   166   84  205 1    
   167   85   86 1    
   168   85   87 1    
   169   85  206 1    
   170   86  207 1    
   171   86  208 1    
   172   86  209 1    
   173   87   88 2    
   174   87   89 am   BACKBONE|DICT|INTERRES
   175   89   90 1    
   176   89  210 1    
   177   90   91 1    
   178   90   92 1    
   179   90  211 1    
   180   91  212 1    
   181   91  213 1    
   182   91  214 1    
   183   92   93 2    
   184   92   94 am   BACKBONE|DICT|INTERRES
   185   94   95 1    
   186   94  215 1    
   187   95   96 1    
   188   95   97 1    
   189   95  216 1    
   190   96  217 1    
   191   96  218 1    
   192   96  219 1    
   193   97   98 2    
   194   97   99 am   BACKBONE|DICT|INTERRES
   195   99  100 1    
   196   99  220 1    
   197  100  101 1    
   198  100  102 1    
   199  100  221 1    
   200  101  222 1    
   201  101  223 1    
   202  101  224 1    
   203  102  103 2    
   204  102  104 am   BACKBONE|DICT|INTERRES
   205  104  105 1    
   206  104  225 1    
   207  105  106 1    
   208  105  107 1    
   209  105  226 1    
   210  106  227 1    
   211  106  228 1    
   212  106  229 1    
   213  107  108 2    
   214  107  109 am   BACKBONE|DICT|INTERRES
   215  109  110 1    
   216  109  230 1    
   217  110  111 1    
   218  110  112 1    
   219  110  231 1    
   220  111  232 1    
   221  111  233 1    
   222  111  234 1    
   223  112  113 2    
   224  112  114 am   BACKBONE|DICT|INTERRES
   225  114  115 1    
   226  114  235 1    
   227  115  116 1    
   228  115  117 1    
   229  115  236 1    
   230  116  237 1    
   231  116  238 1    
   232  116  239 1    
   233  117  118 2    
   234  117  119 am   BACKBONE|DICT|INTERRES
   235  119  120 1    
   236  119  240 1    
   237  120  121 1    
   238  120  124 1    
   239  120  241 1    
   240  121  122 am   BACKBONE|DICT|INTERRES
   241  121  123 2    
   242  122  242 1    
   243  122  243 1    
   244  124  125 1    
   245  124  244 1    
   246  124  245 1    
   247  125  126 1    
   248  126  246 1    
   249  126  247 1    
@<TRIPOS>SUBSTRUCTURE
     1 UNK         1 GROUP             0       ****    0 ROOT    
