@<TRIPOS>MOLECULE
3R540
247   249    1
SMALL
USER_CHARGES


@<TRIPOS>ATOM
      1 CA          5.5144  -15.6839  -51.9034 C.3       0 UNK        -0.1800 
      2 C           5.8504  -14.2940  -51.3637 C.2       0 UNK         0.5000 
      3 O           6.4796  -13.5104  -52.0721 O.2       0 UNK        -0.5000 
      4 N           5.4493  -13.9311  -50.1375 N.am      1 UNK        -0.5000 
      5 CA          4.7724  -14.7641  -49.1388 C.3       1 UNK         0.1400 
      6 C6          4.1596  -13.9096  -48.0033 C.3       23 UNK        -0.0398 
      7 S7          2.7740  -12.8732  -48.5858 S.3       23 UNK        -0.2404 
      8 C8          1.3388  -13.6733  -47.7981 C.3       23 UNK        -0.0205 
      9 C9          0.8215  -14.8653  -48.5949 C.ar      23 UNK        -0.0193 
     10 C10        -0.3506  -14.7534  -49.3505 C.ar      23 UNK        -0.1150 
     11 C11        -0.8413  -15.8478  -50.0696 C.ar      23 UNK        -0.0193 
     12 C12        -0.1347  -17.0533  -50.0563 C.ar      23 UNK        -0.1150 
     13 C13         1.0447  -17.1735  -49.3185 C.ar      23 UNK        -0.0193 
     14 C14         1.5001  -16.0868  -48.5673 C.ar      23 UNK        -0.1150 
     15 C15         1.8532  -18.4594  -49.3612 C.3       23 UNK        -0.0205 
     16 S16         1.7876  -19.3524  -47.7822 S.3       23 UNK        -0.2404 
     17 C17         0.2439  -20.2919  -47.9972 C.3       23 UNK        -0.0398 
     18 CA         -0.0043  -21.2556  -46.8154 C.3       11 UNK         0.1400 
     19 N          -0.4154  -20.5357  -45.6070 N.am      11 UNK        -0.5000 
     20 C          -0.4697  -21.0603  -44.3749 C.2       10 UNK         0.5000 
     21 O          -0.1782  -22.2274  -44.1120 O.2       10 UNK        -0.5000 
     22 CA         -0.9959  -20.1335  -43.2688 C.3       10 UNK         0.1400 
     23 CB          0.0637  -19.0938  -42.8719 C.3       10 UNK        -0.1800 
     24 N          -2.2214  -19.4657  -43.7120 N.am      10 UNK        -0.5000 
     25 C          -3.4394  -20.0231  -43.6406 C.2       9 UNK         0.5000 
     26 O          -3.6586  -21.1002  -43.0869 O.2       9 UNK        -0.5000 
     27 CA         -4.6145  -19.2796  -44.3066 C.3       9 UNK         0.1400 
     28 CB         -5.4718  -18.5547  -43.2597 C.3       9 UNK        -0.1800 
     29 N          -4.1949  -18.3202  -45.3274 N.am      9 UNK        -0.5000 
     30 C          -3.7894  -18.6577  -46.5596 C.2       8 UNK         0.5000 
     31 O          -3.7290  -19.8152  -46.9653 O.2       8 UNK        -0.5000 
     32 CA         -3.3219  -17.5148  -47.4777 C.3       8 UNK         0.1400 
     33 CB         -4.5174  -16.9177  -48.2343 C.3       8 UNK        -0.1800 
     34 N          -2.6202  -16.4513  -46.7590 N.am      8 UNK        -0.5000 
     35 C          -1.5215  -16.6289  -46.0131 C.2       7 UNK         0.5000 
     36 O          -0.9823  -17.7242  -45.8468 O.2       7 UNK        -0.5000 
     37 CA         -0.9440  -15.3990  -45.2962 C.3       7 UNK         0.1400 
     38 CB         -1.5466  -14.0483  -45.7490 C.3       7 UNK        -0.1800 
     39 N          -1.0327  -15.5413  -43.8432 N.am      7 UNK        -0.5000 
     40 C          -2.1407  -15.6127  -43.0902 C.2       6 UNK         0.5000 
     41 O          -3.2777  -15.6642  -43.5625 O.2       6 UNK        -0.5000 
     42 CA         -1.9653  -15.6227  -41.5536 C.3       6 UNK         0.1400 
     43 CB         -2.6926  -16.8146  -40.9091 C.3       6 UNK        -0.1800 
     44 N          -0.5669  -15.6257  -41.1142 N.am      6 UNK        -0.5000 
     45 C           0.2432  -14.5581  -41.0765 C.2       5 UNK         0.5000 
     46 O          -0.1115  -13.4195  -41.3844 O.2       5 UNK        -0.5000 
     47 CA          1.7084  -14.8018  -40.6505 C.3       5 UNK         0.1400 
     48 CB          1.9231  -16.1342  -39.8963 C.3       5 UNK        -0.1800 
     49 N           2.6456  -14.7097  -41.7777 N.am      5 UNK        -0.5000 
     50 C           2.5962  -15.4067  -42.9228 C.2       4 UNK         0.5000 
     51 O           1.6779  -16.1753  -43.2099 O.2       4 UNK        -0.5000 
     52 CA          3.7514  -15.2324  -43.9342 C.3       4 UNK         0.1400 
     53 CB          4.9977  -14.5169  -43.3683 C.3       4 UNK        -0.1800 
     54 N           4.1144  -16.5193  -44.5407 N.am      4 UNK        -0.5000 
     55 C           4.5393  -17.6193  -43.8976 C.2       3 UNK         0.5000 
     56 O           4.8272  -17.6567  -42.7005 O.2       3 UNK        -0.5000 
     57 CA          4.6410  -18.9091  -44.7312 C.3       3 UNK         0.1400 
     58 CB          3.3524  -19.7340  -44.5841 C.3       3 UNK        -0.1800 
     59 N           4.8946  -18.6566  -46.1527 N.am      3 UNK        -0.5000 
     60 C           6.1086  -18.3841  -46.6529 C.2       2 UNK         0.5000 
     61 O           7.1241  -18.2731  -45.9652 O.2       2 UNK        -0.5000 
     62 CA          6.2019  -18.2080  -48.1780 C.3       2 UNK         0.1400 
     63 CB          5.7924  -19.4909  -48.9217 C.3       2 UNK        -0.1800 
     64 N           5.3873  -17.0876  -48.6468 N.am      2 UNK        -0.5000 
     65 C           5.7522  -15.8019  -48.5564 C.2       1 UNK         0.5000 
     66 O           6.8092  -15.4190  -48.0520 O.2       1 UNK        -0.5000 
     67 C          -0.9807  -22.3849  -47.2102 C.2       11 UNK         0.5000 
     68 O          -0.5642  -23.3167  -47.8998 O.2       11 UNK        -0.5000 
     69 N          -2.2381  -22.3284  -46.7438 N.am      12 UNK        -0.5000 
     70 CA         -3.2729  -23.3539  -46.9188 C.3       12 UNK         0.1400 
     71 CB         -4.5544  -22.9302  -46.1873 C.3       12 UNK        -0.1800 
     72 C          -2.8646  -24.7690  -46.4680 C.2       12 UNK         0.5000 
     73 O          -3.3663  -25.7442  -47.0259 O.2       12 UNK        -0.5000 
     74 N          -1.9455  -24.8541  -45.4978 N.am      13 UNK        -0.5000 
     75 CA         -1.3930  -26.1009  -44.9721 C.3       13 UNK         0.1400 
     76 CB         -0.6082  -25.7832  -43.6898 C.3       13 UNK        -0.1800 
     77 C          -0.5018  -26.8728  -45.9684 C.2       13 UNK         0.5000 
     78 O          -0.2832  -28.0665  -45.7553 O.2       13 UNK        -0.5000 
     79 N           0.0083  -26.1998  -47.0110 N.am      14 UNK        -0.5000 
     80 CA          0.9360  -26.7785  -47.9854 C.3       14 UNK         0.1400 
     81 CB          2.3479  -26.2274  -47.7254 C.3       14 UNK        -0.1800 
     82 C           0.5122  -26.5132  -49.4381 C.2       14 UNK         0.5000 
     83 O           0.5592  -27.4325  -50.2563 O.2       14 UNK        -0.5000 
     84 N           0.1291  -25.2682  -49.7445 N.am      15 UNK        -0.5000 
     85 CA         -0.1350  -24.7933  -51.1043 C.3       15 UNK         0.1400 
     86 CB          0.4699  -23.3855  -51.2434 C.3       15 UNK        -0.1800 
     87 C          -1.6325  -24.7550  -51.4556 C.2       15 UNK         0.5000 
     88 O          -1.9601  -24.5305  -52.6210 O.2       15 UNK        -0.5000 
     89 N          -2.5096  -24.9265  -50.4521 N.am      16 UNK        -0.5000 
     90 CA         -3.9723  -24.7748  -50.5273 C.3       16 UNK         0.1400 
     91 CB         -4.5997  -25.8509  -51.4375 C.3       16 UNK        -0.1800 
     92 C          -4.4062  -23.3409  -50.9132 C.2       16 UNK         0.5000 
     93 O          -5.4552  -23.1549  -51.5314 O.2       16 UNK        -0.5000 
     94 N          -3.5833  -22.3489  -50.5385 N.am      17 UNK        -0.5000 
     95 CA         -3.6818  -20.9462  -50.9469 C.3       17 UNK         0.1400 
     96 CB         -2.5156  -20.1609  -50.3363 C.3       17 UNK        -0.1800 
     97 C          -5.0203  -20.2613  -50.6228 C.2       17 UNK         0.5000 
     98 O          -5.4720  -19.4384  -51.4172 O.2       17 UNK        -0.5000 
     99 N          -5.6416  -20.6203  -49.4913 N.am      18 UNK        -0.5000 
    100 CA        -6.9576  -20.1195  -49.0856 C.3       18 UNK         0.1400 
    101 CB        -7.2310  -20.5045  -47.6243 C.3       18 UNK        -0.1800 
    102 C         -8.0972  -20.6154  -49.9954 C.2       18 UNK         0.5000 
    103 O         -9.0191  -19.8511  -50.2805 O.2       18 UNK        -0.5000 
    104 N         -8.0041  -21.8717  -50.4532 N.am      19 UNK        -0.5000 
    105 CA        -8.9573  -22.4842  -51.3808 C.3       19 UNK         0.1400 
    106 CB        -8.8547  -24.0144  -51.2851 C.3       19 UNK        -0.1800 
    107 C         -8.7266  -22.0089  -52.8256 C.2       19 UNK         0.5000 
    108 O         -9.6901  -21.7955  -53.5617 O.2       19 UNK        -0.5000 
    109 N         -7.4514  -21.8223  -53.1905 N.am      20 UNK        -0.5000 
    110 CA        -7.0087  -21.3052  -54.4859 C.3       20 UNK         0.1400 
    111 CB        -5.5306  -21.6801  -54.6780 C.3       20 UNK        -0.1800 
    112 C         -7.1980  -19.7820  -54.6461 C.2       20 UNK         0.5000 
    113 O         -6.9826  -19.2687  -55.7449 O.2       20 UNK        -0.5000 
    114 N         -7.5438  -19.0804  -53.5549 N.am      21 UNK        -0.5000 
    115 CA        -7.6881  -17.6233  -53.4358 C.3       21 UNK         0.1400 
    116 CB        -8.9272  -17.1371  -54.2147 C.3       21 UNK        -0.1800 
    117 C         -6.3951  -16.8696  -53.8197 C.2       21 UNK         0.5000 
    118 O         -6.4451  -15.8385  -54.4926 O.2       21 UNK        -0.5000 
    119 N         -5.2549  -17.4351  -53.4045 N.am      22 UNK        -0.5000 
    120 CA        -3.8866  -17.0295  -53.7609 C.3       22 UNK         0.1400 
    121 C         -3.4901  -17.2794  -55.2518 C.2       22 UNK         0.5000 
    122 N         -4.2888  -17.9721  -56.0564 N.am      22 UNK        -0.7600 
    123 O         -2.4201  -16.8663  -55.6892 O.2       22 UNK        -0.5000 
    124 C124       -3.5421  -15.5939  -53.2642 C.3       23 UNK        -0.0398 
    125 S125       -1.8383  -15.4591  -52.6220 S.3       23 UNK        -0.2404 
    126 C126       -2.1392  -15.7370  -50.8522 C.3       23 UNK        -0.0205 
    127 H127        6.1304  -16.4445  -51.4243 H         1 UNK         0.0600 
    128 H128        5.7083  -15.7297  -52.9753 H         1 UNK         0.0600 
    129 H129        4.4637  -15.9303  -51.7542 H         1 UNK         0.0600 
    130 H130        5.6888  -13.0042  -49.8172 H         1 UNK         0.3000 
    131 H131        3.9574  -15.2920  -49.6346 H         1 UNK         0.0600 
    132 H132        3.8155  -14.5386  -47.1823 H         1 UNK         0.0800 
    133 H133        4.9161  -13.2533  -47.5689 H         1 UNK         0.0800 
    134 H134        1.5881  -13.9756  -46.7808 H         1 UNK         0.0800 
    135 H135        0.5538  -12.9223  -47.7008 H         1 UNK         0.0800 
    136 H136       -0.8879  -13.8158  -49.3728 H         1 UNK         0.1150 
    137 H137       -0.4959  -17.8916  -50.6340 H         1 UNK         0.1150 
    138 H138        2.3939  -16.1944  -47.9732 H         1 UNK         0.1150 
    139 H139        1.5159  -19.1086  -50.1707 H         1 UNK         0.0800 
    140 H140        2.8900  -18.2177  -49.5905 H         1 UNK         0.0800 
    141 H141       -0.5832  -19.5895  -48.1072 H         1 UNK         0.0800 
    142 H142        0.3246  -20.8382  -48.9384 H         1 UNK         0.0800 
    143 H143        0.9392  -21.7562  -46.5860 H         1 UNK         0.0600 
    144 H144       -0.6382  -19.5497  -45.7278 H         1 UNK         0.3000 
    145 H145       -1.2094  -20.7423  -42.3876 H         1 UNK         0.0600 
    146 H146        0.9752  -19.5814  -42.5259 H         1 UNK         0.0600 
    147 H147        0.3374  -18.4489  -43.7064 H         1 UNK         0.0600 
    148 H148       -0.2845  -18.4581  -42.0606 H         1 UNK         0.0600 
    149 H149       -2.1034  -18.6127  -44.2435 H         1 UNK         0.3000 
    150 H150       -5.2415  -20.0369  -44.7819 H         1 UNK         0.0600 
    151 H151       -5.7948  -19.2377  -42.4730 H         1 UNK         0.0600 
    152 H152       -6.3694  -18.1328  -43.7120 H         1 UNK         0.0600 
    153 H153       -4.9237  -17.7416  -42.7866 H         1 UNK         0.0600 
    154 H154       -4.1682  -17.3463  -45.0532 H         1 UNK         0.3000 
    155 H155       -2.6230  -17.9313  -48.2052 H         1 UNK         0.0600 
    156 H156       -4.2198  -16.0740  -48.8549 H         1 UNK         0.0600 
    157 H157       -5.2928  -16.5674  -47.5517 H         1 UNK         0.0600 
    158 H158       -4.9683  -17.6599  -48.8927 H         1 UNK         0.0600 
    159 H159       -3.0176  -15.5254  -46.8150 H         1 UNK         0.3000 
    160 H160        0.1190  -15.3895  -45.5370 H         1 UNK         0.0600 
    161 H161       -2.5965  -13.9454  -45.4743 H         1 UNK         0.0600 
    162 H162       -1.4803  -13.9231  -46.8289 H         1 UNK         0.0600 
    163 H163       -1.0078  -13.2157  -45.2966 H         1 UNK         0.0600 
    164 H164       -0.1345  -15.6326  -43.3760 H         1 UNK         0.3000 
    165 H165       -2.4343  -14.7105  -41.1795 H         1 UNK         0.0600 
    166 H166       -2.3790  -17.7669  -41.3352 H         1 UNK         0.0600 
    167 H167       -2.5166  -16.8526  -39.8339 H         1 UNK         0.0600 
    168 H168       -3.7700  -16.7307  -41.0499 H         1 UNK         0.0600 
    169 H169       -0.1730  -16.5242  -40.8774 H         1 UNK         0.3000 
    170 H170        1.9637  -13.9925  -39.9648 H         1 UNK         0.0600 
    171 H171        1.2536  -16.2156  -39.0389 H         1 UNK         0.0600 
    172 H172        1.7598  -17.0039  -40.5339 H         1 UNK         0.0600 
    173 H173        2.9414  -16.2004  -39.5128 H         1 UNK         0.0600 
    174 H174        3.4215  -14.0771  -41.6440 H         1 UNK         0.3000 
    175 H175        3.3529  -14.6141  -44.7391 H         1 UNK         0.0600 
    176 H176        5.4060  -15.0304  -42.4972 H         1 UNK         0.0600 
    177 H177        5.7872  -14.4614  -44.1181 H         1 UNK         0.0600 
    178 H178        4.7672  -13.4924  -43.0744 H         1 UNK         0.0600 
    179 H179        3.8810  -16.6273  -45.5150 H         1 UNK         0.3000 
    180 H180        5.4646  -19.5025  -44.3279 H         1 UNK         0.0600 
    181 H181        3.1998  -20.0309  -43.5461 H         1 UNK         0.0600 
    182 H182        3.3908  -20.6463  -45.1797 H         1 UNK         0.0600 
    183 H183        2.4732  -19.1667  -44.8918 H         1 UNK         0.0600 
    184 H184        4.1075  -18.7564  -46.7781 H         1 UNK         0.3000 
    185 H185        7.2470  -18.0075  -48.4253 H         1 UNK         0.0600 
    186 H186        5.9418  -19.3852  -49.9964 H         1 UNK         0.0600 
    187 H187        6.3955  -20.3386  -48.5940 H         1 UNK         0.0600 
    188 H188        4.7471  -19.7512  -48.7551 H         1 UNK         0.0600 
    189 H189        4.5135  -17.3257  -49.0888 H         1 UNK         0.3000 
    190 H190       -2.5277  -21.4850  -46.2649 H         1 UNK         0.3000 
    191 H191       -3.4936  -23.4042  -47.9823 H         1 UNK         0.0600 
    192 H192       -5.3385  -23.6803  -46.3002 H         1 UNK         0.0600 
    193 H193       -4.9500  -21.9981  -46.5825 H         1 UNK         0.0600 
    194 H194       -4.3806  -22.7971  -45.1194 H         1 UNK         0.0600 
    195 H195       -1.5770  -23.9977  -45.1045 H         1 UNK         0.3000 
    196 H196       -2.2274  -26.7542  -44.7089 H         1 UNK         0.0600 
    197 H197       -0.2099  -26.6923  -43.2372 H         1 UNK         0.0600 
    198 H198       -1.2441  -25.3027  -42.9460 H         1 UNK         0.0600 
    199 H199        0.2337  -25.1189  -43.8896 H         1 UNK         0.0600 
    200 H200       -0.2345  -25.2235  -47.1289 H         1 UNK         0.3000 
    201 H201        0.9783  -27.8639  -47.8733 H         1 UNK         0.0600 
    202 H202        2.6992  -26.5028  -46.7309 H         1 UNK         0.0600 
    203 H203        2.3763  -25.1395  -47.8003 H         1 UNK         0.0600 
    204 H204        3.0638  -26.6267  -48.4450 H         1 UNK         0.0600 
    205 H205        0.0750  -24.5609  -49.0149 H         1 UNK         0.3000 
    206 H206        0.3549  -25.4431  -51.8325 H         1 UNK         0.0600 
    207 H207        1.5378  -23.3916  -51.0243 H         1 UNK         0.0600 
    208 H208        0.3502  -23.0042  -52.2583 H         1 UNK         0.0600 
    209 H209       -0.0062  -22.6742  -50.5685 H         1 UNK         0.0600 
    210 H210       -2.1319  -25.1414  -49.5401 H         1 UNK         0.3000 
    211 H211       -4.3552  -24.9486  -49.5218 H         1 UNK         0.0600 
    212 H212       -4.3470  -25.6960  -52.4866 H         1 UNK         0.0600 
    213 H213       -5.6875  -25.8397  -51.3616 H         1 UNK         0.0600 
    214 H214       -4.2664  -26.8494  -51.1548 H         1 UNK         0.0600 
    215 H215       -2.7436  -22.6054  -50.0430 H         1 UNK         0.3000 
    216 H216       -3.5655  -20.9210  -52.0314 H         1 UNK         0.0600 
    217 H217       -2.5795  -19.1032  -50.5923 H         1 UNK         0.0600 
    218 H218       -1.5567  -20.5268  -50.7033 H         1 UNK         0.0600 
    219 H219       -2.5158  -20.2401  -49.2507 H         1 UNK         0.0600 
    220 H220       -5.1797  -21.2646  -48.8676 H         1 UNK         0.3000 
    221 H221       -6.9409  -19.0297  -49.1488 H         1 UNK         0.0600 
    222 H222       -7.2234  -21.5857  -47.4830 H         1 UNK         0.0600 
    223 H223       -6.4891  -20.0693  -46.9564 H         1 UNK         0.0600 
    224 H224       -8.2064  -20.1389  -47.3007 H         1 UNK         0.0600 
    225 H225       -7.1769  -22.4104  -50.2359 H         1 UNK         0.3000 
    226 H226       -9.9691  -22.1947  -51.0883 H         1 UNK         0.0600 
    227 H227       -9.0518  -24.3600  -50.2702 H         1 UNK         0.0600 
    228 H228       -9.5837  -24.4942  -51.9392 H         1 UNK         0.0600 
    229 H229       -7.8677  -24.3746  -51.5764 H         1 UNK         0.0600 
    230 H230       -6.7215  -22.0944  -52.5378 H         1 UNK         0.3000 
    231 H231       -7.5908  -21.7921  -55.2709 H         1 UNK         0.0600 
    232 H232       -5.1768  -21.3904  -55.6683 H         1 UNK         0.0600 
    233 H233       -5.3777  -22.7552  -54.5799 H         1 UNK         0.0600 
    234 H234       -4.8948  -21.1834  -53.9457 H         1 UNK         0.0600 
    235 H235       -7.6314  -19.5947  -52.6895 H         1 UNK         0.3000 
    236 H236       -7.8584  -17.4181  -52.3779 H         1 UNK         0.0600 
    237 H237       -9.8218  -17.6791  -53.9078 H         1 UNK         0.0600 
    238 H238       -9.1121  -16.0777  -54.0336 H         1 UNK         0.0600 
    239 H239       -8.8075  -17.2695  -55.2904 H         1 UNK         0.0600 
    240 H240       -5.3295  -18.2606  -52.8130 H         1 UNK         0.3000 
    241 H241       -3.2684  -17.7321  -53.2008 H         1 UNK         0.0600 
    242 H242       -5.1936  -18.3106  -55.7502 H         1 UNK         0.3800 
    243 H243       -4.0033  -18.1266  -57.0102 H         1 UNK         0.3800 
    244 H244       -3.6836  -14.8592  -54.0587 H         1 UNK         0.0800 
    245 H245       -4.2242  -15.2882  -52.4695 H         1 UNK         0.0800 
    246 H246       -2.7199  -16.6513  -50.7251 H         1 UNK         0.0800 
    247 H247       -2.7498  -14.9226  -50.4596 H         1 UNK         0.0800 
@<TRIPOS>BOND
     1    1    2 1    
     2    1  127 1    
     3    1  128 1    
     4    1  129 1    
     5    2    3 2    
     6    2    4 am   BACKBONE|DICT|INTERRES
     7    4    5 1    
     8    4  130 1    
     9    5    6 1    
    10    5   65 1    
    11    5  131 1    
    12    6    7 1    
    13    6  132 1    
    14    6  133 1    
    15    7    8 1    
    16    8    9 1    
    17    8  134 1    
    18    8  135 1    
    19    9   10 ar   
    20    9   14 ar   
    21   10   11 ar   
    22   10  136 1    
    23   11   12 ar   
    24   11  126 1    
    25   12   13 ar   
    26   12  137 1    
    27   13   14 ar   
    28   13   15 1    
    29   14  138 1    
    30   15   16 1    
    31   15  139 1    
    32   15  140 1    
    33   16   17 1    
    34   17   18 1    
    35   17  141 1    
    36   17  142 1    
    37   18   19 1    
    38   18   67 1    
    39   18  143 1    
    40   19   20 am   BACKBONE|DICT|INTERRES
    41   19  144 1    
    42   20   21 2    
    43   20   22 1    
    44   22   23 1    
    45   22   24 1    
    46   22  145 1    
    47   23  146 1    
    48   23  147 1    
    49   23  148 1    
    50   24   25 am   BACKBONE|DICT|INTERRES
    51   24  149 1    
    52   25   26 2    
    53   25   27 1    
    54   27   28 1    
    55   27   29 1    
    56   27  150 1    
    57   28  151 1    
    58   28  152 1    
    59   28  153 1    
    60   29   30 am   BACKBONE|DICT|INTERRES
    61   29  154 1    
    62   30   31 2    
    63   30   32 1    
    64   32   33 1    
    65   32   34 1    
    66   32  155 1    
    67   33  156 1    
    68   33  157 1    
    69   33  158 1    
    70   34   35 am   BACKBONE|DICT|INTERRES
    71   34  159 1    
    72   35   36 2    
    73   35   37 1    
    74   37   38 1    
    75   37   39 1    
    76   37  160 1    
    77   38  161 1    
    78   38  162 1    
    79   38  163 1    
    80   39   40 am   BACKBONE|DICT|INTERRES
    81   39  164 1    
    82   40   41 2    
    83   40   42 1    
    84   42   43 1    
    85   42   44 1    
    86   42  165 1    
    87   43  166 1    
    88   43  167 1    
    89   43  168 1    
    90   44   45 am   BACKBONE|DICT|INTERRES
    91   44  169 1    
    92   45   46 2    
    93   45   47 1    
    94   47   48 1    
    95   47   49 1    
    96   47  170 1    
    97   48  171 1    
    98   48  172 1    
    99   48  173 1    
   100   49   50 am   BACKBONE|DICT|INTERRES
   101   49  174 1    
   102   50   51 2    
   103   50   52 1    
   104   52   53 1    
   105   52   54 1    
   106   52  175 1    
   107   53  176 1    
   108   53  177 1    
   109   53  178 1    
   110   54   55 am   BACKBONE|DICT|INTERRES
   111   54  179 1    
   112   55   56 2    
   113   55   57 1    
   114   57   58 1    
   115   57   59 1    
   116   57  180 1    
   117   58  181 1    
   118   58  182 1    
   119   58  183 1    
   120   59   60 am   BACKBONE|DICT|INTERRES
   121   59  184 1    
   122   60   61 2    
   123   60   62 1    
   124   62   63 1    
   125   62   64 1    
   126   62  185 1    
   127   63  186 1    
   128   63  187 1    
   129   63  188 1    
   130   64   65 am   BACKBONE|DICT|INTERRES
   131   64  189 1    
   132   65   66 2    
   133   67   68 2    
   134   67   69 am   BACKBONE|DICT|INTERRES
   135   69   70 1    
   136   69  190 1    
   137   70   71 1    
   138   70   72 1    
   139   70  191 1    
   140   71  192 1    
   141   71  193 1    
   142   71  194 1    
   143   72   73 2    
   144   72   74 am   BACKBONE|DICT|INTERRES
   145   74   75 1    
   146   74  195 1    
   147   75   76 1    
   148   75   77 1    
   149   75  196 1    
   150   76  197 1    
   151   76  198 1    
   152   76  199 1    
   153   77   78 2    
   154   77   79 am   BACKBONE|DICT|INTERRES
   155   79   80 1    
   156   79  200 1    
   157   80   81 1    
   158   80   82 1    
   159   80  201 1    
   160   81  202 1    
   161   81  203 1    
   162   81  204 1    
   163   82   83 2    
   164   82   84 am   BACKBONE|DICT|INTERRES
   165   84   85 1    
   166   84  205 1    
   167   85   86 1    
   168   85   87 1    
   169   85  206 1    
   170   86  207 1    
   171   86  208 1    
   172   86  209 1    
   173   87   88 2    
   174   87   89 am   BACKBONE|DICT|INTERRES
   175   89   90 1    
   176   89  210 1    
   177   90   91 1    
   178   90   92 1    
   179   90  211 1    
   180   91  212 1    
   181   91  213 1    
   182   91  214 1    
   183   92   93 2    
   184   92   94 am   BACKBONE|DICT|INTERRES
   185   94   95 1    
   186   94  215 1    
   187   95   96 1    
   188   95   97 1    
   189   95  216 1    
   190   96  217 1    
   191   96  218 1    
   192   96  219 1    
   193   97   98 2    
   194   97   99 am   BACKBONE|DICT|INTERRES
   195   99  100 1    
   196   99  220 1    
   197  100  101 1    
   198  100  102 1    
   199  100  221 1    
   200  101  222 1    
   201  101  223 1    
   202  101  224 1    
   203  102  103 2    
   204  102  104 am   BACKBONE|DICT|INTERRES
   205  104  105 1    
   206  104  225 1    
   207  105  106 1    
   208  105  107 1    
   209  105  226 1    
   210  106  227 1    
   211  106  228 1    
   212  106  229 1    
   213  107  108 2    
   214  107  109 am   BACKBONE|DICT|INTERRES
   215  109  110 1    
   216  109  230 1    
   217  110  111 1    
   218  110  112 1    
   219  110  231 1    
   220  111  232 1    
   221  111  233 1    
   222  111  234 1    
   223  112  113 2    
   224  112  114 am   BACKBONE|DICT|INTERRES
   225  114  115 1    
   226  114  235 1    
   227  115  116 1    
   228  115  117 1    
   229  115  236 1    
   230  116  237 1    
   231  116  238 1    
   232  116  239 1    
   233  117  118 2    
   234  117  119 am   BACKBONE|DICT|INTERRES
   235  119  120 1    
   236  119  240 1    
   237  120  121 1    
   238  120  124 1    
   239  120  241 1    
   240  121  122 am   BACKBONE|DICT|INTERRES
   241  121  123 2    
   242  122  242 1    
   243  122  243 1    
   244  124  125 1    
   245  124  244 1    
   246  124  245 1    
   247  125  126 1    
   248  126  246 1    
   249  126  247 1    
@<TRIPOS>SUBSTRUCTURE
     1 UNK         1 GROUP             0       ****    0 ROOT    
