@<TRIPOS>MOLECULE
3R540
247   249    1
SMALL
USER_CHARGES


@<TRIPOS>ATOM
      1 CA          3.3193  -17.9361  -48.6534 C.3       0 UNK        -0.1800 
      2 C           2.8444  -16.5059  -48.4447 C.2       0 UNK         0.5000 
      3 O           3.0311  -15.6629  -49.3207 O.2       0 UNK        -0.5000 
      4 N           2.2485  -16.2279  -47.2772 N.am      1 UNK        -0.5000 
      5 CA          1.6739  -14.9357  -46.8614 C.3       1 UNK         0.1400 
      6 C6          0.5451  -14.4379  -47.8137 C.3       23 UNK        -0.0398 
      7 S7         -0.9783  -14.0031  -46.9070 S.3       23 UNK        -0.2404 
      8 C8         -2.2133  -13.8521  -48.2451 C.3       23 UNK        -0.0205 
      9 C9         -2.2721  -15.0583  -49.1782 C.ar      23 UNK        -0.0193 
     10 C10        -2.2829  -14.8605  -50.5637 C.ar      23 UNK        -0.1150 
     11 C11        -2.2906  -15.9511  -51.4374 C.ar      23 UNK        -0.0193 
     12 C12        -2.2878  -17.2446  -50.9156 C.ar      23 UNK        -0.1150 
     13 C13        -2.2884  -17.4608  -49.5354 C.ar      23 UNK        -0.0193 
     14 C14        -2.2959  -16.3635  -48.6704 C.ar      23 UNK        -0.1150 
     15 C15        -2.2699  -18.8798  -48.9908 C.3       23 UNK        -0.0205 
     16 S16        -0.7099  -19.7282  -49.4089 S.3       23 UNK        -0.2404 
     17 C17         0.0390  -19.9317  -47.7562 C.3       23 UNK        -0.0398 
     18 CA         -0.0408  -21.3603  -47.1570 C.3       11 UNK         0.1400 
     19 N           0.4097  -21.3639  -45.7633 N.am      11 UNK        -0.5000 
     20 C           0.6183  -22.4602  -45.0206 C.2       10 UNK         0.5000 
     21 O           0.4999  -23.6083  -45.4448 O.2       10 UNK        -0.5000 
     22 CA          0.9584  -22.2339  -43.5370 C.3       10 UNK         0.1400 
     23 CB          2.4303  -21.8296  -43.3744 C.3       10 UNK        -0.1800 
     24 N           0.0930  -21.2292  -42.9158 N.am      10 UNK        -0.5000 
     25 C          -1.2380  -21.3510  -42.7970 C.2       9 UNK         0.5000 
     26 O          -1.8669  -22.3495  -43.1461 O.2       9 UNK        -0.5000 
     27 CA         -2.0026  -20.1349  -42.2481 C.3       9 UNK         0.1400 
     28 CB         -1.9318  -20.0900  -40.7146 C.3       9 UNK        -0.1800 
     29 N          -1.5113  -18.8717  -42.7952 N.am      9 UNK        -0.5000 
     30 C          -1.5527  -18.5186  -44.0880 C.2       8 UNK         0.5000 
     31 O          -2.0464  -19.2113  -44.9763 O.2       8 UNK        -0.5000 
     32 CA         -0.8617  -17.1958  -44.4530 C.3       8 UNK         0.1400 
     33 CB         -1.7108  -15.9883  -44.0251 C.3       8 UNK        -0.1800 
     34 N           0.4610  -17.1260  -43.8322 N.am      8 UNK        -0.5000 
     35 C           1.5273  -17.8170  -44.2577 C.2       7 UNK         0.5000 
     36 O           1.5338  -18.4876  -45.2895 O.2       7 UNK        -0.5000 
     37 CA          2.8128  -17.7261  -43.4166 C.3       7 UNK         0.1400 
     38 CB          3.7993  -16.7614  -44.0846 C.3       7 UNK        -0.1800 
     39 N           2.5691  -17.3061  -42.0342 N.am      7 UNK        -0.5000 
     40 C           2.0014  -18.0897  -41.1078 C.2       6 UNK         0.5000 
     41 O           1.6228  -19.2406  -41.3291 O.2       6 UNK        -0.5000 
     42 CA          1.7514  -17.4530  -39.7282 C.3       6 UNK         0.1400 
     43 CB          3.0650  -17.2851  -38.9494 C.3       6 UNK        -0.1800 
     44 N           1.0508  -16.1655  -39.8034 N.am      6 UNK        -0.5000 
     45 C          -0.1693  -15.9961  -40.3322 C.2       5 UNK         0.5000 
     46 O          -0.8001  -16.9030  -40.8715 O.2       5 UNK        -0.5000 
     47 CA         -0.8007  -14.5915  -40.2850 C.3       5 UNK         0.1400 
     48 CB         -1.9790  -14.5807  -39.2995 C.3       5 UNK        -0.1800 
     49 N           0.1303  -13.5248  -39.9071 N.am      5 UNK        -0.5000 
     50 C           1.0178  -12.8872  -40.6838 C.2       4 UNK         0.5000 
     51 O           1.7003  -11.9653  -40.2347 O.2       4 UNK        -0.5000 
     52 CA          1.1834  -13.2844  -42.1726 C.3       4 UNK         0.1400 
     53 CB          0.2407  -12.4666  -43.0690 C.3       4 UNK        -0.1800 
     54 N           2.5575  -13.0811  -42.6323 N.am      4 UNK        -0.5000 
     55 C           3.6213  -13.7403  -42.1573 C.2       3 UNK         0.5000 
     56 O           3.5343  -14.6948  -41.3825 O.2       3 UNK        -0.5000 
     57 CA          4.9843  -13.3068  -42.7149 C.3       3 UNK         0.1400 
     58 CB          6.1685  -14.0435  -42.0625 C.3       3 UNK        -0.1800 
     59 N           4.9805  -13.5663  -44.1498 N.am      3 UNK        -0.5000 
     60 C           5.3321  -12.7033  -45.1073 C.2       2 UNK         0.5000 
     61 O           5.7837  -11.5784  -44.8906 O.2       2 UNK        -0.5000 
     62 CA          5.1264  -13.1787  -46.5587 C.3       2 UNK         0.1400 
     63 CB          6.4110  -13.8264  -47.0974 C.3       2 UNK        -0.1800 
     64 N           4.0152  -14.1236  -46.7218 N.am      2 UNK        -0.5000 
     65 C           2.7161  -13.8259  -46.5671 C.2       1 UNK         0.5000 
     66 O           2.3264  -12.7228  -46.1841 O.2       1 UNK        -0.5000 
     67 C          -1.4321  -22.0182  -47.3031 C.2       11 UNK         0.5000 
     68 O          -1.6100  -22.8771  -48.1694 O.2       11 UNK        -0.5000 
     69 N          -2.3813  -21.6330  -46.4392 N.am      12 UNK        -0.5000 
     70 CA         -3.7383  -22.1789  -46.3997 C.3       12 UNK         0.1400 
     71 CB         -4.5796  -21.3943  -45.3831 C.3       12 UNK        -0.1800 
     72 C          -3.7786  -23.6893  -46.0973 C.2       12 UNK         0.5000 
     73 O          -4.6006  -24.3986  -46.6763 O.2       12 UNK        -0.5000 
     74 N          -2.8792  -24.1577  -45.2239 N.am      13 UNK        -0.5000 
     75 CA         -2.7101  -25.5710  -44.8994 C.3       13 UNK         0.1400 
     76 CB         -1.9111  -25.7027  -43.5931 C.3       13 UNK        -0.1800 
     77 C          -2.0369  -26.3634  -46.0356 C.2       13 UNK         0.5000 
     78 O          -2.5241  -27.4362  -46.3948 O.2       13 UNK        -0.5000 
     79 N          -0.9178  -25.8429  -46.5571 N.am      14 UNK        -0.5000 
     80 CA         -0.0574  -26.5463  -47.5076 C.3       14 UNK         0.1400 
     81 CB          1.3598  -25.9541  -47.4502 C.3       14 UNK        -0.1800 
     82 C          -0.5830  -26.5283  -48.9519 C.2       14 UNK         0.5000 
     83 O          -0.5859  -27.5745  -49.6026 O.2       14 UNK        -0.5000 
     84 N          -0.9739  -25.3448  -49.4398 N.am      15 UNK        -0.5000 
     85 CA         -1.2974  -25.1009  -50.8477 C.3       15 UNK         0.1400 
     86 CB         -0.4237  -23.9400  -51.3527 C.3       15 UNK        -0.1800 
     87 C          -2.7790  -24.7687  -51.0753 C.2       15 UNK         0.5000 
     88 O          -3.2377  -24.8534  -52.2160 O.2       15 UNK        -0.5000 
     89 N          -3.4887  -24.3464  -50.0175 N.am      16 UNK        -0.5000 
     90 CA         -4.8796  -23.8735  -50.0348 C.3       16 UNK         0.1400 
     91 CB         -5.8484  -25.0380  -50.3279 C.3       16 UNK        -0.1800 
     92 C          -5.0745  -22.6729  -50.9835 C.2       16 UNK         0.5000 
     93 O          -6.0595  -22.6185  -51.7195 O.2       16 UNK        -0.5000 
     94 N          -4.0889  -21.7615  -50.9860 N.am      17 UNK        -0.5000 
     95 CA         -3.9571  -20.6155  -51.8932 C.3       17 UNK         0.1400 
     96 CB         -5.0549  -19.5643  -51.6225 C.3       17 UNK        -0.1800 
     97 C          -3.8837  -21.0387  -53.3736 C.2       17 UNK         0.5000 
     98 O          -4.5491  -20.4436  -54.2224 O.2       17 UNK        -0.5000 
     99 N          -3.0982  -22.0916  -53.6442 N.am      18 UNK        -0.5000 
    100 CA        -2.9401  -22.7642  -54.9393 C.3       18 UNK         0.1400 
    101 CB        -2.2186  -21.8436  -55.9458 C.3       18 UNK        -0.1800 
    102 C         -4.2832  -23.3101  -55.4690 C.2       18 UNK         0.5000 
    103 O         -4.6141  -23.1138  -56.6389 O.2       18 UNK        -0.5000 
    104 N         -5.0410  -23.9516  -54.5667 N.am      19 UNK        -0.5000 
    105 CA        -6.4254  -24.4053  -54.7360 C.3       19 UNK         0.1400 
    106 CB        -6.5074  -25.5580  -55.7586 C.3       19 UNK        -0.1800 
    107 C         -7.3878  -23.2365  -55.0474 C.2       19 UNK         0.5000 
    108 O         -8.1489  -23.2960  -56.0151 O.2       19 UNK        -0.5000 
    109 N         -7.3230  -22.1983  -54.2007 N.am      20 UNK        -0.5000 
    110 CA        -8.1154  -20.9655  -54.2171 C.3       20 UNK         0.1400 
    111 CB        -9.5776  -21.2682  -53.8288 C.3       20 UNK        -0.1800 
    112 C         -7.9886  -20.1732  -55.5351 C.2       20 UNK         0.5000 
    113 O         -9.0022  -19.8340  -56.1508 O.2       20 UNK        -0.5000 
    114 N         -6.7451  -19.8996  -55.9490 N.am      21 UNK        -0.5000 
    115 CA        -6.4331  -19.2057  -57.2009 C.3       21 UNK         0.1400 
    116 CB        -6.1789  -20.2457  -58.3050 C.3       21 UNK        -0.1800 
    117 C         -5.2470  -18.2312  -57.0956 C.2       21 UNK         0.5000 
    118 O         -5.1842  -17.2964  -57.8951 O.2       21 UNK        -0.5000 
    119 N         -4.3211  -18.4588  -56.1525 N.am      22 UNK        -0.5000 
    120 CA        -3.0607  -17.7100  -55.9696 C.3       22 UNK         0.1400 
    121 C         -2.0510  -17.8102  -57.1588 C.2       22 UNK         0.5000 
    122 N         -2.2063  -18.7440  -58.0895 N.am      22 UNK        -0.7600 
    123 O         -1.0824  -17.0578  -57.2228 O.2       22 UNK        -0.5000 
    124 C124       -3.2874  -16.2468  -55.4847 C.3       23 UNK        -0.0398 
    125 S125       -3.8276  -16.1844  -53.7426 S.3       23 UNK        -0.2404 
    126 C126       -2.2485  -15.7488  -52.9440 C.3       23 UNK        -0.0205 
    127 H127        3.2627  -18.5189  -47.7334 H         1 UNK         0.0600 
    128 H128        4.3550  -17.9431  -48.9930 H         1 UNK         0.0600 
    129 H129        2.7075  -18.4267  -49.4105 H         1 UNK         0.0600 
    130 H130        2.1042  -16.9909  -46.6248 H         1 UNK         0.3000 
    131 H131        1.2318  -15.1535  -45.8885 H         1 UNK         0.0600 
    132 H132        0.8577  -13.5859  -48.4205 H         1 UNK         0.0800 
    133 H133        0.2942  -15.2184  -48.5311 H         1 UNK         0.0800 
    134 H134       -3.1977  -13.7069  -47.7990 H         1 UNK         0.0800 
    135 H135       -1.9933  -12.9437  -48.8081 H         1 UNK         0.0800 
    136 H136       -2.2667  -13.8565  -50.9641 H         1 UNK         0.1150 
    137 H137       -2.2669  -18.0832  -51.5937 H         1 UNK         0.1150 
    138 H138       -2.2919  -16.5229  -47.6014 H         1 UNK         0.1150 
    139 H139       -2.4428  -18.8816  -47.9137 H         1 UNK         0.0800 
    140 H140       -3.1005  -19.4413  -49.4112 H         1 UNK         0.0800 
    141 H141       -0.4006  -19.2050  -47.0740 H         1 UNK         0.0800 
    142 H142        1.0866  -19.6442  -47.8359 H         1 UNK         0.0800 
    143 H143        0.6553  -21.9865  -47.7193 H         1 UNK         0.0600 
    144 H144        0.5477  -20.4558  -45.3382 H         1 UNK         0.3000 
    145 H145        0.8035  -23.1776  -43.0100 H         1 UNK         0.0600 
    146 H146        2.6883  -21.6856  -42.3250 H         1 UNK         0.0600 
    147 H147        3.0910  -22.6024  -43.7692 H         1 UNK         0.0600 
    148 H148        2.6542  -20.9058  -43.9067 H         1 UNK         0.0600 
    149 H149        0.5447  -20.4033  -42.5350 H         1 UNK         0.3000 
    150 H150       -3.0496  -20.2390  -42.5385 H         1 UNK         0.0600 
    151 H151       -2.5346  -19.2732  -40.3172 H         1 UNK         0.0600 
    152 H152       -2.3081  -21.0160  -40.2781 H         1 UNK         0.0600 
    153 H153       -0.9092  -19.9503  -40.3620 H         1 UNK         0.0600 
    154 H154       -1.1170  -18.2186  -42.1221 H         1 UNK         0.3000 
    155 H155       -0.7399  -17.1545  -45.5378 H         1 UNK         0.0600 
    156 H156       -2.0407  -16.0571  -42.9895 H         1 UNK         0.0600 
    157 H157       -2.6066  -15.9142  -44.6426 H         1 UNK         0.0600 
    158 H158       -1.1609  -15.0546  -44.1371 H         1 UNK         0.0600 
    159 H159        0.5272  -16.6453  -42.9487 H         1 UNK         0.3000 
    160 H160        3.2726  -18.7153  -43.3959 H         1 UNK         0.0600 
    161 H161        3.3485  -15.7808  -44.2256 H         1 UNK         0.0600 
    162 H162        4.1022  -17.1298  -45.0656 H         1 UNK         0.0600 
    163 H163        4.7048  -16.6467  -43.4891 H         1 UNK         0.0600 
    164 H164        2.8775  -16.3736  -41.7647 H         1 UNK         0.3000 
    165 H165        1.1145  -18.1392  -39.1660 H         1 UNK         0.0600 
    166 H166        2.8782  -16.9355  -37.9339 H         1 UNK         0.0600 
    167 H167        3.5970  -18.2342  -38.8724 H         1 UNK         0.0600 
    168 H168        3.7350  -16.5719  -39.4304 H         1 UNK         0.0600 
    169 H169        1.5246  -15.3670  -39.4059 H         1 UNK         0.3000 
    170 H170       -1.2053  -14.3819  -41.2757 H         1 UNK         0.0600 
    171 H171       -2.7199  -15.3366  -39.5642 H         1 UNK         0.0600 
    172 H172       -1.6532  -14.7845  -38.2787 H         1 UNK         0.0600 
    173 H173       -2.4881  -13.6166  -39.3035 H         1 UNK         0.0600 
    174 H174        0.0637  -13.2293  -38.9441 H         1 UNK         0.3000 
    175 H175        0.9594  -14.3417  -42.3082 H         1 UNK         0.0600 
    176 H176        0.4613  -11.3998  -43.0146 H         1 UNK         0.0600 
    177 H177        0.3254  -12.7721  -44.1124 H         1 UNK         0.0600 
    178 H178       -0.8016  -12.5986  -42.7785 H         1 UNK         0.0600 
    179 H179        2.7059  -12.3276  -43.2883 H         1 UNK         0.3000 
    180 H180        5.0885  -12.2387  -42.5134 H         1 UNK         0.0600 
    181 H181        6.1185  -15.1202  -42.2264 H         1 UNK         0.0600 
    182 H182        6.1861  -13.8751  -40.9851 H         1 UNK         0.0600 
    183 H183        7.1184  -13.6892  -42.4628 H         1 UNK         0.0600 
    184 H184        4.6047  -14.4576  -44.4360 H         1 UNK         0.3000 
    185 H185        4.9084  -12.2967  -47.1645 H         1 UNK         0.0600 
    186 H186        7.2567  -13.1419  -47.0188 H         1 UNK         0.0600 
    187 H187        6.6683  -14.7311  -46.5450 H         1 UNK         0.0600 
    188 H188        6.3072  -14.0928  -48.1495 H         1 UNK         0.0600 
    189 H189        4.2497  -15.0419  -47.0687 H         1 UNK         0.3000 
    190 H190       -2.1741  -20.8861  -45.7800 H         1 UNK         0.3000 
    191 H191       -4.1778  -22.0258  -47.3867 H         1 UNK         0.0600 
    192 H192       -4.6091  -20.3330  -45.6308 H         1 UNK         0.0600 
    193 H193       -5.6090  -21.7542  -45.3674 H         1 UNK         0.0600 
    194 H194       -4.1825  -21.4912  -44.3728 H         1 UNK         0.0600 
    195 H195       -2.2817  -23.4987  -44.7348 H         1 UNK         0.3000 
    196 H196       -3.6981  -26.0047  -44.7303 H         1 UNK         0.0600 
    197 H197       -1.7753  -26.7501  -43.3210 H         1 UNK         0.0600 
    198 H198       -2.4281  -25.2155  -42.7662 H         1 UNK         0.0600 
    199 H199       -0.9212  -25.2528  -43.6767 H         1 UNK         0.0600 
    200 H200       -0.5607  -24.9642  -46.1887 H         1 UNK         0.3000 
    201 H201        0.0134  -27.5909  -47.1962 H         1 UNK         0.0600 
    202 H202        1.7785  -26.0315  -46.4466 H         1 UNK         0.0600 
    203 H203        1.3695  -24.9013  -47.7356 H         1 UNK         0.0600 
    204 H204        2.0333  -26.4836  -48.1253 H         1 UNK         0.0600 
    205 H205       -0.9872  -24.5319  -48.8293 H         1 UNK         0.3000 
    206 H206       -1.0714  -25.9791  -51.4558 H         1 UNK         0.0600 
    207 H207        0.6360  -24.1704  -51.2418 H         1 UNK         0.0600 
    208 H208       -0.6013  -23.7441  -52.4109 H         1 UNK         0.0600 
    209 H209       -0.6221  -23.0162  -50.8072 H         1 UNK         0.0600 
    210 H210       -3.0045  -24.2611  -49.1325 H         1 UNK         0.3000 
    211 H211       -5.1061  -23.5014  -49.0376 H         1 UNK         0.0600 
    212 H212       -5.7203  -25.4325  -51.3362 H         1 UNK         0.0600 
    213 H213       -6.8861  -24.7164  -50.2323 H         1 UNK         0.0600 
    214 H214       -5.6981  -25.8575  -49.6250 H         1 UNK         0.0600 
    215 H215       -3.3140  -21.9144  -50.3553 H         1 UNK         0.3000 
    216 H216       -2.9907  -20.1661  -51.6726 H         1 UNK         0.0600 
    217 H217       -4.8937  -18.6674  -52.2213 H         1 UNK         0.0600 
    218 H218       -5.0689  -19.2556  -50.5784 H         1 UNK         0.0600 
    219 H219       -6.0469  -19.9425  -51.8636 H         1 UNK         0.0600 
    220 H220       -2.6440  -22.5487  -52.8676 H         1 UNK         0.3000 
    221 H221       -2.3016  -23.6314  -54.7646 H         1 UNK         0.0600 
    222 H222       -2.8303  -20.9851  -56.2203 H         1 UNK         0.0600 
    223 H223       -1.2800  -21.4694  -55.5375 H         1 UNK         0.0600 
    224 H224       -1.9819  -22.3809  -56.8647 H         1 UNK         0.0600 
    225 H225       -4.6494  -24.0791  -53.6398 H         1 UNK         0.3000 
    226 H226       -6.7345  -24.8045  -53.7688 H         1 UNK         0.0600 
    227 H227       -5.8332  -26.3711  -55.4898 H         1 UNK         0.0600 
    228 H228       -7.5156  -25.9719  -55.7971 H         1 UNK         0.0600 
    229 H229       -6.2518  -25.2293  -56.7662 H         1 UNK         0.0600 
    230 H230       -6.6885  -22.2837  -53.4089 H         1 UNK         0.3000 
    231 H231       -7.7006  -20.3240  -53.4400 H         1 UNK         0.0600 
    232 H232      -10.0731  -21.8949  -54.5710 H         1 UNK         0.0600 
    233 H233      -10.1565  -20.3485  -53.7369 H         1 UNK         0.0600 
    234 H234       -9.6306  -21.7809  -52.8683 H         1 UNK         0.0600 
    235 H235       -5.9630  -20.2021  -55.3731 H         1 UNK         0.3000 
    236 H236       -7.2877  -18.5960  -57.5015 H         1 UNK         0.0600 
    237 H237       -7.0489  -20.8861  -58.4517 H         1 UNK         0.0600 
    238 H238       -5.9652  -19.7630  -59.2594 H         1 UNK         0.0600 
    239 H239       -5.3310  -20.8867  -58.0617 H         1 UNK         0.0600 
    240 H240       -4.4469  -19.2344  -55.5067 H         1 UNK         0.3000 
    241 H241       -2.5415  -18.2358  -55.1673 H         1 UNK         0.0600 
    242 H242       -2.9880  -19.3769  -58.0576 H         1 UNK         0.3800 
    243 H243       -1.5400  -18.8057  -58.8432 H         1 UNK         0.3800 
    244 H244       -4.0295  -15.7403  -56.1019 H         1 UNK         0.0800 
    245 H245       -2.3815  -15.6459  -55.5758 H         1 UNK         0.0800 
    246 H246       -1.4493  -16.3665  -53.3569 H         1 UNK         0.0800 
    247 H247       -1.9969  -14.7155  -53.1879 H         1 UNK         0.0800 
@<TRIPOS>BOND
     1    1    2 1    
     2    1  127 1    
     3    1  128 1    
     4    1  129 1    
     5    2    3 2    
     6    2    4 am   BACKBONE|DICT|INTERRES
     7    4    5 1    
     8    4  130 1    
     9    5    6 1    
    10    5   65 1    
    11    5  131 1    
    12    6    7 1    
    13    6  132 1    
    14    6  133 1    
    15    7    8 1    
    16    8    9 1    
    17    8  134 1    
    18    8  135 1    
    19    9   10 ar   
    20    9   14 ar   
    21   10   11 ar   
    22   10  136 1    
    23   11   12 ar   
    24   11  126 1    
    25   12   13 ar   
    26   12  137 1    
    27   13   14 ar   
    28   13   15 1    
    29   14  138 1    
    30   15   16 1    
    31   15  139 1    
    32   15  140 1    
    33   16   17 1    
    34   17   18 1    
    35   17  141 1    
    36   17  142 1    
    37   18   19 1    
    38   18   67 1    
    39   18  143 1    
    40   19   20 am   BACKBONE|DICT|INTERRES
    41   19  144 1    
    42   20   21 2    
    43   20   22 1    
    44   22   23 1    
    45   22   24 1    
    46   22  145 1    
    47   23  146 1    
    48   23  147 1    
    49   23  148 1    
    50   24   25 am   BACKBONE|DICT|INTERRES
    51   24  149 1    
    52   25   26 2    
    53   25   27 1    
    54   27   28 1    
    55   27   29 1    
    56   27  150 1    
    57   28  151 1    
    58   28  152 1    
    59   28  153 1    
    60   29   30 am   BACKBONE|DICT|INTERRES
    61   29  154 1    
    62   30   31 2    
    63   30   32 1    
    64   32   33 1    
    65   32   34 1    
    66   32  155 1    
    67   33  156 1    
    68   33  157 1    
    69   33  158 1    
    70   34   35 am   BACKBONE|DICT|INTERRES
    71   34  159 1    
    72   35   36 2    
    73   35   37 1    
    74   37   38 1    
    75   37   39 1    
    76   37  160 1    
    77   38  161 1    
    78   38  162 1    
    79   38  163 1    
    80   39   40 am   BACKBONE|DICT|INTERRES
    81   39  164 1    
    82   40   41 2    
    83   40   42 1    
    84   42   43 1    
    85   42   44 1    
    86   42  165 1    
    87   43  166 1    
    88   43  167 1    
    89   43  168 1    
    90   44   45 am   BACKBONE|DICT|INTERRES
    91   44  169 1    
    92   45   46 2    
    93   45   47 1    
    94   47   48 1    
    95   47   49 1    
    96   47  170 1    
    97   48  171 1    
    98   48  172 1    
    99   48  173 1    
   100   49   50 am   BACKBONE|DICT|INTERRES
   101   49  174 1    
   102   50   51 2    
   103   50   52 1    
   104   52   53 1    
   105   52   54 1    
   106   52  175 1    
   107   53  176 1    
   108   53  177 1    
   109   53  178 1    
   110   54   55 am   BACKBONE|DICT|INTERRES
   111   54  179 1    
   112   55   56 2    
   113   55   57 1    
   114   57   58 1    
   115   57   59 1    
   116   57  180 1    
   117   58  181 1    
   118   58  182 1    
   119   58  183 1    
   120   59   60 am   BACKBONE|DICT|INTERRES
   121   59  184 1    
   122   60   61 2    
   123   60   62 1    
   124   62   63 1    
   125   62   64 1    
   126   62  185 1    
   127   63  186 1    
   128   63  187 1    
   129   63  188 1    
   130   64   65 am   BACKBONE|DICT|INTERRES
   131   64  189 1    
   132   65   66 2    
   133   67   68 2    
   134   67   69 am   BACKBONE|DICT|INTERRES
   135   69   70 1    
   136   69  190 1    
   137   70   71 1    
   138   70   72 1    
   139   70  191 1    
   140   71  192 1    
   141   71  193 1    
   142   71  194 1    
   143   72   73 2    
   144   72   74 am   BACKBONE|DICT|INTERRES
   145   74   75 1    
   146   74  195 1    
   147   75   76 1    
   148   75   77 1    
   149   75  196 1    
   150   76  197 1    
   151   76  198 1    
   152   76  199 1    
   153   77   78 2    
   154   77   79 am   BACKBONE|DICT|INTERRES
   155   79   80 1    
   156   79  200 1    
   157   80   81 1    
   158   80   82 1    
   159   80  201 1    
   160   81  202 1    
   161   81  203 1    
   162   81  204 1    
   163   82   83 2    
   164   82   84 am   BACKBONE|DICT|INTERRES
   165   84   85 1    
   166   84  205 1    
   167   85   86 1    
   168   85   87 1    
   169   85  206 1    
   170   86  207 1    
   171   86  208 1    
   172   86  209 1    
   173   87   88 2    
   174   87   89 am   BACKBONE|DICT|INTERRES
   175   89   90 1    
   176   89  210 1    
   177   90   91 1    
   178   90   92 1    
   179   90  211 1    
   180   91  212 1    
   181   91  213 1    
   182   91  214 1    
   183   92   93 2    
   184   92   94 am   BACKBONE|DICT|INTERRES
   185   94   95 1    
   186   94  215 1    
   187   95   96 1    
   188   95   97 1    
   189   95  216 1    
   190   96  217 1    
   191   96  218 1    
   192   96  219 1    
   193   97   98 2    
   194   97   99 am   BACKBONE|DICT|INTERRES
   195   99  100 1    
   196   99  220 1    
   197  100  101 1    
   198  100  102 1    
   199  100  221 1    
   200  101  222 1    
   201  101  223 1    
   202  101  224 1    
   203  102  103 2    
   204  102  104 am   BACKBONE|DICT|INTERRES
   205  104  105 1    
   206  104  225 1    
   207  105  106 1    
   208  105  107 1    
   209  105  226 1    
   210  106  227 1    
   211  106  228 1    
   212  106  229 1    
   213  107  108 2    
   214  107  109 am   BACKBONE|DICT|INTERRES
   215  109  110 1    
   216  109  230 1    
   217  110  111 1    
   218  110  112 1    
   219  110  231 1    
   220  111  232 1    
   221  111  233 1    
   222  111  234 1    
   223  112  113 2    
   224  112  114 am   BACKBONE|DICT|INTERRES
   225  114  115 1    
   226  114  235 1    
   227  115  116 1    
   228  115  117 1    
   229  115  236 1    
   230  116  237 1    
   231  116  238 1    
   232  116  239 1    
   233  117  118 2    
   234  117  119 am   BACKBONE|DICT|INTERRES
   235  119  120 1    
   236  119  240 1    
   237  120  121 1    
   238  120  124 1    
   239  120  241 1    
   240  121  122 am   BACKBONE|DICT|INTERRES
   241  121  123 2    
   242  122  242 1    
   243  122  243 1    
   244  124  125 1    
   245  124  244 1    
   246  124  245 1    
   247  125  126 1    
   248  126  246 1    
   249  126  247 1    
@<TRIPOS>SUBSTRUCTURE
     1 UNK         1 GROUP             0       ****    0 ROOT    
