@<TRIPOS>MOLECULE
3R540
247   249    1
SMALL
USER_CHARGES


@<TRIPOS>ATOM
      1 CA          2.5595  -11.1753  -49.3682 C.3       0 UNK        -0.1800 
      2 C           1.6775  -11.2026  -48.1280 C.2       0 UNK         0.5000 
      3 O           1.3502  -10.1456  -47.5887 O.2       0 UNK        -0.5000 
      4 N           1.3017  -12.4082  -47.6783 N.am      1 UNK        -0.5000 
      5 CA          0.4362  -12.6781  -46.5184 C.3       1 UNK         0.1400 
      6 C6         -1.0207  -12.1546  -46.6737 C.3       23 UNK        -0.0398 
      7 S7         -1.8241  -12.6663  -48.2304 S.3       23 UNK        -0.2404 
      8 C8         -2.2943  -14.3819  -47.8538 C.3       23 UNK        -0.0205 
      9 C9         -1.7893  -15.3222  -48.9342 C.ar      23 UNK        -0.0193 
     10 C10        -2.6000  -15.6460  -50.0258 C.ar      23 UNK        -0.1150 
     11 C11        -2.1338  -16.5072  -51.0231 C.ar      23 UNK        -0.0193 
     12 C12        -0.8446  -17.0408  -50.9261 C.ar      23 UNK        -0.1150 
     13 C13        -0.0219  -16.7152  -49.8438 C.ar      23 UNK        -0.0193 
     14 C14        -0.5030  -15.8603  -48.8490 C.ar      23 UNK        -0.1150 
     15 C15         1.4009  -17.2474  -49.7648 C.3       23 UNK        -0.0205 
     16 S16         1.6198  -18.4577  -48.4245 S.3       23 UNK        -0.2404 
     17 C17         0.8154  -19.9454  -49.1091 C.3       23 UNK        -0.0398 
     18 CA         -0.3562  -20.4884  -48.2554 C.3       11 UNK         0.1400 
     19 N          -0.0161  -20.6298  -46.8338 N.am      11 UNK        -0.5000 
     20 C          -0.7149  -21.3575  -45.9524 C.2       10 UNK         0.5000 
     21 O          -1.7619  -21.9379  -46.2382 O.2       10 UNK        -0.5000 
     22 CA         -0.1467  -21.4666  -44.5258 C.3       10 UNK         0.1400 
     23 CB          1.3932  -21.5165  -44.4985 C.3       10 UNK        -0.1800 
     24 N          -0.6029  -20.3801  -43.6621 N.am      10 UNK        -0.5000 
     25 C          -1.8422  -20.2424  -43.1693 C.2       9 UNK         0.5000 
     26 O          -2.7787  -20.9938  -43.4389 O.2       9 UNK        -0.5000 
     27 CA         -2.0747  -19.0851  -42.1843 C.3       9 UNK         0.1400 
     28 CB         -1.5373  -19.4497  -40.7907 C.3       9 UNK        -0.1800 
     29 N          -1.4269  -17.8553  -42.6369 N.am      9 UNK        -0.5000 
     30 C          -2.0728  -16.7437  -43.0161 C.2       8 UNK         0.5000 
     31 O          -3.2981  -16.6252  -42.9938 O.2       8 UNK        -0.5000 
     32 CA         -1.2214  -15.5427  -43.4822 C.3       8 UNK         0.1400 
     33 CB         -1.1725  -14.4810  -42.3720 C.3       8 UNK        -0.1800 
     34 N           0.1509  -15.8875  -43.8545 N.am      8 UNK        -0.5000 
     35 C           0.5129  -16.6751  -44.8766 C.2       7 UNK         0.5000 
     36 O          -0.2747  -17.1656  -45.6834 O.2       7 UNK        -0.5000 
     37 CA          2.0090  -17.0224  -44.9603 C.3       7 UNK         0.1400 
     38 CB          2.7505  -16.0339  -45.8719 C.3       7 UNK        -0.1800 
     39 N           2.6639  -17.0511  -43.6493 N.am      7 UNK        -0.5000 
     40 C           2.3804  -17.9112  -42.6598 C.2       6 UNK         0.5000 
     41 O           1.4647  -18.7312  -42.7326 O.2       6 UNK        -0.5000 
     42 CA          3.2026  -17.8138  -41.3578 C.3       6 UNK         0.1400 
     43 CB          3.5718  -19.2026  -40.7988 C.3       6 UNK        -0.1800 
     44 N           4.3794  -16.9432  -41.4582 N.am      6 UNK        -0.5000 
     45 C           5.4874  -17.1175  -42.1970 C.2       5 UNK         0.5000 
     46 O           5.7150  -18.1274  -42.8632 O.2       5 UNK        -0.5000 
     47 CA          6.4921  -15.9473  -42.2418 C.3       5 UNK         0.1400 
     48 CB          6.6508  -15.4354  -43.6835 C.3       5 UNK        -0.1800 
     49 N           6.0716  -14.8256  -41.3993 N.am      5 UNK        -0.5000 
     50 C           6.4466  -14.6337  -40.1271 C.2       4 UNK         0.5000 
     51 O           7.2579  -15.3477  -39.5373 O.2       4 UNK        -0.5000 
     52 CA          5.7829  -13.4599  -39.3773 C.3       4 UNK         0.1400 
     53 CB          6.6687  -12.2070  -39.4521 C.3       4 UNK        -0.1800 
     54 N           4.4462  -13.1286  -39.8804 N.am      4 UNK        -0.5000 
     55 C           3.3721  -13.9274  -39.7977 C.2       3 UNK         0.5000 
     56 O           3.3828  -15.0299  -39.2521 O.2       3 UNK        -0.5000 
     57 CA          2.0904  -13.4473  -40.5042 C.3       3 UNK         0.1400 
     58 CB          1.1872  -12.6738  -39.5335 C.3       3 UNK        -0.1800 
     59 N           2.3583  -12.6200  -41.6838 N.am      3 UNK        -0.5000 
     60 C           2.9606  -13.0587  -42.7956 C.2       2 UNK         0.5000 
     61 O           3.3398  -14.2221  -42.9520 O.2       2 UNK        -0.5000 
     62 CA          3.1988  -12.0235  -43.9073 C.3       2 UNK         0.1400 
     63 CB          4.6861  -11.9614  -44.2885 C.3       2 UNK        -0.1800 
     64 N           2.4130  -12.3402  -45.0959 N.am      2 UNK        -0.5000 
     65 C           1.0804  -12.2300  -45.1851 C.2       1 UNK         0.5000 
     66 O           0.3777  -11.7924  -44.2732 O.2       1 UNK        -0.5000 
     67 C          -1.6828  -19.7443  -48.5091 C.2       11 UNK         0.5000 
     68 O          -2.2960  -19.9672  -49.5526 O.2       11 UNK        -0.5000 
     69 N          -2.1459  -18.9526  -47.5302 N.am      12 UNK        -0.5000 
     70 CA         -3.4719  -18.3331  -47.5043 C.3       12 UNK         0.1400 
     71 CB         -3.6065  -17.4908  -46.2305 C.3       12 UNK        -0.1800 
     72 C          -4.6411  -19.3345  -47.5882 C.2       12 UNK         0.5000 
     73 O          -5.7117  -18.9654  -48.0730 O.2       12 UNK        -0.5000 
     74 N          -4.4262  -20.5871  -47.1577 N.am      13 UNK        -0.5000 
     75 CA         -5.3796  -21.6921  -47.2700 C.3       13 UNK         0.1400 
     76 CB         -5.0545  -22.7481  -46.1986 C.3       13 UNK        -0.1800 
     77 C          -5.4048  -22.2820  -48.6973 C.2       13 UNK         0.5000 
     78 O          -5.2090  -23.4862  -48.8717 O.2       13 UNK        -0.5000 
     79 N          -5.6397  -21.4137  -49.6926 N.am      14 UNK        -0.5000 
     80 CA         -5.7592  -21.6959  -51.1254 C.3       14 UNK         0.1400 
     81 CB         -7.1073  -22.3839  -51.4131 C.3       14 UNK        -0.1800 
     82 C          -4.5458  -22.4632  -51.6892 C.2       14 UNK         0.5000 
     83 O          -4.7065  -23.5276  -52.2940 O.2       14 UNK        -0.5000 
     84 N          -3.3467  -21.9200  -51.4393 N.am      15 UNK        -0.5000 
     85 CA         -2.0123  -22.4613  -51.7205 C.3       15 UNK         0.1400 
     86 CB         -1.8056  -22.7842  -53.2135 C.3       15 UNK        -0.1800 
     87 C          -1.6523  -23.6638  -50.8313 C.2       15 UNK         0.5000 
     88 O          -0.6389  -23.6183  -50.1344 O.2       15 UNK        -0.5000 
     89 N          -2.4882  -24.7048  -50.8693 N.am      16 UNK        -0.5000 
     90 CA         -2.3573  -25.9444  -50.1119 C.3       16 UNK         0.1400 
     91 CB         -1.1349  -26.7597  -50.5893 C.3       16 UNK        -0.1800 
     92 C          -3.6737  -26.7259  -50.2300 C.2       16 UNK         0.5000 
     93 O          -3.7020  -27.7986  -50.8333 O.2       16 UNK        -0.5000 
     94 N          -4.7551  -26.1475  -49.6903 N.am      17 UNK        -0.5000 
     95 CA         -6.1173  -26.6921  -49.6545 C.3       17 UNK         0.1400 
     96 CB         -6.1812  -27.9700  -48.7911 C.3       17 UNK        -0.1800 
     97 C          -6.7222  -26.8719  -51.0617 C.2       17 UNK         0.5000 
     98 O          -7.2972  -27.9178  -51.3676 O.2       17 UNK        -0.5000 
     99 N          -6.5701  -25.8273  -51.8873 N.am      18 UNK        -0.5000 
    100 CA        -7.0738  -25.6867  -53.2565 C.3       18 UNK         0.1400 
    101 CB        -8.6088  -25.8273  -53.3244 C.3       18 UNK        -0.1800 
    102 C         -6.3308  -26.5541  -54.2906 C.2       18 UNK         0.5000 
    103 O         -6.8693  -26.8102  -55.3680 O.2       18 UNK        -0.5000 
    104 N         -5.0836  -26.9385  -53.9804 N.am      19 UNK        -0.5000 
    105 CA        -4.1777  -27.6422  -54.8940 C.3       19 UNK         0.1400 
    106 CB        -2.9354  -28.1093  -54.1223 C.3       19 UNK        -0.1800 
    107 C         -3.7626  -26.7845  -56.1060 C.2       19 UNK         0.5000 
    108 O         -3.6217  -27.3189  -57.2066 O.2       19 UNK        -0.5000 
    109 N         -3.5977  -25.4737  -55.8805 N.am      20 UNK        -0.5000 
    110 CA        -3.2925  -24.4745  -56.9096 C.3       20 UNK         0.1400 
    111 CB        -1.8065  -24.0852  -56.8212 C.3       20 UNK        -0.1800 
    112 C         -4.2177  -23.2447  -56.8161 C.2       20 UNK         0.5000 
    113 O         -3.9783  -22.2569  -57.5113 O.2       20 UNK        -0.5000 
    114 N         -5.2499  -23.3147  -55.9584 N.am      21 UNK        -0.5000 
    115 CA        -6.3267  -22.3292  -55.7703 C.3       21 UNK         0.1400 
    116 CB        -7.2803  -22.3594  -56.9818 C.3       21 UNK        -0.1800 
    117 C         -5.8391  -20.9009  -55.4349 C.2       21 UNK         0.5000 
    118 O         -6.4812  -19.9224  -55.8192 O.2       21 UNK        -0.5000 
    119 N         -4.7033  -20.8119  -54.7302 N.am      22 UNK        -0.5000 
    120 CA        -3.9679  -19.5714  -54.4234 C.3       22 UNK         0.1400 
    121 C         -3.2841  -18.8997  -55.6579 C.2       22 UNK         0.5000 
    122 N         -3.1647  -19.5611  -56.8033 N.am      22 UNK        -0.7600 
    123 O         -2.8201  -17.7665  -55.5747 O.2       22 UNK        -0.5000 
    124 C124       -4.7859  -18.5698  -53.5441 C.3       23 UNK        -0.0398 
    125 S125       -4.0354  -18.3080  -51.9024 S.3       23 UNK        -0.2404 
    126 C126       -3.0107  -16.8411  -52.2186 C.3       23 UNK        -0.0205 
    127 H127        2.0702  -10.6128  -50.1633 H         1 UNK         0.0600 
    128 H128        2.7678  -12.1785  -49.7410 H         1 UNK         0.0600 
    129 H129        3.5101  -10.6922  -49.1421 H         1 UNK         0.0600 
    130 H130        1.6013  -13.2256  -48.1900 H         1 UNK         0.3000 
    131 H131        0.3780  -13.7644  -46.4457 H         1 UNK         0.0600 
    132 H132       -1.0361  -11.0642  -46.6376 H         1 UNK         0.0800 
    133 H133       -1.6423  -12.4888  -45.8409 H         1 UNK         0.0800 
    134 H134       -1.8910  -14.6873  -46.8880 H         1 UNK         0.0800 
    135 H135       -3.3798  -14.4483  -47.7672 H         1 UNK         0.0800 
    136 H136       -3.5938  -15.2272  -50.1001 H         1 UNK         0.1150 
    137 H137       -0.4808  -17.7017  -51.7000 H         1 UNK         0.1150 
    138 H138        0.1281  -15.6124  -48.0088 H         1 UNK         0.1150 
    139 H139        1.7087  -17.6909  -50.7129 H         1 UNK         0.0800 
    140 H140        2.0787  -16.4109  -49.5897 H         1 UNK         0.0800 
    141 H141        1.5839  -20.7161  -49.1808 H         1 UNK         0.0800 
    142 H142        0.4955  -19.7653  -50.1370 H         1 UNK         0.0800 
    143 H143       -0.5408  -21.5020  -48.6138 H         1 UNK         0.0600 
    144 H144        0.8185  -20.1501  -46.5309 H         1 UNK         0.3000 
    145 H145       -0.5119  -22.4075  -44.1085 H         1 UNK         0.0600 
    146 H146        1.7565  -21.7351  -43.4940 H         1 UNK         0.0600 
    147 H147        1.7731  -22.2992  -45.1565 H         1 UNK         0.0600 
    148 H148        1.8434  -20.5731  -44.8088 H         1 UNK         0.0600 
    149 H149        0.1200  -19.7346  -43.3523 H         1 UNK         0.3000 
    150 H150       -3.1541  -18.9437  -42.0986 H         1 UNK         0.0600 
    151 H151       -1.9963  -20.3683  -40.4228 H         1 UNK         0.0600 
    152 H152       -1.7578  -18.6641  -40.0679 H         1 UNK         0.0600 
    153 H153       -0.4572  -19.6019  -40.7993 H         1 UNK         0.0600 
    154 H154       -0.4171  -17.8816  -42.7062 H         1 UNK         0.3000 
    155 H155       -1.7082  -15.1098  -44.3581 H         1 UNK         0.0600 
    156 H156       -2.1729  -14.1138  -42.1398 H         1 UNK         0.0600 
    157 H157       -0.5733  -13.6203  -42.6644 H         1 UNK         0.0600 
    158 H158       -0.7515  -14.8839  -41.4503 H         1 UNK         0.0600 
    159 H159        0.8833  -15.5457  -43.2494 H         1 UNK         0.3000 
    160 H160        2.0891  -18.0198  -45.3963 H         1 UNK         0.0600 
    161 H161        2.7689  -15.0327  -45.4465 H         1 UNK         0.0600 
    162 H162        2.2767  -15.9655  -46.8511 H         1 UNK         0.0600 
    163 H163        3.7823  -16.3471  -46.0318 H         1 UNK         0.0600 
    164 H164        3.3587  -16.3352  -43.4764 H         1 UNK         0.3000 
    165 H165        2.5440  -17.3368  -40.6310 H         1 UNK         0.0600 
    166 H166        4.1564  -19.7863  -41.5101 H         1 UNK         0.0600 
    167 H167        4.1486  -19.1165  -39.8780 H         1 UNK         0.0600 
    168 H168        2.6763  -19.7802  -40.5664 H         1 UNK         0.0600 
    169 H169        4.3077  -16.0839  -40.9287 H         1 UNK         0.3000 
    170 H170        7.4589  -16.3266  -41.9047 H         1 UNK         0.0600 
    171 H171        7.0581  -16.2122  -44.3318 H         1 UNK         0.0600 
    172 H172        5.6954  -15.1258  -44.1077 H         1 UNK         0.0600 
    173 H173        7.3318  -14.5854  -43.7301 H         1 UNK         0.0600 
    174 H174        5.3767  -14.2100  -41.7994 H         1 UNK         0.3000 
    175 H175        5.6868  -13.7508  -38.3291 H         1 UNK         0.0600 
    176 H176        6.7840  -11.8559  -40.4784 H         1 UNK         0.0600 
    177 H177        6.2499  -11.3915  -38.8623 H         1 UNK         0.0600 
    178 H178        7.6665  -12.4100  -39.0606 H         1 UNK         0.0600 
    179 H179        4.3449  -12.2381  -40.3448 H         1 UNK         0.3000 
    180 H180        1.5521  -14.3375  -40.8348 H         1 UNK         0.0600 
    181 H181        1.6618  -11.7555  -39.1857 H         1 UNK         0.0600 
    182 H182        0.9521  -13.2759  -38.6547 H         1 UNK         0.0600 
    183 H183        0.2410  -12.4066  -40.0048 H         1 UNK         0.0600 
    184 H184        2.0484  -11.6595  -41.6408 H         1 UNK         0.3000 
    185 H185        2.9012  -11.0365  -43.5469 H         1 UNK         0.0600 
    186 H186        5.3080  -11.7602  -43.4152 H         1 UNK         0.0600 
    187 H187        5.0308  -12.8970  -44.7295 H         1 UNK         0.0600 
    188 H188        4.8730  -11.1656  -45.0098 H         1 UNK         0.0600 
    189 H189        2.9215  -12.6977  -45.8906 H         1 UNK         0.3000 
    190 H190       -1.5439  -18.7658  -46.7380 H         1 UNK         0.3000 
    191 H191       -3.5456  -17.6754  -48.3708 H         1 UNK         0.0600 
    192 H192       -3.5325  -18.1118  -45.3371 H         1 UNK         0.0600 
    193 H193       -2.8316  -16.7294  -46.1742 H         1 UNK         0.0600 
    194 H194       -4.5680  -16.9771  -46.1967 H         1 UNK         0.0600 
    195 H195       -3.5057  -20.8329  -46.8093 H         1 UNK         0.3000 
    196 H196       -6.3820  -21.3132  -47.0612 H         1 UNK         0.0600 
    197 H197       -5.0310  -22.3069  -45.2018 H         1 UNK         0.0600 
    198 H198       -4.0880  -23.2200  -46.3774 H         1 UNK         0.0600 
    199 H199       -5.8066  -23.5378  -46.1881 H         1 UNK         0.0600 
    200 H200       -5.7556  -20.4414  -49.4241 H         1 UNK         0.3000 
    201 H201       -5.7733  -20.7325  -51.6338 H         1 UNK         0.0600 
    202 H202       -7.2404  -22.5622  -52.4794 H         1 UNK         0.0600 
    203 H203       -7.9392  -21.7590  -51.0884 H         1 UNK         0.0600 
    204 H204       -7.1949  -23.3393  -50.8972 H         1 UNK         0.0600 
    205 H205       -3.3215  -21.0767  -50.8711 H         1 UNK         0.3000 
    206 H206       -1.3129  -21.6633  -51.4667 H         1 UNK         0.0600 
    207 H207       -1.9615  -21.9068  -53.8381 H         1 UNK         0.0600 
    208 H208       -2.4695  -23.5731  -53.5646 H         1 UNK         0.0600 
    209 H209       -0.7849  -23.1241  -53.3928 H         1 UNK         0.0600 
    210 H210       -3.3249  -24.6079  -51.4362 H         1 UNK         0.3000 
    211 H211       -2.2200  -25.6974  -49.0572 H         1 UNK         0.0600 
    212 H212       -0.1993  -26.2405  -50.3839 H         1 UNK         0.0600 
    213 H213       -1.0822  -27.7212  -50.0772 H         1 UNK         0.0600 
    214 H214       -1.1766  -26.9587  -51.6599 H         1 UNK         0.0600 
    215 H215       -4.6656  -25.2178  -49.2825 H         1 UNK         0.3000 
    216 H216       -6.7300  -25.9371  -49.1595 H         1 UNK         0.0600 
    217 H217       -7.2125  -28.2994  -48.6593 H         1 UNK         0.0600 
    218 H218       -5.6310  -28.7959  -49.2428 H         1 UNK         0.0600 
    219 H219       -5.7682  -27.7947  -47.7978 H         1 UNK         0.0600 
    220 H220       -6.0262  -25.0384  -51.5582 H         1 UNK         0.3000 
    221 H221       -6.8446  -24.6606  -53.5393 H         1 UNK         0.0600 
    222 H222       -8.9328  -26.8534  -53.1498 H         1 UNK         0.0600 
    223 H223       -9.0959  -25.1893  -52.5870 H         1 UNK         0.0600 
    224 H224       -8.9850  -25.5317  -54.3044 H         1 UNK         0.0600 
    225 H225       -4.7334  -26.7368  -53.0551 H         1 UNK         0.3000 
    226 H226       -4.6972  -28.5250  -55.2728 H         1 UNK         0.0600 
    227 H227       -3.2050  -28.7944  -53.3186 H         1 UNK         0.0600 
    228 H228       -2.2424  -28.6380  -54.7780 H         1 UNK         0.0600 
    229 H229       -2.3968  -27.2690  -53.6837 H         1 UNK         0.0600 
    230 H230       -3.6925  -25.1361  -54.9339 H         1 UNK         0.3000 
    231 H231       -3.4703  -24.8963  -57.9008 H         1 UNK         0.0600 
    232 H232       -1.5329  -23.3921  -57.6177 H         1 UNK         0.0600 
    233 H233       -1.1647  -24.9605  -56.9221 H         1 UNK         0.0600 
    234 H234       -1.5689  -23.6041  -55.8740 H         1 UNK         0.0600 
    235 H235       -5.3645  -24.1805  -55.4560 H         1 UNK         0.3000 
    236 H236       -6.8963  -22.6577  -54.9011 H         1 UNK         0.0600 
    237 H237       -7.6379  -23.3707  -57.1761 H         1 UNK         0.0600 
    238 H238       -8.1583  -21.7357  -56.8095 H         1 UNK         0.0600 
    239 H239       -6.7920  -21.9967  -57.8870 H         1 UNK         0.0600 
    240 H240       -4.2390  -21.6720  -54.4794 H         1 UNK         0.3000 
    241 H241       -3.1174  -19.9124  -53.8344 H         1 UNK         0.0600 
    242 H242       -2.7102  -19.1095  -57.5807 H         1 UNK         0.3800 
    243 H243       -3.5308  -20.5014  -56.9237 H         1 UNK         0.3800 
    244 H244       -4.9310  -17.6060  -54.0350 H         1 UNK         0.0800 
    245 H245       -5.7958  -18.9390  -53.3656 H         1 UNK         0.0800 
    246 H246       -3.6527  -15.9939  -52.4641 H         1 UNK         0.0800 
    247 H247       -2.3822  -17.0161  -53.0920 H         1 UNK         0.0800 
@<TRIPOS>BOND
     1    1    2 1    
     2    1  127 1    
     3    1  128 1    
     4    1  129 1    
     5    2    3 2    
     6    2    4 am   BACKBONE|DICT|INTERRES
     7    4    5 1    
     8    4  130 1    
     9    5    6 1    
    10    5   65 1    
    11    5  131 1    
    12    6    7 1    
    13    6  132 1    
    14    6  133 1    
    15    7    8 1    
    16    8    9 1    
    17    8  134 1    
    18    8  135 1    
    19    9   10 ar   
    20    9   14 ar   
    21   10   11 ar   
    22   10  136 1    
    23   11   12 ar   
    24   11  126 1    
    25   12   13 ar   
    26   12  137 1    
    27   13   14 ar   
    28   13   15 1    
    29   14  138 1    
    30   15   16 1    
    31   15  139 1    
    32   15  140 1    
    33   16   17 1    
    34   17   18 1    
    35   17  141 1    
    36   17  142 1    
    37   18   19 1    
    38   18   67 1    
    39   18  143 1    
    40   19   20 am   BACKBONE|DICT|INTERRES
    41   19  144 1    
    42   20   21 2    
    43   20   22 1    
    44   22   23 1    
    45   22   24 1    
    46   22  145 1    
    47   23  146 1    
    48   23  147 1    
    49   23  148 1    
    50   24   25 am   BACKBONE|DICT|INTERRES
    51   24  149 1    
    52   25   26 2    
    53   25   27 1    
    54   27   28 1    
    55   27   29 1    
    56   27  150 1    
    57   28  151 1    
    58   28  152 1    
    59   28  153 1    
    60   29   30 am   BACKBONE|DICT|INTERRES
    61   29  154 1    
    62   30   31 2    
    63   30   32 1    
    64   32   33 1    
    65   32   34 1    
    66   32  155 1    
    67   33  156 1    
    68   33  157 1    
    69   33  158 1    
    70   34   35 am   BACKBONE|DICT|INTERRES
    71   34  159 1    
    72   35   36 2    
    73   35   37 1    
    74   37   38 1    
    75   37   39 1    
    76   37  160 1    
    77   38  161 1    
    78   38  162 1    
    79   38  163 1    
    80   39   40 am   BACKBONE|DICT|INTERRES
    81   39  164 1    
    82   40   41 2    
    83   40   42 1    
    84   42   43 1    
    85   42   44 1    
    86   42  165 1    
    87   43  166 1    
    88   43  167 1    
    89   43  168 1    
    90   44   45 am   BACKBONE|DICT|INTERRES
    91   44  169 1    
    92   45   46 2    
    93   45   47 1    
    94   47   48 1    
    95   47   49 1    
    96   47  170 1    
    97   48  171 1    
    98   48  172 1    
    99   48  173 1    
   100   49   50 am   BACKBONE|DICT|INTERRES
   101   49  174 1    
   102   50   51 2    
   103   50   52 1    
   104   52   53 1    
   105   52   54 1    
   106   52  175 1    
   107   53  176 1    
   108   53  177 1    
   109   53  178 1    
   110   54   55 am   BACKBONE|DICT|INTERRES
   111   54  179 1    
   112   55   56 2    
   113   55   57 1    
   114   57   58 1    
   115   57   59 1    
   116   57  180 1    
   117   58  181 1    
   118   58  182 1    
   119   58  183 1    
   120   59   60 am   BACKBONE|DICT|INTERRES
   121   59  184 1    
   122   60   61 2    
   123   60   62 1    
   124   62   63 1    
   125   62   64 1    
   126   62  185 1    
   127   63  186 1    
   128   63  187 1    
   129   63  188 1    
   130   64   65 am   BACKBONE|DICT|INTERRES
   131   64  189 1    
   132   65   66 2    
   133   67   68 2    
   134   67   69 am   BACKBONE|DICT|INTERRES
   135   69   70 1    
   136   69  190 1    
   137   70   71 1    
   138   70   72 1    
   139   70  191 1    
   140   71  192 1    
   141   71  193 1    
   142   71  194 1    
   143   72   73 2    
   144   72   74 am   BACKBONE|DICT|INTERRES
   145   74   75 1    
   146   74  195 1    
   147   75   76 1    
   148   75   77 1    
   149   75  196 1    
   150   76  197 1    
   151   76  198 1    
   152   76  199 1    
   153   77   78 2    
   154   77   79 am   BACKBONE|DICT|INTERRES
   155   79   80 1    
   156   79  200 1    
   157   80   81 1    
   158   80   82 1    
   159   80  201 1    
   160   81  202 1    
   161   81  203 1    
   162   81  204 1    
   163   82   83 2    
   164   82   84 am   BACKBONE|DICT|INTERRES
   165   84   85 1    
   166   84  205 1    
   167   85   86 1    
   168   85   87 1    
   169   85  206 1    
   170   86  207 1    
   171   86  208 1    
   172   86  209 1    
   173   87   88 2    
   174   87   89 am   BACKBONE|DICT|INTERRES
   175   89   90 1    
   176   89  210 1    
   177   90   91 1    
   178   90   92 1    
   179   90  211 1    
   180   91  212 1    
   181   91  213 1    
   182   91  214 1    
   183   92   93 2    
   184   92   94 am   BACKBONE|DICT|INTERRES
   185   94   95 1    
   186   94  215 1    
   187   95   96 1    
   188   95   97 1    
   189   95  216 1    
   190   96  217 1    
   191   96  218 1    
   192   96  219 1    
   193   97   98 2    
   194   97   99 am   BACKBONE|DICT|INTERRES
   195   99  100 1    
   196   99  220 1    
   197  100  101 1    
   198  100  102 1    
   199  100  221 1    
   200  101  222 1    
   201  101  223 1    
   202  101  224 1    
   203  102  103 2    
   204  102  104 am   BACKBONE|DICT|INTERRES
   205  104  105 1    
   206  104  225 1    
   207  105  106 1    
   208  105  107 1    
   209  105  226 1    
   210  106  227 1    
   211  106  228 1    
   212  106  229 1    
   213  107  108 2    
   214  107  109 am   BACKBONE|DICT|INTERRES
   215  109  110 1    
   216  109  230 1    
   217  110  111 1    
   218  110  112 1    
   219  110  231 1    
   220  111  232 1    
   221  111  233 1    
   222  111  234 1    
   223  112  113 2    
   224  112  114 am   BACKBONE|DICT|INTERRES
   225  114  115 1    
   226  114  235 1    
   227  115  116 1    
   228  115  117 1    
   229  115  236 1    
   230  116  237 1    
   231  116  238 1    
   232  116  239 1    
   233  117  118 2    
   234  117  119 am   BACKBONE|DICT|INTERRES
   235  119  120 1    
   236  119  240 1    
   237  120  121 1    
   238  120  124 1    
   239  120  241 1    
   240  121  122 am   BACKBONE|DICT|INTERRES
   241  121  123 2    
   242  122  242 1    
   243  122  243 1    
   244  124  125 1    
   245  124  244 1    
   246  124  245 1    
   247  125  126 1    
   248  126  246 1    
   249  126  247 1    
@<TRIPOS>SUBSTRUCTURE
     1 UNK         1 GROUP             0       ****    0 ROOT    
