@<TRIPOS>MOLECULE
3R540
247   249    1
SMALL
USER_CHARGES


@<TRIPOS>ATOM
      1 CA          0.1430   -9.9628  -52.7508 C.3       0 UNK        -0.1800 
      2 C          -1.1523  -10.4780  -52.1249 C.2       0 UNK         0.5000 
      3 O          -2.1643   -9.7813  -52.1750 O.2       0 UNK        -0.5000 
      4 N          -1.1833  -11.6846  -51.5423 N.am      1 UNK        -0.5000 
      5 CA         -0.0499  -12.5903  -51.3233 C.3       1 UNK         0.1400 
      6 C6         -0.5457  -14.0406  -51.1007 C.3       23 UNK        -0.0398 
      7 S7          0.7424  -15.2731  -51.4940 S.3       23 UNK        -0.2404 
      8 C8          1.0582  -15.9933  -49.8562 C.3       23 UNK        -0.0205 
      9 C9          0.2234  -17.2391  -49.6176 C.ar      23 UNK        -0.0193 
     10 C10        -1.0667  -17.1416  -49.0878 C.ar      23 UNK        -0.1150 
     11 C11        -1.8354  -18.2909  -48.8811 C.ar      23 UNK        -0.0193 
     12 C12        -1.2894  -19.5448  -49.1693 C.ar      23 UNK        -0.1150 
     13 C13         0.0019  -19.6537  -49.6916 C.ar      23 UNK        -0.0193 
     14 C14         0.7491  -18.4967  -49.9239 C.ar      23 UNK        -0.1150 
     15 C15         0.5936  -21.0226  -49.9919 C.3       23 UNK        -0.0205 
     16 S16         2.0101  -21.4224  -48.9141 S.3       23 UNK        -0.2404 
     17 C17         1.3113  -21.2155  -47.2382 C.3       23 UNK        -0.0398 
     18 CA          0.8603  -22.5427  -46.5912 C.3       11 UNK         0.1400 
     19 N           0.7182  -22.4103  -45.1401 N.am      11 UNK        -0.5000 
     20 C           0.5176  -23.4343  -44.2995 C.2       10 UNK         0.5000 
     21 O           0.4603  -24.6101  -44.6554 O.2       10 UNK        -0.5000 
     22 CA          0.2895  -23.0833  -42.8207 C.3       10 UNK         0.1400 
     23 CB          1.6203  -22.7606  -42.1255 C.3       10 UNK        -0.1800 
     24 N          -0.6448  -21.9701  -42.6544 N.am      10 UNK        -0.5000 
     25 C          -1.9322  -22.0013  -43.0290 C.2       9 UNK         0.5000 
     26 O          -2.4812  -22.9964  -43.5035 O.2       9 UNK        -0.5000 
     27 CA         -2.7277  -20.6897  -42.8935 C.3       9 UNK         0.1400 
     28 CB         -3.1838  -20.4743  -41.4433 C.3       9 UNK        -0.1800 
     29 N          -1.9785  -19.5186  -43.3530 N.am      9 UNK        -0.5000 
     30 C          -1.5514  -19.3353  -44.6108 C.2       8 UNK         0.5000 
     31 O          -1.7589  -20.1263  -45.5278 O.2       8 UNK        -0.5000 
     32 CA         -0.7093  -18.0799  -44.8835 C.3       8 UNK         0.1400 
     33 CB         -1.6058  -16.8449  -45.0380 C.3       8 UNK        -0.1800 
     34 N           0.2878  -17.8508  -43.8388 N.am      8 UNK        -0.5000 
     35 C           1.3267  -18.6643  -43.6028 C.2       7 UNK         0.5000 
     36 O           1.5865  -19.6611  -44.2774 O.2       7 UNK        -0.5000 
     37 CA          2.1844  -18.3345  -42.3702 C.3       7 UNK         0.1400 
     38 CB          3.1927  -17.2188  -42.6838 C.3       7 UNK        -0.1800 
     39 N           1.3634  -17.9568  -41.2178 N.am      7 UNK        -0.5000 
     40 C           0.5752  -18.8154  -40.5536 C.2       6 UNK         0.5000 
     41 O           0.4745  -20.0071  -40.8407 O.2       6 UNK        -0.5000 
     42 CA         -0.2693  -18.2543  -39.3953 C.3       6 UNK         0.1400 
     43 CB          0.5197  -18.3122  -38.0790 C.3       6 UNK        -0.1800 
     44 N          -0.7420  -16.8874  -39.6134 N.am      6 UNK        -0.5000 
     45 C          -1.5404  -16.4927  -40.6142 C.2       5 UNK         0.5000 
     46 O          -1.9523  -17.2502  -41.4953 O.2       5 UNK        -0.5000 
     47 CA         -1.9376  -15.0006  -40.6560 C.3       5 UNK         0.1400 
     48 CB         -1.3505  -14.1556  -39.5022 C.3       5 UNK        -0.1800 
     49 N          -1.6195  -14.3727  -41.9424 N.am      5 UNK        -0.5000 
     50 C          -0.4252  -14.3440  -42.5487 C.2       4 UNK         0.5000 
     51 O           0.5868  -14.9069  -42.1195 O.2       4 UNK        -0.5000 
     52 CA         -0.3550  -13.5422  -43.8553 C.3       4 UNK         0.1400 
     53 CB         -0.3655  -12.0284  -43.5810 C.3       4 UNK        -0.1800 
     54 N           0.8710  -13.8949  -44.5617 N.am      4 UNK        -0.5000 
     55 C           1.0107  -13.9497  -45.8878 C.2       3 UNK         0.5000 
     56 O           0.1000  -13.7189  -46.6868 O.2       3 UNK        -0.5000 
     57 CA          2.3963  -14.3745  -46.4043 C.3       3 UNK         0.1400 
     58 CB          2.4790  -15.9058  -46.5284 C.3       3 UNK        -0.1800 
     59 N           2.6838  -13.7532  -47.6989 N.am      3 UNK        -0.5000 
     60 C           3.0309  -12.4684  -47.8533 C.2       2 UNK         0.5000 
     61 O           3.2405  -11.6990  -46.9142 O.2       2 UNK        -0.5000 
     62 CA          3.1753  -11.9545  -49.2983 C.3       2 UNK         0.1400 
     63 CB          4.5573  -12.3163  -49.8643 C.3       2 UNK        -0.1800 
     64 N           2.1390  -12.4420  -50.2135 N.am      2 UNK        -0.5000 
     65 C           0.8479  -12.0844  -50.1672 C.2       1 UNK         0.5000 
     66 O           0.3725  -11.3592  -49.2904 O.2       1 UNK        -0.5000 
     67 C          -0.4197  -23.1038  -47.2465 C.2       11 UNK         0.5000 
     68 O          -0.3236  -24.0141  -48.0702 O.2       11 UNK        -0.5000 
     69 N          -1.5931  -22.5969  -46.8402 N.am      12 UNK        -0.5000 
     70 CA         -2.9064  -23.0621  -47.2908 C.3       12 UNK         0.1400 
     71 CB         -4.0109  -22.1866  -46.6816 C.3       12 UNK        -0.1800 
     72 C          -3.1624  -24.5482  -46.9747 C.2       12 UNK         0.5000 
     73 O          -3.7450  -25.2536  -47.7975 O.2       12 UNK        -0.5000 
     74 N          -2.7023  -25.0006  -45.8014 N.am      13 UNK        -0.5000 
     75 CA         -2.7664  -26.3968  -45.3804 C.3       13 UNK         0.1400 
     76 CB         -2.5654  -26.4788  -43.8588 C.3       13 UNK        -0.1800 
     77 C          -1.7469  -27.2848  -46.1187 C.2       13 UNK         0.5000 
     78 O          -2.1137  -28.3612  -46.5921 O.2       13 UNK        -0.5000 
     79 N          -0.4846  -26.8391  -46.1751 N.am      14 UNK        -0.5000 
     80 CA          0.6416  -27.6280  -46.6734 C.3       14 UNK         0.1400 
     81 CB          1.9517  -27.0620  -46.1024 C.3       14 UNK        -0.1800 
     82 C           0.7209  -27.7067  -48.2069 C.2       14 UNK         0.5000 
     83 O           0.9445  -28.7944  -48.7407 O.2       14 UNK        -0.5000 
     84 N           0.5820  -26.5591  -48.8808 N.am      15 UNK        -0.5000 
     85 CA          0.8207  -26.4080  -50.3178 C.3       15 UNK         0.1400 
     86 CB          1.9074  -25.3399  -50.5252 C.3       15 UNK        -0.1800 
     87 C          -0.4461  -26.0164  -51.0919 C.2       15 UNK         0.5000 
     88 O          -0.5595  -26.3724  -52.2661 O.2       15 UNK        -0.5000 
     89 N          -1.3560  -25.2792  -50.4396 N.am      16 UNK        -0.5000 
     90 CA         -2.5601  -24.6423  -50.9830 C.3       16 UNK         0.1400 
     91 CB         -3.5382  -25.6574  -51.6095 C.3       16 UNK        -0.1800 
     92 C          -2.2145  -23.4794  -51.9283 C.2       16 UNK         0.5000 
     93 O          -2.4129  -22.3235  -51.5559 O.2       16 UNK        -0.5000 
     94 N          -1.6696  -23.8141  -53.1065 N.am      17 UNK        -0.5000 
     95 CA         -1.3001  -22.9228  -54.2102 C.3       17 UNK         0.1400 
     96 CB         -0.1629  -21.9708  -53.7731 C.3       17 UNK        -0.1800 
     97 C          -2.5146  -22.1745  -54.8063 C.2       17 UNK         0.5000 
     98 O          -3.6617  -22.5712  -54.5855 O.2       17 UNK        -0.5000 
     99 N          -2.2395  -21.1198  -55.5830 N.am      18 UNK        -0.5000 
    100 CA        -3.2382  -20.1592  -56.0442 C.3       18 UNK         0.1400 
    101 CB        -2.8180  -19.5851  -57.4096 C.3       18 UNK        -0.1800 
    102 C         -3.3951  -19.0766  -54.9659 C.2       18 UNK         0.5000 
    103 O         -4.3765  -19.0958  -54.2214 O.2       18 UNK        -0.5000 
    104 N         -2.3902  -18.1918  -54.8721 N.am      19 UNK        -0.5000 
    105 CA        -2.2440  -17.1255  -53.8781 C.3       19 UNK         0.1400 
    106 CB        -1.8730  -17.7403  -52.5139 C.3       19 UNK        -0.1800 
    107 C         -3.4730  -16.1910  -53.8405 C.2       19 UNK         0.5000 
    108 O         -3.8579  -15.6653  -54.8862 O.2       19 UNK        -0.5000 
    109 N         -4.0840  -16.0232  -52.6621 N.am      20 UNK        -0.5000 
    110 CA        -5.3092  -15.2553  -52.4396 C.3       20 UNK         0.1400 
    111 CB        -5.1584  -14.4711  -51.1229 C.3       20 UNK        -0.1800 
    112 C         -6.5449  -16.1817  -52.4467 C.2       20 UNK         0.5000 
    113 O         -7.4231  -16.0401  -51.5943 O.2       20 UNK        -0.5000 
    114 N         -6.5722  -17.1289  -53.3981 N.am      21 UNK        -0.5000 
    115 CA        -7.5238  -18.2395  -53.5313 C.3       21 UNK         0.1400 
    116 CB        -8.9543  -17.7291  -53.8061 C.3       21 UNK        -0.1800 
    117 C         -7.4304  -19.2066  -52.3325 C.2       21 UNK         0.5000 
    118 O         -8.4464  -19.5754  -51.7396 O.2       21 UNK        -0.5000 
    119 N         -6.1903  -19.5686  -51.9866 N.am      22 UNK        -0.5000 
    120 CA        -5.8388  -20.3800  -50.8103 C.3       22 UNK         0.1400 
    121 C         -5.8744  -21.9160  -51.0584 C.2       22 UNK         0.5000 
    122 N         -6.0760  -22.3902  -52.2815 N.am      22 UNK        -0.7600 
    123 O         -5.7413  -22.6932  -50.1175 O.2       22 UNK        -0.5000 
    124 C124       -4.4817  -19.9397  -50.2081 C.3       23 UNK        -0.0398 
    125 S125       -4.4765  -18.1823  -49.7055 S.3       23 UNK        -0.2404 
    126 C126       -3.2570  -18.1759  -48.3551 C.3       23 UNK        -0.0205 
    127 H127       -0.0238   -8.9981  -53.2306 H         1 UNK         0.0600 
    128 H128        0.5097  -10.6495  -53.5135 H         1 UNK         0.0600 
    129 H129        0.9162   -9.8256  -51.9954 H         1 UNK         0.0600 
    130 H130       -2.0478  -11.9741  -51.1093 H         1 UNK         0.3000 
    131 H131        0.5484  -12.5848  -52.2364 H         1 UNK         0.0600 
    132 H132       -0.9355  -14.1763  -50.0906 H         1 UNK         0.0800 
    133 H133       -1.3824  -14.2532  -51.7682 H         1 UNK         0.0800 
    134 H134        0.8519  -15.2576  -49.0795 H         1 UNK         0.0800 
    135 H135        2.1186  -16.2384  -49.7785 H         1 UNK         0.0800 
    136 H136       -1.4802  -16.1710  -48.8546 H         1 UNK         0.1150 
    137 H137       -1.8715  -20.4376  -48.9925 H         1 UNK         0.1150 
    138 H138        1.7469  -18.5792  -50.3311 H         1 UNK         0.1150 
    139 H139       -0.1636  -21.8026  -49.9012 H         1 UNK         0.0800 
    140 H140        0.9261  -21.0449  -51.0300 H         1 UNK         0.0800 
    141 H141        0.5095  -20.4775  -47.2227 H         1 UNK         0.0800 
    142 H142        2.1109  -20.7787  -46.6391 H         1 UNK         0.0800 
    143 H143        1.6516  -23.2776  -46.7557 H         1 UNK         0.0600 
    144 H144        0.7761  -21.4697  -44.7631 H         1 UNK         0.3000 
    145 H145       -0.1441  -23.9598  -42.3344 H         1 UNK         0.0600 
    146 H146        1.4779  -22.6104  -41.0553 H         1 UNK         0.0600 
    147 H147        2.0794  -21.8584  -42.5311 H         1 UNK         0.0600 
    148 H148        2.3334  -23.5770  -42.2467 H         1 UNK         0.0600 
    149 H149       -0.2758  -21.1304  -42.2170 H         1 UNK         0.3000 
    150 H150       -3.6182  -20.7763  -43.5192 H         1 UNK         0.0600 
    151 H151       -3.7926  -21.3108  -41.0981 H         1 UNK         0.0600 
    152 H152       -3.7866  -19.5708  -41.3487 H         1 UNK         0.0600 
    153 H153       -2.3360  -20.3839  -40.7647 H         1 UNK         0.0600 
    154 H154       -1.8021  -18.7902  -42.6667 H         1 UNK         0.3000 
    155 H155       -0.1851  -18.2354  -45.8295 H         1 UNK         0.0600 
    156 H156       -2.4312  -17.0426  -45.7201 H         1 UNK         0.0600 
    157 H157       -1.0455  -16.0088  -45.4505 H         1 UNK         0.0600 
    158 H158       -2.0408  -16.5340  -44.0886 H         1 UNK         0.0600 
    159 H159        0.1228  -17.0852  -43.2002 H         1 UNK         0.3000 
    160 H160        2.7474  -19.2327  -42.1073 H         1 UNK         0.0600 
    161 H161        2.6978  -16.2864  -42.9541 H         1 UNK         0.0600 
    162 H162        3.8371  -17.5007  -43.5175 H         1 UNK         0.0600 
    163 H163        3.8378  -17.0194  -41.8280 H         1 UNK         0.0600 
    164 H164        1.3518  -16.9788  -40.9608 H         1 UNK         0.3000 
    165 H165       -1.1485  -18.8924  -39.2907 H         1 UNK         0.0600 
    166 H166       -0.0982  -18.0072  -37.2342 H         1 UNK         0.0600 
    167 H167        0.8667  -19.3264  -37.8762 H         1 UNK         0.0600 
    168 H168        1.3967  -17.6643  -38.1061 H         1 UNK         0.0600 
    169 H169       -0.4356  -16.1942  -38.9466 H         1 UNK         0.3000 
    170 H170       -3.0241  -14.9785  -40.5612 H         1 UNK         0.0600 
    171 H171       -1.6596  -14.5401  -38.5294 H         1 UNK         0.0600 
    172 H172       -0.2602  -14.1298  -39.5250 H         1 UNK         0.0600 
    173 H173       -1.7022  -13.1253  -39.5597 H         1 UNK         0.0600 
    174 H174       -2.3958  -13.9111  -42.3949 H         1 UNK         0.3000 
    175 H175       -1.2254  -13.8057  -44.4597 H         1 UNK         0.0600 
    176 H176        0.4818  -11.7271  -42.9637 H         1 UNK         0.0600 
    177 H177       -0.3204  -11.4601  -44.5103 H         1 UNK         0.0600 
    178 H178       -1.2755  -11.7262  -43.0614 H         1 UNK         0.0600 
    179 H179        1.6315  -14.1721  -43.9544 H         1 UNK         0.3000 
    180 H180        3.1560  -14.0490  -45.6901 H         1 UNK         0.0600 
    181 H181        3.4162  -16.2200  -46.9879 H         1 UNK         0.0600 
    182 H182        1.6584  -16.3169  -47.1153 H         1 UNK         0.0600 
    183 H183        2.4286  -16.3742  -45.5456 H         1 UNK         0.0600 
    184 H184        2.5032  -14.3029  -48.5231 H         1 UNK         0.3000 
    185 H185        3.1028  -10.8651  -49.2648 H         1 UNK         0.0600 
    186 H186        4.6841  -13.3952  -49.9621 H         1 UNK         0.0600 
    187 H187        4.7107  -11.8694  -50.8468 H         1 UNK         0.0600 
    188 H188        5.3535  -11.9498  -49.2149 H         1 UNK         0.0600 
    189 H189        2.4510  -13.0461  -50.9608 H         1 UNK         0.3000 
    190 H190       -1.5941  -21.8100  -46.1935 H         1 UNK         0.3000 
    191 H191       -2.9394  -22.9262  -48.3711 H         1 UNK         0.0600 
    192 H192       -4.0332  -22.2616  -45.5947 H         1 UNK         0.0600 
    193 H193       -4.9920  -22.4853  -47.0533 H         1 UNK         0.0600 
    194 H194       -3.8733  -21.1387  -46.9406 H         1 UNK         0.0600 
    195 H195       -2.2777  -24.3434  -45.1565 H         1 UNK         0.3000 
    196 H196       -3.7649  -26.7781  -45.6047 H         1 UNK         0.0600 
    197 H197       -3.3338  -25.9139  -43.3305 H         1 UNK         0.0600 
    198 H198       -1.5957  -26.0830  -43.5556 H         1 UNK         0.0600 
    199 H199       -2.6229  -27.5112  -43.5119 H         1 UNK         0.0600 
    200 H200       -0.2535  -25.9536  -45.7301 H         1 UNK         0.3000 
    201 H201        0.5348  -28.6479  -46.2972 H         1 UNK         0.0600 
    202 H202        1.9467  -27.0810  -45.0125 H         1 UNK         0.0600 
    203 H203        2.1165  -26.0308  -46.4176 H         1 UNK         0.0600 
    204 H204        2.8095  -27.6484  -46.4340 H         1 UNK         0.0600 
    205 H205        0.3518  -25.7089  -48.3726 H         1 UNK         0.3000 
    206 H206        1.1845  -27.3425  -50.7498 H         1 UNK         0.0600 
    207 H207        1.6031  -24.3719  -50.1249 H         1 UNK         0.0600 
    208 H208        2.8386  -25.6257  -50.0359 H         1 UNK         0.0600 
    209 H209        2.1254  -25.2025  -51.5851 H         1 UNK         0.0600 
    210 H210       -1.1148  -24.9848  -49.4978 H         1 UNK         0.3000 
    211 H211       -3.0826  -24.2038  -50.1369 H         1 UNK         0.0600 
    212 H212       -3.1306  -26.1514  -52.4909 H         1 UNK         0.0600 
    213 H213       -4.4587  -25.1597  -51.9159 H         1 UNK         0.0600 
    214 H214       -3.8117  -26.4285  -50.8893 H         1 UNK         0.0600 
    215 H215       -1.5010  -24.8015  -53.2623 H         1 UNK         0.3000 
    216 H216       -0.9143  -23.5680  -55.0004 H         1 UNK         0.0600 
    217 H217        0.3021  -21.4836  -54.6303 H         1 UNK         0.0600 
    218 H218        0.6258  -22.5135  -53.2515 H         1 UNK         0.0600 
    219 H219       -0.5251  -21.1872  -53.1060 H         1 UNK         0.0600 
    220 H220       -1.2727  -20.8654  -55.7211 H         1 UNK         0.3000 
    221 H221       -4.2064  -20.6482  -56.1724 H         1 UNK         0.0600 
    222 H222       -1.8157  -19.1562  -57.3919 H         1 UNK         0.0600 
    223 H223       -2.8285  -20.3615  -58.1749 H         1 UNK         0.0600 
    224 H224       -3.5074  -18.8040  -57.7329 H         1 UNK         0.0600 
    225 H225       -1.6494  -18.2452  -55.5554 H         1 UNK         0.3000 
    226 H226       -1.4050  -16.5065  -54.1990 H         1 UNK         0.0600 
    227 H227       -0.9403  -18.3009  -52.5767 H         1 UNK         0.0600 
    228 H228       -1.7279  -16.9669  -51.7619 H         1 UNK         0.0600 
    229 H229       -2.6393  -18.4219  -52.1488 H         1 UNK         0.0600 
    230 H230       -3.7422  -16.5439  -51.8659 H         1 UNK         0.3000 
    231 H231       -5.4490  -14.5293  -53.2430 H         1 UNK         0.0600 
    232 H232       -6.0249  -13.8335  -50.9438 H         1 UNK         0.0600 
    233 H233       -4.2816  -13.8240  -51.1485 H         1 UNK         0.0600 
    234 H234       -5.0570  -15.1384  -50.2662 H         1 UNK         0.0600 
    235 H235       -5.7734  -17.1818  -54.0166 H         1 UNK         0.3000 
    236 H236       -7.2083  -18.8084  -54.4070 H         1 UNK         0.0600 
    237 H237       -9.3731  -17.2008  -52.9494 H         1 UNK         0.0600 
    238 H238       -8.9738  -17.0525  -54.6603 H         1 UNK         0.0600 
    239 H239       -9.6241  -18.5589  -54.0340 H         1 UNK         0.0600 
    240 H240       -5.4196  -19.2704  -52.5771 H         1 UNK         0.3000 
    241 H241       -6.5942  -20.1996  -50.0430 H         1 UNK         0.0600 
    242 H242       -6.1038  -23.3847  -52.4322 H         1 UNK         0.3800 
    243 H243       -6.1349  -21.7629  -53.0673 H         1 UNK         0.3800 
    244 H244       -3.6771  -20.1022  -50.9254 H         1 UNK         0.0800 
    245 H245       -4.2446  -20.5510  -49.3367 H         1 UNK         0.0800 
    246 H246       -3.3742  -17.2416  -47.8061 H         1 UNK         0.0800 
    247 H247       -3.4677  -18.9744  -47.6441 H         1 UNK         0.0800 
@<TRIPOS>BOND
     1    1    2 1    
     2    1  127 1    
     3    1  128 1    
     4    1  129 1    
     5    2    3 2    
     6    2    4 am   BACKBONE|DICT|INTERRES
     7    4    5 1    
     8    4  130 1    
     9    5    6 1    
    10    5   65 1    
    11    5  131 1    
    12    6    7 1    
    13    6  132 1    
    14    6  133 1    
    15    7    8 1    
    16    8    9 1    
    17    8  134 1    
    18    8  135 1    
    19    9   10 ar   
    20    9   14 ar   
    21   10   11 ar   
    22   10  136 1    
    23   11   12 ar   
    24   11  126 1    
    25   12   13 ar   
    26   12  137 1    
    27   13   14 ar   
    28   13   15 1    
    29   14  138 1    
    30   15   16 1    
    31   15  139 1    
    32   15  140 1    
    33   16   17 1    
    34   17   18 1    
    35   17  141 1    
    36   17  142 1    
    37   18   19 1    
    38   18   67 1    
    39   18  143 1    
    40   19   20 am   BACKBONE|DICT|INTERRES
    41   19  144 1    
    42   20   21 2    
    43   20   22 1    
    44   22   23 1    
    45   22   24 1    
    46   22  145 1    
    47   23  146 1    
    48   23  147 1    
    49   23  148 1    
    50   24   25 am   BACKBONE|DICT|INTERRES
    51   24  149 1    
    52   25   26 2    
    53   25   27 1    
    54   27   28 1    
    55   27   29 1    
    56   27  150 1    
    57   28  151 1    
    58   28  152 1    
    59   28  153 1    
    60   29   30 am   BACKBONE|DICT|INTERRES
    61   29  154 1    
    62   30   31 2    
    63   30   32 1    
    64   32   33 1    
    65   32   34 1    
    66   32  155 1    
    67   33  156 1    
    68   33  157 1    
    69   33  158 1    
    70   34   35 am   BACKBONE|DICT|INTERRES
    71   34  159 1    
    72   35   36 2    
    73   35   37 1    
    74   37   38 1    
    75   37   39 1    
    76   37  160 1    
    77   38  161 1    
    78   38  162 1    
    79   38  163 1    
    80   39   40 am   BACKBONE|DICT|INTERRES
    81   39  164 1    
    82   40   41 2    
    83   40   42 1    
    84   42   43 1    
    85   42   44 1    
    86   42  165 1    
    87   43  166 1    
    88   43  167 1    
    89   43  168 1    
    90   44   45 am   BACKBONE|DICT|INTERRES
    91   44  169 1    
    92   45   46 2    
    93   45   47 1    
    94   47   48 1    
    95   47   49 1    
    96   47  170 1    
    97   48  171 1    
    98   48  172 1    
    99   48  173 1    
   100   49   50 am   BACKBONE|DICT|INTERRES
   101   49  174 1    
   102   50   51 2    
   103   50   52 1    
   104   52   53 1    
   105   52   54 1    
   106   52  175 1    
   107   53  176 1    
   108   53  177 1    
   109   53  178 1    
   110   54   55 am   BACKBONE|DICT|INTERRES
   111   54  179 1    
   112   55   56 2    
   113   55   57 1    
   114   57   58 1    
   115   57   59 1    
   116   57  180 1    
   117   58  181 1    
   118   58  182 1    
   119   58  183 1    
   120   59   60 am   BACKBONE|DICT|INTERRES
   121   59  184 1    
   122   60   61 2    
   123   60   62 1    
   124   62   63 1    
   125   62   64 1    
   126   62  185 1    
   127   63  186 1    
   128   63  187 1    
   129   63  188 1    
   130   64   65 am   BACKBONE|DICT|INTERRES
   131   64  189 1    
   132   65   66 2    
   133   67   68 2    
   134   67   69 am   BACKBONE|DICT|INTERRES
   135   69   70 1    
   136   69  190 1    
   137   70   71 1    
   138   70   72 1    
   139   70  191 1    
   140   71  192 1    
   141   71  193 1    
   142   71  194 1    
   143   72   73 2    
   144   72   74 am   BACKBONE|DICT|INTERRES
   145   74   75 1    
   146   74  195 1    
   147   75   76 1    
   148   75   77 1    
   149   75  196 1    
   150   76  197 1    
   151   76  198 1    
   152   76  199 1    
   153   77   78 2    
   154   77   79 am   BACKBONE|DICT|INTERRES
   155   79   80 1    
   156   79  200 1    
   157   80   81 1    
   158   80   82 1    
   159   80  201 1    
   160   81  202 1    
   161   81  203 1    
   162   81  204 1    
   163   82   83 2    
   164   82   84 am   BACKBONE|DICT|INTERRES
   165   84   85 1    
   166   84  205 1    
   167   85   86 1    
   168   85   87 1    
   169   85  206 1    
   170   86  207 1    
   171   86  208 1    
   172   86  209 1    
   173   87   88 2    
   174   87   89 am   BACKBONE|DICT|INTERRES
   175   89   90 1    
   176   89  210 1    
   177   90   91 1    
   178   90   92 1    
   179   90  211 1    
   180   91  212 1    
   181   91  213 1    
   182   91  214 1    
   183   92   93 2    
   184   92   94 am   BACKBONE|DICT|INTERRES
   185   94   95 1    
   186   94  215 1    
   187   95   96 1    
   188   95   97 1    
   189   95  216 1    
   190   96  217 1    
   191   96  218 1    
   192   96  219 1    
   193   97   98 2    
   194   97   99 am   BACKBONE|DICT|INTERRES
   195   99  100 1    
   196   99  220 1    
   197  100  101 1    
   198  100  102 1    
   199  100  221 1    
   200  101  222 1    
   201  101  223 1    
   202  101  224 1    
   203  102  103 2    
   204  102  104 am   BACKBONE|DICT|INTERRES
   205  104  105 1    
   206  104  225 1    
   207  105  106 1    
   208  105  107 1    
   209  105  226 1    
   210  106  227 1    
   211  106  228 1    
   212  106  229 1    
   213  107  108 2    
   214  107  109 am   BACKBONE|DICT|INTERRES
   215  109  110 1    
   216  109  230 1    
   217  110  111 1    
   218  110  112 1    
   219  110  231 1    
   220  111  232 1    
   221  111  233 1    
   222  111  234 1    
   223  112  113 2    
   224  112  114 am   BACKBONE|DICT|INTERRES
   225  114  115 1    
   226  114  235 1    
   227  115  116 1    
   228  115  117 1    
   229  115  236 1    
   230  116  237 1    
   231  116  238 1    
   232  116  239 1    
   233  117  118 2    
   234  117  119 am   BACKBONE|DICT|INTERRES
   235  119  120 1    
   236  119  240 1    
   237  120  121 1    
   238  120  124 1    
   239  120  241 1    
   240  121  122 am   BACKBONE|DICT|INTERRES
   241  121  123 2    
   242  122  242 1    
   243  122  243 1    
   244  124  125 1    
   245  124  244 1    
   246  124  245 1    
   247  125  126 1    
   248  126  246 1    
   249  126  247 1    
@<TRIPOS>SUBSTRUCTURE
     1 UNK         1 GROUP             0       ****    0 ROOT    
