@<TRIPOS>MOLECULE
3R540
247   249    1
SMALL
USER_CHARGES


@<TRIPOS>ATOM
      1 CA          7.6789  -12.3465  -49.6874 C.3       0 UNK        -0.1800 
      2 C           6.3777  -13.0807  -49.3957 C.2       0 UNK         0.5000 
      3 O           5.7897  -12.8857  -48.3318 O.2       0 UNK        -0.5000 
      4 N           5.9317  -13.9288  -50.3307 N.am      1 UNK        -0.5000 
      5 CA          4.6698  -14.6679  -50.2598 C.3       1 UNK         0.1400 
      6 C6          4.6651  -15.8514  -51.2639 C.3       23 UNK        -0.0398 
      7 S7          3.1166  -16.8206  -51.3423 S.3       23 UNK        -0.2404 
      8 C8          3.2080  -17.7846  -49.8014 C.3       23 UNK        -0.0205 
      9 C9          2.0725  -18.7943  -49.6927 C.ar      23 UNK        -0.0193 
     10 C10         0.7406  -18.3664  -49.6945 C.ar      23 UNK        -0.1150 
     11 C11        -0.3043  -19.2856  -49.5660 C.ar      23 UNK        -0.0193 
     12 C12        -0.0072  -20.6422  -49.4173 C.ar      23 UNK        -0.1150 
     13 C13         1.3177  -21.0894  -49.4306 C.ar      23 UNK        -0.0193 
     14 C14         2.3524  -20.1593  -49.5745 C.ar      23 UNK        -0.1150 
     15 C15         1.6144  -22.5813  -49.3135 C.3       23 UNK        -0.0205 
     16 S16         2.8434  -23.0058  -48.0302 S.3       23 UNK        -0.2404 
     17 C17         2.1633  -22.1991  -46.5442 C.3       23 UNK        -0.0398 
     18 CA          1.3197  -23.1106  -45.6205 C.3       11 UNK         0.1400 
     19 N           1.0721  -22.4415  -44.3404 N.am      11 UNK        -0.5000 
     20 C           0.5304  -22.9920  -43.2456 C.2       10 UNK         0.5000 
     21 O           0.1995  -24.1749  -43.1626 O.2       10 UNK        -0.5000 
     22 CA          0.3259  -22.0590  -42.0353 C.3       10 UNK         0.1400 
     23 CB          1.6220  -21.9283  -41.2207 C.3       10 UNK        -0.1800 
     24 N          -0.1361  -20.7278  -42.4313 N.am      10 UNK        -0.5000 
     25 C          -1.3816  -20.4541  -42.8447 C.2       9 UNK         0.5000 
     26 O          -2.2982  -21.2752  -42.8266 O.2       9 UNK        -0.5000 
     27 CA         -1.6510  -19.0348  -43.3869 C.3       9 UNK         0.1400 
     28 CB         -2.0911  -18.0925  -42.2571 C.3       9 UNK        -0.1800 
     29 N          -0.5054  -18.4491  -44.0849 N.am      9 UNK        -0.5000 
     30 C           0.0390  -18.9480  -45.2033 C.2       8 UNK         0.5000 
     31 O          -0.3771  -19.9527  -45.7775 O.2       8 UNK        -0.5000 
     32 CA          1.3080  -18.2522  -45.7216 C.3       8 UNK         0.1400 
     33 CB          0.9642  -16.9654  -46.4785 C.3       8 UNK        -0.1800 
     34 N           2.2430  -17.9480  -44.6392 N.am      8 UNK        -0.5000 
     35 C           2.8955  -18.8718  -43.9203 C.2       7 UNK         0.5000 
     36 O           2.8036  -20.0817  -44.1189 O.2       7 UNK        -0.5000 
     37 CA          3.7540  -18.3585  -42.7512 C.3       7 UNK         0.1400 
     38 CB          5.1268  -17.8858  -43.2520 C.3       7 UNK        -0.1800 
     39 N           3.1016  -17.2720  -42.0204 N.am      7 UNK        -0.5000 
     40 C           1.9752  -17.4077  -41.3054 C.2       6 UNK         0.5000 
     41 O           1.3959  -18.4806  -41.1390 O.2       6 UNK        -0.5000 
     42 CA          1.3717  -16.1159  -40.7224 C.3       6 UNK         0.1400 
     43 CB          1.9775  -15.8090  -39.3450 C.3       6 UNK        -0.1800 
     44 N           1.5500  -14.9572  -41.6036 N.am      6 UNK        -0.5000 
     45 C           0.9963  -14.8424  -42.8179 C.2       5 UNK         0.5000 
     46 O           0.2737  -15.7062  -43.3194 O.2       5 UNK        -0.5000 
     47 CA          1.3755  -13.5889  -43.6266 C.3       5 UNK         0.1400 
     48 CB          2.6055  -13.8733  -44.5029 C.3       5 UNK        -0.1800 
     49 N           0.2769  -13.1290  -44.4759 N.am      5 UNK        -0.5000 
     50 C          -0.8300  -12.5288  -44.0124 C.2       4 UNK         0.5000 
     51 O          -1.0179  -12.2869  -42.8188 O.2       4 UNK        -0.5000 
     52 CA         -1.8989  -12.0882  -45.0351 C.3       4 UNK         0.1400 
     53 CB         -1.8370  -10.5679  -45.2524 C.3       4 UNK        -0.1800 
     54 N          -1.7779  -12.7479  -46.3339 N.am      4 UNK        -0.5000 
     55 C          -2.1165  -14.0190  -46.5834 C.2       3 UNK         0.5000 
     56 O          -2.6435  -14.7577  -45.7518 O.2       3 UNK        -0.5000 
     57 CA         -1.8133  -14.5597  -47.9967 C.3       3 UNK         0.1400 
     58 CB         -3.1061  -14.7013  -48.8132 C.3       3 UNK        -0.1800 
     59 N          -0.8425  -13.7808  -48.7761 N.am      3 UNK        -0.5000 
     60 C           0.4410  -13.6044  -48.4411 C.2       2 UNK         0.5000 
     61 O           0.9236  -13.9591  -47.3640 O.2       2 UNK        -0.5000 
     62 CA          1.3421  -12.9106  -49.4658 C.3       2 UNK         0.1400 
     63 CB          1.5662  -11.4334  -49.1004 C.3       2 UNK        -0.1800 
     64 N           2.6046  -13.6339  -49.4584 N.am      2 UNK        -0.5000 
     65 C           3.4844  -13.6990  -50.4602 C.2       1 UNK         0.5000 
     66 O           3.3907  -13.0526  -51.5065 O.2       1 UNK        -0.5000 
     67 C           0.0040  -23.5648  -46.2899 C.2       11 UNK         0.5000 
     68 O          -0.1296  -24.7457  -46.6159 O.2       11 UNK        -0.5000 
     69 N          -0.9249  -22.6087  -46.4531 N.am      12 UNK        -0.5000 
     70 CA         -2.2901  -22.6791  -46.9827 C.3       12 UNK         0.1400 
     71 CB         -3.2975  -22.6533  -45.8197 C.3       12 UNK        -0.1800 
     72 C          -2.5780  -23.8055  -47.9925 C.2       12 UNK         0.5000 
     73 O          -2.4404  -23.5952  -49.1994 O.2       12 UNK        -0.5000 
     74 N          -2.9856  -24.9747  -47.4793 N.am      13 UNK        -0.5000 
     75 CA         -3.3772  -26.1718  -48.2266 C.3       13 UNK         0.1400 
     76 CB         -3.7674  -27.2737  -47.2314 C.3       13 UNK        -0.1800 
     77 C          -2.3231  -26.6936  -49.2215 C.2       13 UNK         0.5000 
     78 O          -2.7015  -27.3067  -50.2197 O.2       13 UNK        -0.5000 
     79 N          -1.0373  -26.3962  -48.9846 N.am      14 UNK        -0.5000 
     80 CA          0.0623  -26.6997  -49.9054 C.3       14 UNK         0.1400 
     81 CB          1.3996  -26.4661  -49.1905 C.3       14 UNK        -0.1800 
     82 C          -0.0031  -25.9211  -51.2397 C.2       14 UNK         0.5000 
     83 O           0.5885  -26.3723  -52.2207 O.2       14 UNK        -0.5000 
     84 N          -0.7418  -24.8019  -51.2695 N.am      15 UNK        -0.5000 
     85 CA         -1.0824  -24.0407  -52.4757 C.3       15 UNK         0.1400 
     86 CB         -0.5991  -22.5909  -52.3125 C.3       15 UNK        -0.1800 
     87 C          -2.5984  -24.0994  -52.7594 C.2       15 UNK         0.5000 
     88 O          -3.1211  -23.2294  -53.4562 O.2       15 UNK        -0.5000 
     89 N          -3.2821  -25.1127  -52.2043 N.am      16 UNK        -0.5000 
     90 CA         -4.7251  -25.3614  -52.2824 C.3       16 UNK         0.1400 
     91 CB         -5.1523  -25.7268  -53.7194 C.3       16 UNK        -0.1800 
     92 C          -5.5880  -24.2589  -51.6283 C.2       16 UNK         0.5000 
     93 O          -6.7259  -24.0383  -52.0479 O.2       16 UNK        -0.5000 
     94 N          -5.0387  -23.6223  -50.5807 N.am      17 UNK        -0.5000 
     95 CA         -5.6731  -22.6778  -49.6581 C.3       17 UNK         0.1400 
     96 CB         -6.5967  -23.4314  -48.6785 C.3       17 UNK        -0.1800 
     97 C          -6.3577  -21.5004  -50.3723 C.2       17 UNK         0.5000 
     98 O          -5.6708  -20.5585  -50.7705 O.2       17 UNK        -0.5000 
     99 N          -7.6871  -21.5748  -50.5262 N.am      18 UNK        -0.5000 
    100 CA        -8.5458  -20.5799  -51.1714 C.3       18 UNK         0.1400 
    101 CB       -10.0054  -21.0488  -51.0878 C.3       18 UNK        -0.1800 
    102 C         -8.1626  -20.2628  -52.6279 C.2       18 UNK         0.5000 
    103 O         -8.3749  -19.1330  -53.0678 O.2       18 UNK        -0.5000 
    104 N         -7.5465  -21.2278  -53.3260 N.am      19 UNK        -0.5000 
    105 CA        -6.9876  -21.0571  -54.6707 C.3       19 UNK         0.1400 
    106 CB        -6.5159  -22.4220  -55.1873 C.3       19 UNK        -0.1800 
    107 C         -5.8290  -20.0382  -54.7331 C.2       19 UNK         0.5000 
    108 O         -5.6007  -19.4477  -55.7893 O.2       19 UNK        -0.5000 
    109 N         -5.1402  -19.8403  -53.6024 N.am      20 UNK        -0.5000 
    110 CA        -4.0578  -18.8770  -53.4105 C.3       20 UNK         0.1400 
    111 CB        -2.8034  -19.6519  -52.9747 C.3       20 UNK        -0.1800 
    112 C         -4.4497  -17.7748  -52.4016 C.2       20 UNK         0.5000 
    113 O         -3.5811  -17.0247  -51.9591 O.2       20 UNK        -0.5000 
    114 N         -5.7473  -17.6869  -52.0675 N.am      21 UNK        -0.5000 
    115 CA        -6.3895  -16.7328  -51.1544 C.3       21 UNK         0.1400 
    116 CB        -6.1743  -15.2777  -51.6221 C.3       21 UNK        -0.1800 
    117 C         -6.0539  -16.9246  -49.6577 C.2       21 UNK         0.5000 
    118 O         -6.3913  -16.0532  -48.8553 O.2       21 UNK        -0.5000 
    119 N         -5.4552  -18.0642  -49.2878 N.am      22 UNK        -0.5000 
    120 CA        -5.1717  -18.4528  -47.8919 C.3       22 UNK         0.1400 
    121 C         -6.3612  -19.1672  -47.1799 C.2       22 UNK         0.5000 
    122 N         -7.5240  -19.3187  -47.8007 N.am      22 UNK        -0.7600 
    123 O         -6.2338  -19.5847  -46.0329 O.2       22 UNK        -0.5000 
    124 C124       -3.8673  -19.2847  -47.7799 C.3       23 UNK        -0.0398 
    125 S125       -2.3723  -18.2702  -48.0185 S.3       23 UNK        -0.2404 
    126 C126       -1.7503  -18.8178  -49.6342 C.3       23 UNK        -0.0205 
    127 H127        8.4205  -12.5792  -48.9233 H         1 UNK         0.0600 
    128 H128        7.5104  -11.2696  -49.6838 H         1 UNK         0.0600 
    129 H129        8.0923  -12.6227  -50.6577 H         1 UNK         0.0600 
    130 H130        6.4460  -14.0211  -51.1951 H         1 UNK         0.3000 
    131 H131        4.5988  -15.0957  -49.2574 H         1 UNK         0.0600 
    132 H132        5.4856  -16.5329  -51.0349 H         1 UNK         0.0800 
    133 H133        4.8618  -15.4810  -52.2715 H         1 UNK         0.0800 
    134 H134        4.1748  -18.2879  -49.7516 H         1 UNK         0.0800 
    135 H135        3.1624  -17.1098  -48.9464 H         1 UNK         0.0800 
    136 H136        0.5165  -17.3142  -49.8009 H         1 UNK         0.1150 
    137 H137       -0.8132  -21.3538  -49.3152 H         1 UNK         0.1150 
    138 H138        3.3776  -20.5018  -49.5837 H         1 UNK         0.1150 
    139 H139        0.6964  -23.1378  -49.1211 H         1 UNK         0.0800 
    140 H140        1.9879  -22.9385  -50.2734 H         1 UNK         0.0800 
    141 H141        1.6107  -21.3027  -46.8192 H         1 UNK         0.0800 
    142 H142        3.0313  -21.8413  -45.9905 H         1 UNK         0.0800 
    143 H143        1.9052  -24.0067  -45.4045 H         1 UNK         0.0600 
    144 H144        1.3675  -21.4725  -44.2867 H         1 UNK         0.3000 
    145 H145       -0.4312  -22.5099  -41.3902 H         1 UNK         0.0600 
    146 H146        1.9748  -22.9055  -40.8891 H         1 UNK         0.0600 
    147 H147        2.4220  -21.4702  -41.8026 H         1 UNK         0.0600 
    148 H148        1.4669  -21.3184  -40.3304 H         1 UNK         0.0600 
    149 H149        0.5412  -19.9751  -42.3937 H         1 UNK         0.3000 
    150 H150       -2.4688  -19.1085  -44.1070 H         1 UNK         0.0600 
    151 H151       -2.3327  -17.1013  -42.6421 H         1 UNK         0.0600 
    152 H152       -1.3120  -17.9783  -41.5034 H         1 UNK         0.0600 
    153 H153       -2.9809  -18.4742  -41.7551 H         1 UNK         0.0600 
    154 H154       -0.1281  -17.5864  -43.7032 H         1 UNK         0.3000 
    155 H155        1.8026  -18.9295  -46.4206 H         1 UNK         0.0600 
    156 H156        0.2808  -17.1706  -47.2990 H         1 UNK         0.0600 
    157 H157        1.8559  -16.5076  -46.9052 H         1 UNK         0.0600 
    158 H158        0.4783  -16.2290  -45.8397 H         1 UNK         0.0600 
    159 H159        2.3279  -16.9789  -44.3746 H         1 UNK         0.3000 
    160 H160        3.9084  -19.1897  -42.0598 H         1 UNK         0.0600 
    161 H161        5.6407  -18.6835  -43.7902 H         1 UNK         0.0600 
    162 H162        5.7685  -17.5899  -42.4219 H         1 UNK         0.0600 
    163 H163        5.0401  -17.0354  -43.9296 H         1 UNK         0.0600 
    164 H164        3.5154  -16.3551  -42.0968 H         1 UNK         0.3000 
    165 H165        0.2997  -16.2796  -40.5947 H         1 UNK         0.0600 
    166 H166        1.5002  -14.9415  -38.8887 H         1 UNK         0.0600 
    167 H167        1.8407  -16.6495  -38.6631 H         1 UNK         0.0600 
    168 H168        3.0478  -15.6093  -39.4093 H         1 UNK         0.0600 
    169 H169        2.1372  -14.2124  -41.2563 H         1 UNK         0.3000 
    170 H170        1.6282  -12.7853  -42.9317 H         1 UNK         0.0600 
    171 H171        2.8912  -12.9931  -45.0794 H         1 UNK         0.0600 
    172 H172        3.4654  -14.1561  -43.8946 H         1 UNK         0.0600 
    173 H173        2.4212  -14.6844  -45.2072 H         1 UNK         0.0600 
    174 H174        0.3506  -13.3437  -45.4644 H         1 UNK         0.3000 
    175 H175       -2.8757  -12.3327  -44.6125 H         1 UNK         0.0600 
    176 H176       -0.8829  -10.2620  -45.6835 H         1 UNK         0.0600 
    177 H177       -2.6312  -10.2316  -45.9193 H         1 UNK         0.0600 
    178 H178       -1.9582  -10.0322  -44.3100 H         1 UNK         0.0600 
    179 H179       -1.3489  -12.2164  -47.0764 H         1 UNK         0.3000 
    180 H180       -1.3885  -15.5542  -47.8612 H         1 UNK         0.0600 
    181 H181       -2.9252  -15.2165  -49.7571 H         1 UNK         0.0600 
    182 H182       -3.5551  -13.7325  -49.0339 H         1 UNK         0.0600 
    183 H183       -3.8439  -15.2888  -48.2663 H         1 UNK         0.0600 
    184 H184       -1.1658  -13.4381  -49.6693 H         1 UNK         0.3000 
    185 H185        0.8863  -12.9828  -50.4556 H         1 UNK         0.0600 
    186 H186        2.0263  -11.3291  -48.1167 H         1 UNK         0.0600 
    187 H187        2.2138  -10.9405  -49.8255 H         1 UNK         0.0600 
    188 H188        0.6222  -10.8876  -49.0833 H         1 UNK         0.0600 
    189 H189        2.7482  -14.1812  -48.6187 H         1 UNK         0.3000 
    190 H190       -0.6611  -21.6688  -46.1556 H         1 UNK         0.3000 
    191 H191       -2.4247  -21.7529  -47.5396 H         1 UNK         0.0600 
    192 H192       -3.1025  -23.4426  -45.0929 H         1 UNK         0.0600 
    193 H193       -4.3230  -22.7663  -46.1748 H         1 UNK         0.0600 
    194 H194       -3.2486  -21.7018  -45.2912 H         1 UNK         0.0600 
    195 H195       -3.0167  -25.0557  -46.4736 H         1 UNK         0.3000 
    196 H196       -4.2634  -25.9122  -48.8085 H         1 UNK         0.0600 
    197 H197       -4.0918  -28.1759  -47.7521 H         1 UNK         0.0600 
    198 H198       -4.5919  -26.9558  -46.5928 H         1 UNK         0.0600 
    199 H199       -2.9298  -27.5482  -46.5889 H         1 UNK         0.0600 
    200 H200       -0.8016  -25.8730  -48.1455 H         1 UNK         0.3000 
    201 H201        0.0009  -27.7608  -50.1557 H         1 UNK         0.0600 
    202 H202        1.4988  -27.1146  -48.3199 H         1 UNK         0.0600 
    203 H203        1.4928  -25.4378  -48.8491 H         1 UNK         0.0600 
    204 H204        2.2431  -26.6738  -49.8501 H         1 UNK         0.0600 
    205 H205       -1.2094  -24.4978  -50.4201 H         1 UNK         0.3000 
    206 H206       -0.5853  -24.4646  -53.3500 H         1 UNK         0.0600 
    207 H207       -0.7364  -22.0261  -53.2349 H         1 UNK         0.0600 
    208 H208       -1.1532  -22.0757  -51.5288 H         1 UNK         0.0600 
    209 H209        0.4615  -22.5487  -52.0694 H         1 UNK         0.0600 
    210 H210       -2.7650  -25.7908  -51.6564 H         1 UNK         0.3000 
    211 H211       -4.9016  -26.2476  -51.6714 H         1 UNK         0.0600 
    212 H212       -4.9508  -24.9245  -54.4266 H         1 UNK         0.0600 
    213 H213       -6.2177  -25.9533  -53.7730 H         1 UNK         0.0600 
    214 H214       -4.6197  -26.6115  -54.0679 H         1 UNK         0.0600 
    215 H215       -4.0652  -23.8158  -50.3725 H         1 UNK         0.3000 
    216 H216       -4.8712  -22.2353  -49.0683 H         1 UNK         0.0600 
    217 H217       -7.0822  -22.7420  -47.9860 H         1 UNK         0.0600 
    218 H218       -6.0270  -24.1390  -48.0760 H         1 UNK         0.0600 
    219 H219       -7.3762  -23.9938  -49.1936 H         1 UNK         0.0600 
    220 H220       -8.1478  -22.4126  -50.2021 H         1 UNK         0.3000 
    221 H221       -8.4533  -19.6509  -50.6070 H         1 UNK         0.0600 
    222 H222      -10.1527  -21.9965  -51.6075 H         1 UNK         0.0600 
    223 H223      -10.3191  -21.1805  -50.0521 H         1 UNK         0.0600 
    224 H224      -10.6782  -20.3182  -51.5392 H         1 UNK         0.0600 
    225 H225       -7.3922  -22.1256  -52.8795 H         1 UNK         0.3000 
    226 H226       -7.7854  -20.6962  -55.3230 H         1 UNK         0.0600 
    227 H227       -7.3165  -23.1613  -55.1570 H         1 UNK         0.0600 
    228 H228       -6.1703  -22.3532  -56.2194 H         1 UNK         0.0600 
    229 H229       -5.6864  -22.7958  -54.5879 H         1 UNK         0.0600 
    230 H230       -5.4039  -20.3603  -52.7717 H         1 UNK         0.3000 
    231 H231       -3.8287  -18.3644  -54.3465 H         1 UNK         0.0600 
    232 H232       -3.0032  -20.2748  -52.1032 H         1 UNK         0.0600 
    233 H233       -2.4640  -20.3117  -53.7731 H         1 UNK         0.0600 
    234 H234       -1.9749  -18.9850  -52.7341 H         1 UNK         0.0600 
    235 H235       -6.3807  -18.3394  -52.5119 H         1 UNK         0.3000 
    236 H236       -7.4577  -16.9376  -51.2371 H         1 UNK         0.0600 
    237 H237       -5.1433  -14.9532  -51.4797 H         1 UNK         0.0600 
    238 H238       -6.4223  -15.1605  -52.6770 H         1 UNK         0.0600 
    239 H239       -6.8091  -14.5890  -51.0636 H         1 UNK         0.0600 
    240 H240       -5.2745  -18.7700  -49.9937 H         1 UNK         0.3000 
    241 H241       -5.0170  -17.5424  -47.3095 H         1 UNK         0.0600 
    242 H242       -8.2856  -19.7670  -47.3164 H         1 UNK         0.3800 
    243 H243       -7.6620  -18.9432  -48.7220 H         1 UNK         0.3800 
    244 H244       -3.7658  -19.7210  -46.7850 H         1 UNK         0.0800 
    245 H245       -3.8870  -20.1228  -48.4750 H         1 UNK         0.0800 
    246 H246       -2.3775  -19.6114  -50.0361 H         1 UNK         0.0800 
    247 H247       -1.8271  -17.9845  -50.3320 H         1 UNK         0.0800 
@<TRIPOS>BOND
     1    1    2 1    
     2    1  127 1    
     3    1  128 1    
     4    1  129 1    
     5    2    3 2    
     6    2    4 am   BACKBONE|DICT|INTERRES
     7    4    5 1    
     8    4  130 1    
     9    5    6 1    
    10    5   65 1    
    11    5  131 1    
    12    6    7 1    
    13    6  132 1    
    14    6  133 1    
    15    7    8 1    
    16    8    9 1    
    17    8  134 1    
    18    8  135 1    
    19    9   10 ar   
    20    9   14 ar   
    21   10   11 ar   
    22   10  136 1    
    23   11   12 ar   
    24   11  126 1    
    25   12   13 ar   
    26   12  137 1    
    27   13   14 ar   
    28   13   15 1    
    29   14  138 1    
    30   15   16 1    
    31   15  139 1    
    32   15  140 1    
    33   16   17 1    
    34   17   18 1    
    35   17  141 1    
    36   17  142 1    
    37   18   19 1    
    38   18   67 1    
    39   18  143 1    
    40   19   20 am   BACKBONE|DICT|INTERRES
    41   19  144 1    
    42   20   21 2    
    43   20   22 1    
    44   22   23 1    
    45   22   24 1    
    46   22  145 1    
    47   23  146 1    
    48   23  147 1    
    49   23  148 1    
    50   24   25 am   BACKBONE|DICT|INTERRES
    51   24  149 1    
    52   25   26 2    
    53   25   27 1    
    54   27   28 1    
    55   27   29 1    
    56   27  150 1    
    57   28  151 1    
    58   28  152 1    
    59   28  153 1    
    60   29   30 am   BACKBONE|DICT|INTERRES
    61   29  154 1    
    62   30   31 2    
    63   30   32 1    
    64   32   33 1    
    65   32   34 1    
    66   32  155 1    
    67   33  156 1    
    68   33  157 1    
    69   33  158 1    
    70   34   35 am   BACKBONE|DICT|INTERRES
    71   34  159 1    
    72   35   36 2    
    73   35   37 1    
    74   37   38 1    
    75   37   39 1    
    76   37  160 1    
    77   38  161 1    
    78   38  162 1    
    79   38  163 1    
    80   39   40 am   BACKBONE|DICT|INTERRES
    81   39  164 1    
    82   40   41 2    
    83   40   42 1    
    84   42   43 1    
    85   42   44 1    
    86   42  165 1    
    87   43  166 1    
    88   43  167 1    
    89   43  168 1    
    90   44   45 am   BACKBONE|DICT|INTERRES
    91   44  169 1    
    92   45   46 2    
    93   45   47 1    
    94   47   48 1    
    95   47   49 1    
    96   47  170 1    
    97   48  171 1    
    98   48  172 1    
    99   48  173 1    
   100   49   50 am   BACKBONE|DICT|INTERRES
   101   49  174 1    
   102   50   51 2    
   103   50   52 1    
   104   52   53 1    
   105   52   54 1    
   106   52  175 1    
   107   53  176 1    
   108   53  177 1    
   109   53  178 1    
   110   54   55 am   BACKBONE|DICT|INTERRES
   111   54  179 1    
   112   55   56 2    
   113   55   57 1    
   114   57   58 1    
   115   57   59 1    
   116   57  180 1    
   117   58  181 1    
   118   58  182 1    
   119   58  183 1    
   120   59   60 am   BACKBONE|DICT|INTERRES
   121   59  184 1    
   122   60   61 2    
   123   60   62 1    
   124   62   63 1    
   125   62   64 1    
   126   62  185 1    
   127   63  186 1    
   128   63  187 1    
   129   63  188 1    
   130   64   65 am   BACKBONE|DICT|INTERRES
   131   64  189 1    
   132   65   66 2    
   133   67   68 2    
   134   67   69 am   BACKBONE|DICT|INTERRES
   135   69   70 1    
   136   69  190 1    
   137   70   71 1    
   138   70   72 1    
   139   70  191 1    
   140   71  192 1    
   141   71  193 1    
   142   71  194 1    
   143   72   73 2    
   144   72   74 am   BACKBONE|DICT|INTERRES
   145   74   75 1    
   146   74  195 1    
   147   75   76 1    
   148   75   77 1    
   149   75  196 1    
   150   76  197 1    
   151   76  198 1    
   152   76  199 1    
   153   77   78 2    
   154   77   79 am   BACKBONE|DICT|INTERRES
   155   79   80 1    
   156   79  200 1    
   157   80   81 1    
   158   80   82 1    
   159   80  201 1    
   160   81  202 1    
   161   81  203 1    
   162   81  204 1    
   163   82   83 2    
   164   82   84 am   BACKBONE|DICT|INTERRES
   165   84   85 1    
   166   84  205 1    
   167   85   86 1    
   168   85   87 1    
   169   85  206 1    
   170   86  207 1    
   171   86  208 1    
   172   86  209 1    
   173   87   88 2    
   174   87   89 am   BACKBONE|DICT|INTERRES
   175   89   90 1    
   176   89  210 1    
   177   90   91 1    
   178   90   92 1    
   179   90  211 1    
   180   91  212 1    
   181   91  213 1    
   182   91  214 1    
   183   92   93 2    
   184   92   94 am   BACKBONE|DICT|INTERRES
   185   94   95 1    
   186   94  215 1    
   187   95   96 1    
   188   95   97 1    
   189   95  216 1    
   190   96  217 1    
   191   96  218 1    
   192   96  219 1    
   193   97   98 2    
   194   97   99 am   BACKBONE|DICT|INTERRES
   195   99  100 1    
   196   99  220 1    
   197  100  101 1    
   198  100  102 1    
   199  100  221 1    
   200  101  222 1    
   201  101  223 1    
   202  101  224 1    
   203  102  103 2    
   204  102  104 am   BACKBONE|DICT|INTERRES
   205  104  105 1    
   206  104  225 1    
   207  105  106 1    
   208  105  107 1    
   209  105  226 1    
   210  106  227 1    
   211  106  228 1    
   212  106  229 1    
   213  107  108 2    
   214  107  109 am   BACKBONE|DICT|INTERRES
   215  109  110 1    
   216  109  230 1    
   217  110  111 1    
   218  110  112 1    
   219  110  231 1    
   220  111  232 1    
   221  111  233 1    
   222  111  234 1    
   223  112  113 2    
   224  112  114 am   BACKBONE|DICT|INTERRES
   225  114  115 1    
   226  114  235 1    
   227  115  116 1    
   228  115  117 1    
   229  115  236 1    
   230  116  237 1    
   231  116  238 1    
   232  116  239 1    
   233  117  118 2    
   234  117  119 am   BACKBONE|DICT|INTERRES
   235  119  120 1    
   236  119  240 1    
   237  120  121 1    
   238  120  124 1    
   239  120  241 1    
   240  121  122 am   BACKBONE|DICT|INTERRES
   241  121  123 2    
   242  122  242 1    
   243  122  243 1    
   244  124  125 1    
   245  124  244 1    
   246  124  245 1    
   247  125  126 1    
   248  126  246 1    
   249  126  247 1    
@<TRIPOS>SUBSTRUCTURE
     1 UNK         1 GROUP             0       ****    0 ROOT    
