@<TRIPOS>MOLECULE
3R540
247   249    1
SMALL
USER_CHARGES


@<TRIPOS>ATOM
      1 CA          3.9393   -9.6464  -51.2038 C.3       0 UNK        -0.1800 
      2 C           3.6659  -10.6392  -50.0836 C.2       0 UNK         0.5000 
      3 O           2.8360  -10.3705  -49.2166 O.2       0 UNK        -0.5000 
      4 N           4.3458  -11.7938  -50.1056 N.am      1 UNK        -0.5000 
      5 CA          4.2426  -12.8698  -49.1062 C.3       1 UNK         0.1400 
      6 C6          5.2918  -13.9766  -49.3820 C.3       23 UNK        -0.0398 
      7 S7          5.8649  -14.8184  -47.8700 S.3       23 UNK        -0.2404 
      8 C8          6.5413  -16.3612  -48.5624 C.3       23 UNK        -0.0205 
      9 C9          5.4696  -17.4314  -48.7003 C.ar      23 UNK        -0.0193 
     10 C10         4.7528  -17.5764  -49.8920 C.ar      23 UNK        -0.1150 
     11 C11         3.7515  -18.5457  -50.0034 C.ar      23 UNK        -0.0193 
     12 C12         3.4873  -19.3918  -48.9232 C.ar      23 UNK        -0.1150 
     13 C13         4.2056  -19.2623  -47.7317 C.ar      23 UNK        -0.0193 
     14 C14         5.1934  -18.2805  -47.6250 C.ar      23 UNK        -0.1150 
     15 C15         3.8864  -20.1543  -46.5459 C.3       23 UNK        -0.0205 
     16 S16         4.8470  -21.6861  -46.5776 S.3       23 UNK        -0.2404 
     17 C17         4.2126  -22.4586  -45.0464 C.3       23 UNK        -0.0398 
     18 CA          2.9718  -23.3992  -45.1436 C.3       11 UNK         0.1400 
     19 N           1.7484  -22.7962  -44.5949 N.am      11 UNK        -0.5000 
     20 C           0.7819  -23.5234  -44.0120 C.2       10 UNK         0.5000 
     21 O           0.8171  -24.7503  -43.9084 O.2       10 UNK        -0.5000 
     22 CA         -0.4327  -22.7681  -43.4487 C.3       10 UNK         0.1400 
     23 CB         -0.0753  -22.0639  -42.1307 C.3       10 UNK        -0.1800 
     24 N          -1.0203  -21.8113  -44.3843 N.am      10 UNK        -0.5000 
     25 C          -1.5583  -22.1333  -45.5701 C.2       9 UNK         0.5000 
     26 O          -1.5493  -23.2681  -46.0470 O.2       9 UNK        -0.5000 
     27 CA         -2.2207  -20.9901  -46.3556 C.3       9 UNK         0.1400 
     28 CB         -3.5842  -20.6582  -45.7296 C.3       9 UNK        -0.1800 
     29 N          -1.3939  -19.7855  -46.4015 N.am      9 UNK        -0.5000 
     30 C          -0.1745  -19.7133  -46.9548 C.2       8 UNK         0.5000 
     31 O           0.3759  -20.6531  -47.5277 O.2       8 UNK        -0.5000 
     32 CA          0.6003  -18.3984  -46.7538 C.3       8 UNK         0.1400 
     33 CB          0.1161  -17.2900  -47.6964 C.3       8 UNK        -0.1800 
     34 N           0.5588  -17.9334  -45.3705 N.am      8 UNK        -0.5000 
     35 C           0.9949  -18.6182  -44.3029 C.2       7 UNK         0.5000 
     36 O           1.5297  -19.7279  -44.3559 O.2       7 UNK        -0.5000 
     37 CA          0.7466  -17.9606  -42.9364 C.3       7 UNK         0.1400 
     38 CB          1.8212  -16.9051  -42.6338 C.3       7 UNK        -0.1800 
     39 N          -0.5799  -17.3465  -42.8684 N.am      7 UNK        -0.5000 
     40 C          -1.7262  -18.0365  -42.7934 C.2       6 UNK         0.5000 
     41 O          -1.7825  -19.2651  -42.7376 O.2       6 UNK        -0.5000 
     42 CA         -3.0284  -17.2141  -42.8181 C.3       6 UNK         0.1400 
     43 CB         -3.3144  -16.6033  -41.4379 C.3       6 UNK        -0.1800 
     44 N          -3.0106  -16.1528  -43.8271 N.am      6 UNK        -0.5000 
     45 C          -2.9855  -16.3776  -45.1479 C.2       5 UNK         0.5000 
     46 O          -2.9877  -17.5011  -45.6451 O.2       5 UNK        -0.5000 
     47 CA         -2.9125  -15.1480  -46.0713 C.3       5 UNK         0.1400 
     48 CB         -4.3189  -14.6033  -46.3602 C.3       5 UNK        -0.1800 
     49 N          -2.0617  -14.0564  -45.5885 N.am      5 UNK        -0.5000 
     50 C          -0.7798  -14.1532  -45.2081 C.2       4 UNK         0.5000 
     51 O          -0.1901  -15.2216  -45.0476 O.2       4 UNK        -0.5000 
     52 CA         -0.0282  -12.8204  -45.0283 C.3       4 UNK         0.1400 
     53 CB          1.4008  -13.0108  -44.4886 C.3       4 UNK        -0.1800 
     54 N           0.0387  -12.1260  -46.3129 N.am      4 UNK        -0.5000 
     55 C          -0.9363  -11.3621  -46.8258 C.2       3 UNK         0.5000 
     56 O          -1.9618  -11.0693  -46.2091 O.2       3 UNK        -0.5000 
     57 CA         -0.7692  -10.8909  -48.2827 C.3       3 UNK         0.1400 
     58 CB         -0.1813   -9.4731  -48.3261 C.3       3 UNK        -0.1800 
     59 N           0.0603  -11.7968  -49.0827 N.am      3 UNK        -0.5000 
     60 C          -0.3148  -13.0334  -49.4505 C.2       2 UNK         0.5000 
     61 O          -1.4182  -13.5112  -49.1870 O.2       2 UNK        -0.5000 
     62 CA          0.6947  -13.8892  -50.2432 C.3       2 UNK         0.1400 
     63 CB          0.3241  -13.8993  -51.7340 C.3       2 UNK        -0.1800 
     64 N           2.0866  -13.4562  -50.1197 N.am      2 UNK        -0.5000 
     65 C           2.8137  -13.4537  -48.9934 C.2       1 UNK         0.5000 
     66 O           2.3817  -13.8253  -47.9023 O.2       1 UNK        -0.5000 
     67 C           2.7292  -24.0690  -46.5168 C.2       11 UNK         0.5000 
     68 O           3.4087  -25.0497  -46.8258 O.2       11 UNK        -0.5000 
     69 N           1.7577  -23.5691  -47.3002 N.am      12 UNK        -0.5000 
     70 CA          1.3284  -24.1959  -48.5541 C.3       12 UNK         0.1400 
     71 CB          0.4650  -23.2194  -49.3664 C.3       12 UNK        -0.1800 
     72 C           0.5689  -25.5126  -48.3109 C.2       12 UNK         0.5000 
     73 O           0.7880  -26.4824  -49.0382 O.2       12 UNK        -0.5000 
     74 N          -0.2963  -25.5160  -47.2858 N.am      13 UNK        -0.5000 
     75 CA         -1.1224  -26.6092  -46.7654 C.3       13 UNK         0.1400 
     76 CB         -0.2576  -27.7811  -46.2620 C.3       13 UNK        -0.1800 
     77 C          -2.2175  -27.0811  -47.7391 C.2       13 UNK         0.5000 
     78 O          -3.4019  -26.9892  -47.4120 O.2       13 UNK        -0.5000 
     79 N          -1.8105  -27.5523  -48.9245 N.am      14 UNK        -0.5000 
     80 CA         -2.6785  -28.0801  -49.9806 C.3       14 UNK         0.1400 
     81 CB         -1.8052  -28.7574  -51.0477 C.3       14 UNK        -0.1800 
     82 C          -3.5891  -27.0163  -50.6236 C.2       14 UNK         0.5000 
     83 O          -4.6488  -27.3619  -51.1473 O.2       14 UNK        -0.5000 
     84 N          -3.1685  -25.7452  -50.5610 N.am      15 UNK        -0.5000 
     85 CA         -3.9372  -24.5858  -51.0179 C.3       15 UNK         0.1400 
     86 CB         -2.9932  -23.3775  -51.1017 C.3       15 UNK        -0.1800 
     87 C          -5.1453  -24.2694  -50.1109 C.2       15 UNK         0.5000 
     88 O          -6.1240  -23.6884  -50.5878 O.2       15 UNK        -0.5000 
     89 N          -5.0522  -24.6701  -48.8302 N.am      16 UNK        -0.5000 
     90 CA         -6.0472  -24.5096  -47.7662 C.3       16 UNK         0.1400 
     91 CB         -7.2303  -25.4739  -48.0158 C.3       16 UNK        -0.1800 
     92 C          -6.4851  -23.0404  -47.5666 C.2       16 UNK         0.5000 
     93 O          -5.7252  -22.1194  -47.8789 O.2       16 UNK        -0.5000 
     94 N          -7.7060  -22.8402  -47.0521 N.am      17 UNK        -0.5000 
     95 CA         -8.3497  -21.5282  -46.9653 C.3       17 UNK         0.1400 
     96 CB         -9.4793  -21.5950  -45.9251 C.3       17 UNK        -0.1800 
     97 C          -8.8993  -21.0532  -48.3279 C.2       17 UNK         0.5000 
     98 O          -9.0785  -19.8506  -48.5228 O.2       17 UNK        -0.5000 
     99 N          -9.1659  -22.0034  -49.2373 N.am      18 UNK        -0.5000 
    100 CA        -9.7607  -21.7819  -50.5568 C.3       18 UNK         0.1400 
    101 CB       -10.0852  -23.1428  -51.1923 C.3       18 UNK        -0.1800 
    102 C         -8.8803  -20.9433  -51.5008 C.2       18 UNK         0.5000 
    103 O         -9.4096  -20.1184  -52.2474 O.2       18 UNK        -0.5000 
    104 N         -7.5617  -21.1583  -51.4392 N.am      19 UNK        -0.5000 
    105 CA        -6.5559  -20.4427  -52.2195 C.3       19 UNK         0.1400 
    106 CB        -6.0444  -21.3573  -53.3480 C.3       19 UNK        -0.1800 
    107 C         -5.4393  -19.9476  -51.2866 C.2       19 UNK         0.5000 
    108 O         -4.2599  -20.0932  -51.6085 O.2       19 UNK        -0.5000 
    109 N         -5.8359  -19.3749  -50.1392 N.am      20 UNK        -0.5000 
    110 CA        -4.9620  -18.9471  -49.0411 C.3       20 UNK         0.1400 
    111 CB        -5.8115  -18.2517  -47.9659 C.3       20 UNK        -0.1800 
    112 C         -3.7909  -18.0400  -49.4585 C.2       20 UNK         0.5000 
    113 O         -2.6722  -18.2354  -48.9882 O.2       20 UNK        -0.5000 
    114 N         -4.0528  -17.0994  -50.3749 N.am      21 UNK        -0.5000 
    115 CA        -3.0675  -16.1805  -50.9450 C.3       21 UNK         0.1400 
    116 CB        -3.8063  -14.9262  -51.4488 C.3       21 UNK        -0.1800 
    117 C         -2.1988  -16.8501  -52.0363 C.2       21 UNK         0.5000 
    118 O         -2.1314  -16.3499  -53.1611 O.2       21 UNK        -0.5000 
    119 N         -1.5449  -17.9636  -51.6787 N.am      22 UNK        -0.5000 
    120 CA        -0.5978  -18.7321  -52.5096 C.3       22 UNK         0.1400 
    121 C         -1.2273  -19.3772  -53.7839 C.2       22 UNK         0.5000 
    122 N         -2.4866  -19.7910  -53.7552 N.am      22 UNK        -0.7600 
    123 O         -0.5699  -19.5293  -54.8109 O.2       22 UNK        -0.5000 
    124 C124        0.7069  -17.9415  -52.8205 C.3       23 UNK        -0.0398 
    125 S125        1.6002  -17.4406  -51.3115 S.3       23 UNK        -0.2404 
    126 C126        2.9425  -18.6660  -51.2828 C.3       23 UNK        -0.0205 
    127 H127        4.6856  -10.0205  -51.9050 H         1 UNK         0.0600 
    128 H128        4.3024   -8.7058  -50.7897 H         1 UNK         0.0600 
    129 H129        3.0224   -9.4448  -51.7574 H         1 UNK         0.0600 
    130 H130        5.0089  -11.9509  -50.8514 H         1 UNK         0.3000 
    131 H131        4.4727  -12.4063  -48.1442 H         1 UNK         0.0600 
    132 H132        4.9158  -14.7015  -50.1045 H         1 UNK         0.0800 
    133 H133        6.1838  -13.5445  -49.8380 H         1 UNK         0.0800 
    134 H134        7.3333  -16.7212  -47.9040 H         1 UNK         0.0800 
    135 H135        7.0166  -16.1658  -49.5250 H         1 UNK         0.0800 
    136 H136        4.9591  -16.9266  -50.7303 H         1 UNK         0.1150 
    137 H137        2.7102  -20.1400  -49.0011 H         1 UNK         0.1150 
    138 H138        5.7421  -18.1708  -46.7000 H         1 UNK         0.1150 
    139 H139        4.0672  -19.6184  -45.6122 H         1 UNK         0.0800 
    140 H140        2.8324  -20.4266  -46.5516 H         1 UNK         0.0800 
    141 H141        5.0489  -23.0417  -44.6569 H         1 UNK         0.0800 
    142 H142        4.0501  -21.6863  -44.2924 H         1 UNK         0.0800 
    143 H143        3.2149  -24.2322  -44.4790 H         1 UNK         0.0600 
    144 H144        1.6560  -21.7855  -44.6376 H         1 UNK         0.3000 
    145 H145       -1.2012  -23.5119  -43.2274 H         1 UNK         0.0600 
    146 H146       -0.9608  -21.6380  -41.6592 H         1 UNK         0.0600 
    147 H147        0.3633  -22.7646  -41.4191 H         1 UNK         0.0600 
    148 H148        0.6435  -21.2590  -42.2835 H         1 UNK         0.0600 
    149 H149       -1.0875  -20.8520  -44.0644 H         1 UNK         0.3000 
    150 H150       -2.3822  -21.3283  -47.3814 H         1 UNK         0.0600 
    151 H151       -4.2153  -21.5455  -45.6703 H         1 UNK         0.0600 
    152 H152       -4.1209  -19.9187  -46.3191 H         1 UNK         0.0600 
    153 H153       -3.4806  -20.2611  -44.7194 H         1 UNK         0.0600 
    154 H154       -1.8025  -18.9442  -46.0025 H         1 UNK         0.3000 
    155 H155        1.6430  -18.5795  -46.9965 H         1 UNK         0.0600 
    156 H156       -0.9009  -16.9866  -47.4613 H         1 UNK         0.0600 
    157 H157        0.7541  -16.4077  -47.6331 H         1 UNK         0.0600 
    158 H158        0.1244  -17.6286  -48.7323 H         1 UNK         0.0600 
    159 H159        0.1691  -17.0049  -45.2201 H         1 UNK         0.3000 
    160 H160        0.8082  -18.7373  -42.1714 H         1 UNK         0.0600 
    161 H161        2.8171  -17.3498  -42.6491 H         1 UNK         0.0600 
    162 H162        1.8128  -16.0965  -43.3656 H         1 UNK         0.0600 
    163 H163        1.6760  -16.4659  -41.6468 H         1 UNK         0.0600 
    164 H164       -0.6230  -16.3460  -43.0014 H         1 UNK         0.3000 
    165 H165       -3.8450  -17.8973  -43.0620 H         1 UNK         0.0600 
    166 H166       -4.2783  -16.0940  -41.4247 H         1 UNK         0.0600 
    167 H167       -3.3458  -17.3763  -40.6688 H         1 UNK         0.0600 
    168 H168       -2.5492  -15.8822  -41.1478 H         1 UNK         0.0600 
    169 H169       -2.9948  -15.1991  -43.4974 H         1 UNK         0.3000 
    170 H170       -2.4925  -15.4773  -47.0225 H         1 UNK         0.0600 
    171 H171       -4.9704  -15.3872  -46.7489 H         1 UNK         0.0600 
    172 H172       -4.7873  -14.1999  -45.4617 H         1 UNK         0.0600 
    173 H173       -4.2868  -13.8109  -47.1086 H         1 UNK         0.0600 
    174 H174       -2.4320  -13.1210  -45.7080 H         1 UNK         0.3000 
    175 H175       -0.5820  -12.2155  -44.3072 H         1 UNK         0.0600 
    176 H176        2.0086  -13.6210  -45.1582 H         1 UNK         0.0600 
    177 H177        1.9045  -12.0526  -44.3604 H         1 UNK         0.0600 
    178 H178        1.3876  -13.5040  -43.5160 H         1 UNK         0.0600 
    179 H179        0.8146  -12.3801  -46.9114 H         1 UNK         0.3000 
    180 H180       -1.7627  -10.8582  -48.7351 H         1 UNK         0.0600 
    181 H181        0.7850   -9.4224  -47.8234 H         1 UNK         0.0600 
    182 H182       -0.8437   -8.7632  -47.8291 H         1 UNK         0.0600 
    183 H183       -0.0463   -9.1297  -49.3519 H         1 UNK         0.0600 
    184 H184        0.9929  -11.4714  -49.3106 H         1 UNK         0.3000 
    185 H185        0.6251  -14.9092  -49.8600 H         1 UNK         0.0600 
    186 H186        0.9699  -14.5712  -52.2994 H         1 UNK         0.0600 
    187 H187       -0.7001  -14.2392  -51.8812 H         1 UNK         0.0600 
    188 H188        0.4043  -12.9051  -52.1750 H         1 UNK         0.0600 
    189 H189        2.5198  -13.1039  -50.9605 H         1 UNK         0.3000 
    190 H190        1.2498  -22.7449  -47.0040 H         1 UNK         0.3000 
    191 H191        2.2179  -24.4270  -49.1441 H         1 UNK         0.0600 
    192 H192       -0.4328  -22.9250  -48.8214 H         1 UNK         0.0600 
    193 H193        0.1465  -23.6685  -50.3079 H         1 UNK         0.0600 
    194 H194        1.0204  -22.3139  -49.6118 H         1 UNK         0.0600 
    195 H195       -0.4544  -24.6325  -46.8070 H         1 UNK         0.3000 
    196 H196       -1.6358  -26.1934  -45.8966 H         1 UNK         0.0600 
    197 H197       -0.8777  -28.5510  -45.8013 H         1 UNK         0.0600 
    198 H198        0.4551  -27.4435  -45.5089 H         1 UNK         0.0600 
    199 H199        0.3059  -28.2551  -47.0660 H         1 UNK         0.0600 
    200 H200       -0.8134  -27.5109  -49.1220 H         1 UNK         0.3000 
    201 H201       -3.3262  -28.8380  -49.5349 H         1 UNK         0.0600 
    202 H202       -1.2180  -29.5699  -50.6191 H         1 UNK         0.0600 
    203 H203       -1.1139  -28.0504  -51.5085 H         1 UNK         0.0600 
    204 H204       -2.4181  -29.1848  -51.8425 H         1 UNK         0.0600 
    205 H205       -2.2772  -25.5613  -50.1254 H         1 UNK         0.3000 
    206 H206       -4.3169  -24.7968  -52.0202 H         1 UNK         0.0600 
    207 H207       -2.1236  -23.5918  -51.7233 H         1 UNK         0.0600 
    208 H208       -3.5020  -22.5258  -51.5488 H         1 UNK         0.0600 
    209 H209       -2.6397  -23.0691  -50.1166 H         1 UNK         0.0600 
    210 H210       -4.2128  -25.1613  -48.5518 H         1 UNK         0.3000 
    211 H211       -5.5538  -24.8121  -46.8404 H         1 UNK         0.0600 
    212 H212       -7.8254  -25.1716  -48.8798 H         1 UNK         0.0600 
    213 H213       -7.8946  -25.5310  -47.1523 H         1 UNK         0.0600 
    214 H214       -6.8721  -26.4870  -48.2020 H         1 UNK         0.0600 
    215 H215       -8.2654  -23.6394  -46.7853 H         1 UNK         0.3000 
    216 H216       -7.6160  -20.7963  -46.6213 H         1 UNK         0.0600 
    217 H217       -9.9640  -20.6240  -45.8135 H         1 UNK         0.0600 
    218 H218       -9.0962  -21.8805  -44.9442 H         1 UNK         0.0600 
    219 H219      -10.2489  -22.3150  -46.2089 H         1 UNK         0.0600 
    220 H220       -8.9629  -22.9610  -48.9941 H         1 UNK         0.3000 
    221 H221      -10.6979  -21.2404  -50.4119 H         1 UNK         0.0600 
    222 H222       -9.1867  -23.7473  -51.3274 H         1 UNK         0.0600 
    223 H223      -10.7832  -23.7108  -50.5764 H         1 UNK         0.0600 
    224 H224      -10.5469  -23.0165  -52.1728 H         1 UNK         0.0600 
    225 H225       -7.2048  -21.8819  -50.8218 H         1 UNK         0.3000 
    226 H226       -6.9872  -19.5498  -52.6764 H         1 UNK         0.0600 
    227 H227       -6.8617  -21.6778  -53.9940 H         1 UNK         0.0600 
    228 H228       -5.3200  -20.8391  -53.9769 H         1 UNK         0.0600 
    229 H229       -5.5614  -22.2515  -52.9530 H         1 UNK         0.0600 
    230 H230       -6.8291  -19.3137  -49.9635 H         1 UNK         0.3000 
    231 H231       -4.5265  -19.8510  -48.6131 H         1 UNK         0.0600 
    232 H232       -5.1931  -17.9063  -47.1376 H         1 UNK         0.0600 
    233 H233       -6.5539  -18.9306  -47.5504 H         1 UNK         0.0600 
    234 H234       -6.3368  -17.3836  -48.3658 H         1 UNK         0.0600 
    235 H235       -4.9885  -17.0453  -50.7490 H         1 UNK         0.3000 
    236 H236       -2.3873  -15.8638  -50.1509 H         1 UNK         0.0600 
    237 H237       -4.3594  -14.4462  -50.6405 H         1 UNK         0.0600 
    238 H238       -3.1073  -14.1859  -51.8394 H         1 UNK         0.0600 
    239 H239       -4.5119  -15.1665  -52.2455 H         1 UNK         0.0600 
    240 H240       -1.6972  -18.3086  -50.7361 H         1 UNK         0.3000 
    241 H241       -0.3077  -19.5871  -51.8973 H         1 UNK         0.0600 
    242 H242       -2.8798  -20.2098  -54.5817 H         1 UNK         0.3800 
    243 H243       -3.0416  -19.7501  -52.9015 H         1 UNK         0.3800 
    244 H244        1.3828  -18.5348  -53.4387 H         1 UNK         0.0800 
    245 H245        0.4823  -17.0464  -53.4022 H         1 UNK         0.0800 
    246 H246        2.5223  -19.6692  -51.3711 H         1 UNK         0.0800 
    247 H247        3.5906  -18.5203  -52.1484 H         1 UNK         0.0800 
@<TRIPOS>BOND
     1    1    2 1    
     2    1  127 1    
     3    1  128 1    
     4    1  129 1    
     5    2    3 2    
     6    2    4 am   BACKBONE|DICT|INTERRES
     7    4    5 1    
     8    4  130 1    
     9    5    6 1    
    10    5   65 1    
    11    5  131 1    
    12    6    7 1    
    13    6  132 1    
    14    6  133 1    
    15    7    8 1    
    16    8    9 1    
    17    8  134 1    
    18    8  135 1    
    19    9   10 ar   
    20    9   14 ar   
    21   10   11 ar   
    22   10  136 1    
    23   11   12 ar   
    24   11  126 1    
    25   12   13 ar   
    26   12  137 1    
    27   13   14 ar   
    28   13   15 1    
    29   14  138 1    
    30   15   16 1    
    31   15  139 1    
    32   15  140 1    
    33   16   17 1    
    34   17   18 1    
    35   17  141 1    
    36   17  142 1    
    37   18   19 1    
    38   18   67 1    
    39   18  143 1    
    40   19   20 am   BACKBONE|DICT|INTERRES
    41   19  144 1    
    42   20   21 2    
    43   20   22 1    
    44   22   23 1    
    45   22   24 1    
    46   22  145 1    
    47   23  146 1    
    48   23  147 1    
    49   23  148 1    
    50   24   25 am   BACKBONE|DICT|INTERRES
    51   24  149 1    
    52   25   26 2    
    53   25   27 1    
    54   27   28 1    
    55   27   29 1    
    56   27  150 1    
    57   28  151 1    
    58   28  152 1    
    59   28  153 1    
    60   29   30 am   BACKBONE|DICT|INTERRES
    61   29  154 1    
    62   30   31 2    
    63   30   32 1    
    64   32   33 1    
    65   32   34 1    
    66   32  155 1    
    67   33  156 1    
    68   33  157 1    
    69   33  158 1    
    70   34   35 am   BACKBONE|DICT|INTERRES
    71   34  159 1    
    72   35   36 2    
    73   35   37 1    
    74   37   38 1    
    75   37   39 1    
    76   37  160 1    
    77   38  161 1    
    78   38  162 1    
    79   38  163 1    
    80   39   40 am   BACKBONE|DICT|INTERRES
    81   39  164 1    
    82   40   41 2    
    83   40   42 1    
    84   42   43 1    
    85   42   44 1    
    86   42  165 1    
    87   43  166 1    
    88   43  167 1    
    89   43  168 1    
    90   44   45 am   BACKBONE|DICT|INTERRES
    91   44  169 1    
    92   45   46 2    
    93   45   47 1    
    94   47   48 1    
    95   47   49 1    
    96   47  170 1    
    97   48  171 1    
    98   48  172 1    
    99   48  173 1    
   100   49   50 am   BACKBONE|DICT|INTERRES
   101   49  174 1    
   102   50   51 2    
   103   50   52 1    
   104   52   53 1    
   105   52   54 1    
   106   52  175 1    
   107   53  176 1    
   108   53  177 1    
   109   53  178 1    
   110   54   55 am   BACKBONE|DICT|INTERRES
   111   54  179 1    
   112   55   56 2    
   113   55   57 1    
   114   57   58 1    
   115   57   59 1    
   116   57  180 1    
   117   58  181 1    
   118   58  182 1    
   119   58  183 1    
   120   59   60 am   BACKBONE|DICT|INTERRES
   121   59  184 1    
   122   60   61 2    
   123   60   62 1    
   124   62   63 1    
   125   62   64 1    
   126   62  185 1    
   127   63  186 1    
   128   63  187 1    
   129   63  188 1    
   130   64   65 am   BACKBONE|DICT|INTERRES
   131   64  189 1    
   132   65   66 2    
   133   67   68 2    
   134   67   69 am   BACKBONE|DICT|INTERRES
   135   69   70 1    
   136   69  190 1    
   137   70   71 1    
   138   70   72 1    
   139   70  191 1    
   140   71  192 1    
   141   71  193 1    
   142   71  194 1    
   143   72   73 2    
   144   72   74 am   BACKBONE|DICT|INTERRES
   145   74   75 1    
   146   74  195 1    
   147   75   76 1    
   148   75   77 1    
   149   75  196 1    
   150   76  197 1    
   151   76  198 1    
   152   76  199 1    
   153   77   78 2    
   154   77   79 am   BACKBONE|DICT|INTERRES
   155   79   80 1    
   156   79  200 1    
   157   80   81 1    
   158   80   82 1    
   159   80  201 1    
   160   81  202 1    
   161   81  203 1    
   162   81  204 1    
   163   82   83 2    
   164   82   84 am   BACKBONE|DICT|INTERRES
   165   84   85 1    
   166   84  205 1    
   167   85   86 1    
   168   85   87 1    
   169   85  206 1    
   170   86  207 1    
   171   86  208 1    
   172   86  209 1    
   173   87   88 2    
   174   87   89 am   BACKBONE|DICT|INTERRES
   175   89   90 1    
   176   89  210 1    
   177   90   91 1    
   178   90   92 1    
   179   90  211 1    
   180   91  212 1    
   181   91  213 1    
   182   91  214 1    
   183   92   93 2    
   184   92   94 am   BACKBONE|DICT|INTERRES
   185   94   95 1    
   186   94  215 1    
   187   95   96 1    
   188   95   97 1    
   189   95  216 1    
   190   96  217 1    
   191   96  218 1    
   192   96  219 1    
   193   97   98 2    
   194   97   99 am   BACKBONE|DICT|INTERRES
   195   99  100 1    
   196   99  220 1    
   197  100  101 1    
   198  100  102 1    
   199  100  221 1    
   200  101  222 1    
   201  101  223 1    
   202  101  224 1    
   203  102  103 2    
   204  102  104 am   BACKBONE|DICT|INTERRES
   205  104  105 1    
   206  104  225 1    
   207  105  106 1    
   208  105  107 1    
   209  105  226 1    
   210  106  227 1    
   211  106  228 1    
   212  106  229 1    
   213  107  108 2    
   214  107  109 am   BACKBONE|DICT|INTERRES
   215  109  110 1    
   216  109  230 1    
   217  110  111 1    
   218  110  112 1    
   219  110  231 1    
   220  111  232 1    
   221  111  233 1    
   222  111  234 1    
   223  112  113 2    
   224  112  114 am   BACKBONE|DICT|INTERRES
   225  114  115 1    
   226  114  235 1    
   227  115  116 1    
   228  115  117 1    
   229  115  236 1    
   230  116  237 1    
   231  116  238 1    
   232  116  239 1    
   233  117  118 2    
   234  117  119 am   BACKBONE|DICT|INTERRES
   235  119  120 1    
   236  119  240 1    
   237  120  121 1    
   238  120  124 1    
   239  120  241 1    
   240  121  122 am   BACKBONE|DICT|INTERRES
   241  121  123 2    
   242  122  242 1    
   243  122  243 1    
   244  124  125 1    
   245  124  244 1    
   246  124  245 1    
   247  125  126 1    
   248  126  246 1    
   249  126  247 1    
@<TRIPOS>SUBSTRUCTURE
     1 UNK         1 GROUP             0       ****    0 ROOT    
