@<TRIPOS>MOLECULE
3R540
247   249    1
SMALL
USER_CHARGES


@<TRIPOS>ATOM
      1 CA          2.0179   -9.5001  -47.4079 C.3       0 UNK        -0.1800 
      2 C           1.1502  -10.7028  -47.7478 C.2       0 UNK         0.5000 
      3 O          -0.0581  -10.6684  -47.5129 O.2       0 UNK        -0.5000 
      4 N           1.7674  -11.7665  -48.2816 N.am      1 UNK        -0.5000 
      5 CA          1.1541  -13.0416  -48.6801 C.3       1 UNK         0.1400 
      6 C6          0.2921  -12.9418  -49.9675 C.3       23 UNK        -0.0398 
      7 S7          1.3031  -12.4430  -51.4047 S.3       23 UNK        -0.2404 
      8 C8          1.0744  -13.8412  -52.5609 C.3       23 UNK        -0.0205 
      9 C9          1.6126  -15.1954  -52.0933 C.ar      23 UNK        -0.0193 
     10 C10         1.0403  -16.3582  -52.6163 C.ar      23 UNK        -0.1150 
     11 C11         1.4954  -17.6237  -52.2329 C.ar      23 UNK        -0.0193 
     12 C12         2.5534  -17.7224  -51.3243 C.ar      23 UNK        -0.1150 
     13 C13         3.1342  -16.5712  -50.7814 C.ar      23 UNK        -0.0193 
     14 C14         2.6728  -15.3144  -51.1867 C.ar      23 UNK        -0.1150 
     15 C15         4.2625  -16.6684  -49.7579 C.3       23 UNK        -0.0205 
     16 S16         3.8498  -17.6707  -48.2848 S.3       23 UNK        -0.2404 
     17 C17         2.2101  -17.0328  -47.7942 C.3       23 UNK        -0.0398 
     18 CA          1.1081  -18.0841  -48.0660 C.3       11 UNK         0.1400 
     19 N           1.2608  -19.2841  -47.2312 N.am      11 UNK        -0.5000 
     20 C           0.8683  -20.5110  -47.5974 C.2       10 UNK         0.5000 
     21 O           0.2966  -20.7603  -48.6582 O.2       10 UNK        -0.5000 
     22 CA          1.0863  -21.6362  -46.5708 C.3       10 UNK         0.1400 
     23 CB          2.5672  -22.0388  -46.5050 C.3       10 UNK        -0.1800 
     24 N           0.6109  -21.3136  -45.2217 N.am      10 UNK        -0.5000 
     25 C          -0.6362  -20.9429  -44.8948 C.2       9 UNK         0.5000 
     26 O          -1.5061  -20.6940  -45.7294 O.2       9 UNK        -0.5000 
     27 CA         -0.9683  -20.8237  -43.3933 C.3       9 UNK         0.1400 
     28 CB         -2.4474  -21.1404  -43.0911 C.3       9 UNK        -0.1800 
     29 N          -0.0804  -21.6053  -42.5245 N.am      9 UNK        -0.5000 
     30 C           0.0528  -22.9415  -42.4676 C.2       8 UNK         0.5000 
     31 O          -0.5613  -23.7213  -43.1962 O.2       8 UNK        -0.5000 
     32 CA          1.0594  -23.5121  -41.4433 C.3       8 UNK         0.1400 
     33 CB          2.3185  -24.0201  -42.1641 C.3       8 UNK        -0.1800 
     34 N           1.4680  -22.5486  -40.4183 N.am      8 UNK        -0.5000 
     35 C           0.6915  -22.0986  -39.4222 C.2       7 UNK         0.5000 
     36 O          -0.4334  -22.5392  -39.1840 O.2       7 UNK        -0.5000 
     37 CA          1.2493  -20.9377  -38.5677 C.3       7 UNK         0.1400 
     38 CB          1.7904  -21.4692  -37.2315 C.3       7 UNK        -0.1800 
     39 N           2.2965  -20.1366  -39.2191 N.am      7 UNK        -0.5000 
     40 C           2.1625  -19.4684  -40.3735 C.2       6 UNK         0.5000 
     41 O           1.1268  -19.4803  -41.0431 O.2       6 UNK        -0.5000 
     42 CA          3.4113  -18.7230  -40.8883 C.3       6 UNK         0.1400 
     43 CB          4.5665  -19.7053  -41.1519 C.3       6 UNK        -0.1800 
     44 N           3.1321  -18.0075  -42.1333 N.am      6 UNK        -0.5000 
     45 C           2.4522  -16.8592  -42.2285 C.2       5 UNK         0.5000 
     46 O           2.0734  -16.1953  -41.2600 O.2       5 UNK        -0.5000 
     47 CA          2.1076  -16.4120  -43.6613 C.3       5 UNK         0.1400 
     48 CB          0.7238  -16.9421  -44.0734 C.3       5 UNK        -0.1800 
     49 N           2.1244  -14.9616  -43.8281 N.am      5 UNK        -0.5000 
     50 C           3.2063  -14.1783  -43.7226 C.2       4 UNK         0.5000 
     51 O           4.3246  -14.6002  -43.4236 O.2       4 UNK        -0.5000 
     52 CA          3.0299  -12.6788  -44.0351 C.3       4 UNK         0.1400 
     53 CB          3.8491  -12.2911  -45.2779 C.3       4 UNK        -0.1800 
     54 N           1.6316  -12.3164  -44.2767 N.am      4 UNK        -0.5000 
     55 C           0.8273  -11.7084  -43.3940 C.2       3 UNK         0.5000 
     56 O           1.1817  -11.3854  -42.2599 O.2       3 UNK        -0.5000 
     57 CA         -0.6140  -11.3950  -43.8463 C.3       3 UNK         0.1400 
     58 CB         -0.7686   -9.8973  -44.1531 C.3       3 UNK        -0.1800 
     59 N          -1.0262  -12.1655  -45.0211 N.am      3 UNK        -0.5000 
     60 C          -1.4337  -13.4423  -44.9801 C.2       2 UNK         0.5000 
     61 O          -1.5469  -14.0883  -43.9391 O.2       2 UNK        -0.5000 
     62 CA         -1.7193  -14.1306  -46.3295 C.3       2 UNK         0.1400 
     63 CB         -3.2054  -14.0103  -46.6963 C.3       2 UNK        -0.1800 
     64 N          -0.9065  -13.6168  -47.4333 N.am      2 UNK        -0.5000 
     65 C           0.4308  -13.6879  -47.4827 C.2       1 UNK         0.5000 
     66 O           1.1104  -14.1966  -46.5919 O.2       1 UNK        -0.5000 
     67 C          -0.3143  -17.4853  -48.0060 C.2       11 UNK         0.5000 
     68 O          -0.6199  -16.5878  -48.7890 O.2       11 UNK        -0.5000 
     69 N          -1.1829  -18.0368  -47.1453 N.am      12 UNK        -0.5000 
     70 CA         -2.6348  -17.8453  -47.1703 C.3       12 UNK         0.1400 
     71 CB         -3.1593  -17.7253  -45.7275 C.3       12 UNK        -0.1800 
     72 C          -3.3102  -18.9974  -47.9483 C.2       12 UNK         0.5000 
     73 O          -4.4334  -19.3906  -47.6265 O.2       12 UNK        -0.5000 
     74 N          -2.5932  -19.5410  -48.9442 N.am      13 UNK        -0.5000 
     75 CA         -2.9773  -20.6330  -49.8374 C.3       13 UNK         0.1400 
     76 CB         -4.1272  -20.1832  -50.7596 C.3       13 UNK        -0.1800 
     77 C          -3.2740  -21.9503  -49.0981 C.2       13 UNK         0.5000 
     78 O          -4.2126  -22.6551  -49.4646 O.2       13 UNK        -0.5000 
     79 N          -2.4884  -22.2449  -48.0526 N.am      14 UNK        -0.5000 
     80 CA         -2.6487  -23.3702  -47.1219 C.3       14 UNK         0.1400 
     81 CB         -2.3923  -24.7132  -47.8368 C.3       14 UNK        -0.1800 
     82 C          -4.0090  -23.3180  -46.3949 C.2       14 UNK         0.5000 
     83 O          -4.6957  -24.3341  -46.2922 O.2       14 UNK        -0.5000 
     84 N          -4.3956  -22.1075  -45.9630 N.am      15 UNK        -0.5000 
     85 CA         -5.7206  -21.7387  -45.4479 C.3       15 UNK         0.1400 
     86 CB         -5.9949  -22.4066  -44.0841 C.3       15 UNK        -0.1800 
     87 C          -6.8310  -21.9998  -46.4910 C.2       15 UNK         0.5000 
     88 O          -7.8514  -22.6167  -46.1814 O.2       15 UNK        -0.5000 
     89 N          -6.5729  -21.5445  -47.7251 N.am      16 UNK        -0.5000 
     90 CA         -7.3852  -21.6795  -48.9414 C.3       16 UNK         0.1400 
     91 CB         -8.7563  -20.9947  -48.7700 C.3       16 UNK        -0.1800 
     92 C          -7.5197  -23.1129  -49.5053 C.2       16 UNK         0.5000 
     93 O          -8.2289  -23.2948  -50.4963 O.2       16 UNK        -0.5000 
     94 N          -6.8320  -24.1037  -48.9201 N.am      17 UNK        -0.5000 
     95 CA         -6.8448  -25.4964  -49.3779 C.3       17 UNK         0.1400 
     96 CB         -6.3232  -26.4064  -48.2566 C.3       17 UNK        -0.1800 
     97 C          -6.0370  -25.7276  -50.6710 C.2       17 UNK         0.5000 
     98 O          -6.3370  -26.6693  -51.4057 O.2       17 UNK        -0.5000 
     99 N          -5.0378  -24.8748  -50.9285 N.am      18 UNK        -0.5000 
    100 CA        -4.1382  -24.9276  -52.0813 C.3       18 UNK         0.1400 
    101 CB        -2.6871  -25.0393  -51.5805 C.3       18 UNK        -0.1800 
    102 C         -4.3320  -23.7058  -52.9985 C.2       18 UNK         0.5000 
    103 O         -3.4096  -23.3357  -53.7278 O.2       18 UNK        -0.5000 
    104 N         -5.5277  -23.0979  -52.9704 N.am      19 UNK        -0.5000 
    105 CA        -5.8996  -21.9173  -53.7598 C.3       19 UNK         0.1400 
    106 CB        -7.3149  -21.4715  -53.3666 C.3       19 UNK        -0.1800 
    107 C         -5.7865  -22.1113  -55.2834 C.2       19 UNK         0.5000 
    108 O         -5.4883  -21.1504  -55.9919 O.2       19 UNK        -0.5000 
    109 N         -5.9660  -23.3524  -55.7546 N.am      20 UNK        -0.5000 
    110 CA        -5.7775  -23.7477  -57.1517 C.3       20 UNK         0.1400 
    111 CB        -6.3113  -25.1761  -57.3396 C.3       20 UNK        -0.1800 
    112 C         -4.3131  -23.6532  -57.6312 C.2       20 UNK         0.5000 
    113 O         -4.0864  -23.4829  -58.8299 O.2       20 UNK        -0.5000 
    114 N         -3.3549  -23.7666  -56.7009 N.am      21 UNK        -0.5000 
    115 CA        -1.9215  -23.6599  -56.9658 C.3       21 UNK         0.1400 
    116 CB        -1.1768  -24.7331  -56.1545 C.3       21 UNK        -0.1800 
    117 C         -1.3969  -22.2569  -56.6200 C.2       21 UNK         0.5000 
    118 O         -0.6584  -21.6728  -57.4139 O.2       21 UNK        -0.5000 
    119 N         -1.7752  -21.7497  -55.4396 N.am      22 UNK        -0.5000 
    120 CA        -1.3437  -20.4477  -54.9093 C.3       22 UNK         0.1400 
    121 C         -2.0250  -19.2247  -55.5954 C.2       22 UNK         0.5000 
    122 N         -3.2362  -19.3407  -56.1260 N.am      22 UNK        -0.7600 
    123 O         -1.4276  -18.1560  -55.6871 O.2       22 UNK        -0.5000 
    124 C124       -1.4624  -20.4466  -53.3602 C.3       23 UNK        -0.0398 
    125 S125       -0.9396  -18.9318  -52.4778 S.3       23 UNK        -0.2404 
    126 C126        0.8506  -18.8757  -52.8154 C.3       23 UNK        -0.0205 
    127 H127        2.0151   -9.3287  -46.3315 H         1 UNK         0.0600 
    128 H128        1.6299   -8.6073  -47.8981 H         1 UNK         0.0600 
    129 H129        3.0507   -9.6416  -47.7271 H         1 UNK         0.0600 
    130 H130        2.7643  -11.7152  -48.4343 H         1 UNK         0.3000 
    131 H131        1.9866  -13.7106  -48.8965 H         1 UNK         0.0600 
    132 H132       -0.1842  -13.9005  -50.1833 H         1 UNK         0.0800 
    133 H133       -0.5114  -12.2137  -49.8481 H         1 UNK         0.0800 
    134 H134        1.5652  -13.5893  -53.5016 H         1 UNK         0.0800 
    135 H135        0.0094  -13.9238  -52.7844 H         1 UNK         0.0800 
    136 H136        0.2281  -16.2829  -53.3265 H         1 UNK         0.1150 
    137 H137        2.9152  -18.6950  -51.0211 H         1 UNK         0.1150 
    138 H138        3.1453  -14.4271  -50.7925 H         1 UNK         0.1150 
    139 H139        5.1396  -17.1001  -50.2415 H         1 UNK         0.0800 
    140 H140        4.5599  -15.6747  -49.4195 H         1 UNK         0.0800 
    141 H141        2.0139  -16.1106  -48.3400 H         1 UNK         0.0800 
    142 H142        2.2381  -16.7575  -46.7403 H         1 UNK         0.0800 
    143 H143        1.2183  -18.3974  -49.1046 H         1 UNK         0.0600 
    144 H144        1.7233  -19.1664  -46.3425 H         1 UNK         0.3000 
    145 H145        0.5187  -22.5034  -46.9144 H         1 UNK         0.0600 
    146 H146        2.7100  -22.9118  -45.8676 H         1 UNK         0.0600 
    147 H147        2.9467  -22.2959  -47.4949 H         1 UNK         0.0600 
    148 H148        3.1898  -21.2330  -46.1141 H         1 UNK         0.0600 
    149 H149        1.2551  -21.4912  -44.4661 H         1 UNK         0.3000 
    150 H150       -0.8005  -19.7784  -43.1319 H         1 UNK         0.0600 
    151 H151       -3.1144  -20.4502  -43.6074 H         1 UNK         0.0600 
    152 H152       -2.6587  -21.0545  -42.0253 H         1 UNK         0.0600 
    153 H153       -2.7172  -22.1485  -43.4063 H         1 UNK         0.0600 
    154 H154        0.4653  -21.0399  -41.8790 H         1 UNK         0.3000 
    155 H155        0.5793  -24.3591  -40.9490 H         1 UNK         0.0600 
    156 H156        2.8485  -23.2114  -42.6690 H         1 UNK         0.0600 
    157 H157        2.0646  -24.7666  -42.9180 H         1 UNK         0.0600 
    158 H158        3.0104  -24.4906  -41.4652 H         1 UNK         0.0600 
    159 H159        2.3844  -22.1400  -40.5231 H         1 UNK         0.3000 
    160 H160        0.4130  -20.2687  -38.3551 H         1 UNK         0.0600 
    161 H161        2.6526  -22.1210  -37.3781 H         1 UNK         0.0600 
    162 H162        1.0301  -22.0450  -36.7018 H         1 UNK         0.0600 
    163 H163        2.0924  -20.6534  -36.5745 H         1 UNK         0.0600 
    164 H164        3.1809  -20.0903  -38.7336 H         1 UNK         0.3000 
    165 H165        3.7208  -18.0053  -40.1257 H         1 UNK         0.0600 
    166 H166        5.4426  -19.1856  -41.5409 H         1 UNK         0.0600 
    167 H167        4.8789  -20.2114  -40.2379 H         1 UNK         0.0600 
    168 H168        4.2868  -20.4736  -41.8742 H         1 UNK         0.0600 
    169 H169        3.3833  -18.4926  -42.9813 H         1 UNK         0.3000 
    170 H170        2.8535  -16.8245  -44.3438 H         1 UNK         0.0600 
    171 H171       -0.0569  -16.5901  -43.3975 H         1 UNK         0.0600 
    172 H172        0.4564  -16.6214  -45.0797 H         1 UNK         0.0600 
    173 H173        0.7030  -18.0318  -44.0594 H         1 UNK         0.0600 
    174 H174        1.2490  -14.5288  -44.0820 H         1 UNK         0.3000 
    175 H175        3.4243  -12.1213  -43.1832 H         1 UNK         0.0600 
    176 H176        3.5332  -12.8516  -46.1583 H         1 UNK         0.0600 
    177 H177        3.7500  -11.2288  -45.5001 H         1 UNK         0.0600 
    178 H178        4.9104  -12.4914  -45.1263 H         1 UNK         0.0600 
    179 H179        1.2510  -12.6059  -45.1690 H         1 UNK         0.3000 
    180 H180       -1.2787  -11.6378  -43.0144 H         1 UNK         0.0600 
    181 H181       -1.7933   -9.6562  -44.4361 H         1 UNK         0.0600 
    182 H182       -0.1136   -9.5813  -44.9650 H         1 UNK         0.0600 
    183 H183       -0.5224   -9.2920  -43.2798 H         1 UNK         0.0600 
    184 H184       -0.9287  -11.7076  -45.9220 H         1 UNK         0.3000 
    185 H185       -1.4759  -15.1871  -46.2126 H         1 UNK         0.0600 
    186 H186       -3.4286  -14.5361  -47.6245 H         1 UNK         0.0600 
    187 H187       -3.8351  -14.4436  -45.9180 H         1 UNK         0.0600 
    188 H188       -3.5053  -12.9690  -46.8207 H         1 UNK         0.0600 
    189 H189       -1.4014  -13.1394  -48.1716 H         1 UNK         0.3000 
    190 H190       -0.8709  -18.8213  -46.5869 H         1 UNK         0.3000 
    191 H191       -2.8818  -16.9210  -47.6946 H         1 UNK         0.0600 
    192 H192       -4.2157  -17.4550  -45.7196 H         1 UNK         0.0600 
    193 H193       -2.6249  -16.9585  -45.1676 H         1 UNK         0.0600 
    194 H194       -3.0601  -18.6618  -45.1813 H         1 UNK         0.0600 
    195 H195       -1.6637  -19.1781  -49.0993 H         1 UNK         0.3000 
    196 H196       -2.1090  -20.8434  -50.4617 H         1 UNK         0.0600 
    197 H197       -5.0099  -19.8836  -50.1976 H         1 UNK         0.0600 
    198 H198       -3.8290  -19.3364  -51.3772 H         1 UNK         0.0600 
    199 H199       -4.4216  -20.9877  -51.4284 H         1 UNK         0.0600 
    200 H200       -1.7743  -21.5724  -47.8014 H         1 UNK         0.3000 
    201 H201       -1.8844  -23.2622  -46.3524 H         1 UNK         0.0600 
    202 H202       -3.1639  -24.9366  -48.5732 H         1 UNK         0.0600 
    203 H203       -2.3776  -25.5370  -47.1226 H         1 UNK         0.0600 
    204 H204       -1.4306  -24.7098  -48.3495 H         1 UNK         0.0600 
    205 H205       -3.7554  -21.3374  -46.1142 H         1 UNK         0.3000 
    206 H206       -5.6979  -20.6598  -45.2872 H         1 UNK         0.0600 
    207 H207       -5.2097  -22.1762  -43.3652 H         1 UNK         0.0600 
    208 H208       -6.9344  -22.0509  -43.6598 H         1 UNK         0.0600 
    209 H209       -6.0658  -23.4913  -44.1669 H         1 UNK         0.0600 
    210 H210       -5.7038  -21.0351  -47.8490 H         1 UNK         0.3000 
    211 H211       -6.8485  -21.1253  -49.7099 H         1 UNK         0.0600 
    212 H212       -9.2908  -20.9452  -49.7194 H         1 UNK         0.0600 
    213 H213       -8.6441  -19.9720  -48.4103 H         1 UNK         0.0600 
    214 H214       -9.3938  -21.5314  -48.0672 H         1 UNK         0.0600 
    215 H215       -6.2357  -23.8850  -48.1328 H         1 UNK         0.3000 
    216 H216       -7.8804  -25.7768  -49.5813 H         1 UNK         0.0600 
    217 H217       -5.2659  -26.2319  -48.0568 H         1 UNK         0.0600 
    218 H218       -6.4338  -27.4575  -48.5257 H         1 UNK         0.0600 
    219 H219       -6.8719  -26.2476  -47.3280 H         1 UNK         0.0600 
    220 H220       -4.8695  -24.1035  -50.2820 H         1 UNK         0.3000 
    221 H221       -4.3501  -25.8078  -52.6907 H         1 UNK         0.0600 
    222 H222       -2.5628  -25.9008  -50.9244 H         1 UNK         0.0600 
    223 H223       -2.3814  -24.1506  -51.0282 H         1 UNK         0.0600 
    224 H224       -1.9917  -25.1645  -52.4114 H         1 UNK         0.0600 
    225 H225       -6.2315  -23.4637  -52.3444 H         1 UNK         0.3000 
    226 H226       -5.2092  -21.1121  -53.5063 H         1 UNK         0.0600 
    227 H227       -8.0484  -22.2592  -53.5431 H         1 UNK         0.0600 
    228 H228       -7.3625  -21.1994  -52.3121 H         1 UNK         0.0600 
    229 H229       -7.6250  -20.5969  -53.9400 H         1 UNK         0.0600 
    230 H230       -6.2090  -24.0832  -55.1022 H         1 UNK         0.3000 
    231 H231       -6.3707  -23.0757  -57.7756 H         1 UNK         0.0600 
    232 H232       -5.7680  -25.8931  -56.7226 H         1 UNK         0.0600 
    233 H233       -6.2140  -25.4964  -58.3778 H         1 UNK         0.0600 
    234 H234       -7.3680  -25.2403  -57.0793 H         1 UNK         0.0600 
    235 H235       -3.6252  -23.8534  -55.7290 H         1 UNK         0.3000 
    236 H236       -1.7174  -23.8430  -58.0230 H         1 UNK         0.0600 
    237 H237       -1.5032  -25.7341  -56.4365 H         1 UNK         0.0600 
    238 H238       -0.1019  -24.6798  -56.3318 H         1 UNK         0.0600 
    239 H239       -1.3387  -24.6195  -55.0819 H         1 UNK         0.0600 
    240 H240       -2.3771  -22.3053  -54.8368 H         1 UNK         0.3000 
    241 H241       -0.2811  -20.3590  -55.1410 H         1 UNK         0.0600 
    242 H242       -3.6426  -18.5384  -56.5794 H         1 UNK         0.3800 
    243 H243       -3.7798  -20.1946  -56.0677 H         1 UNK         0.3800 
    244 H244       -0.8925  -21.2816  -52.9498 H         1 UNK         0.0800 
    245 H245       -2.4998  -20.6384  -53.0857 H         1 UNK         0.0800 
    246 H246        1.3171  -19.7772  -52.4152 H         1 UNK         0.0800 
    247 H247        1.0226  -18.8800  -53.8919 H         1 UNK         0.0800 
@<TRIPOS>BOND
     1    1    2 1    
     2    1  127 1    
     3    1  128 1    
     4    1  129 1    
     5    2    3 2    
     6    2    4 am   BACKBONE|DICT|INTERRES
     7    4    5 1    
     8    4  130 1    
     9    5    6 1    
    10    5   65 1    
    11    5  131 1    
    12    6    7 1    
    13    6  132 1    
    14    6  133 1    
    15    7    8 1    
    16    8    9 1    
    17    8  134 1    
    18    8  135 1    
    19    9   10 ar   
    20    9   14 ar   
    21   10   11 ar   
    22   10  136 1    
    23   11   12 ar   
    24   11  126 1    
    25   12   13 ar   
    26   12  137 1    
    27   13   14 ar   
    28   13   15 1    
    29   14  138 1    
    30   15   16 1    
    31   15  139 1    
    32   15  140 1    
    33   16   17 1    
    34   17   18 1    
    35   17  141 1    
    36   17  142 1    
    37   18   19 1    
    38   18   67 1    
    39   18  143 1    
    40   19   20 am   BACKBONE|DICT|INTERRES
    41   19  144 1    
    42   20   21 2    
    43   20   22 1    
    44   22   23 1    
    45   22   24 1    
    46   22  145 1    
    47   23  146 1    
    48   23  147 1    
    49   23  148 1    
    50   24   25 am   BACKBONE|DICT|INTERRES
    51   24  149 1    
    52   25   26 2    
    53   25   27 1    
    54   27   28 1    
    55   27   29 1    
    56   27  150 1    
    57   28  151 1    
    58   28  152 1    
    59   28  153 1    
    60   29   30 am   BACKBONE|DICT|INTERRES
    61   29  154 1    
    62   30   31 2    
    63   30   32 1    
    64   32   33 1    
    65   32   34 1    
    66   32  155 1    
    67   33  156 1    
    68   33  157 1    
    69   33  158 1    
    70   34   35 am   BACKBONE|DICT|INTERRES
    71   34  159 1    
    72   35   36 2    
    73   35   37 1    
    74   37   38 1    
    75   37   39 1    
    76   37  160 1    
    77   38  161 1    
    78   38  162 1    
    79   38  163 1    
    80   39   40 am   BACKBONE|DICT|INTERRES
    81   39  164 1    
    82   40   41 2    
    83   40   42 1    
    84   42   43 1    
    85   42   44 1    
    86   42  165 1    
    87   43  166 1    
    88   43  167 1    
    89   43  168 1    
    90   44   45 am   BACKBONE|DICT|INTERRES
    91   44  169 1    
    92   45   46 2    
    93   45   47 1    
    94   47   48 1    
    95   47   49 1    
    96   47  170 1    
    97   48  171 1    
    98   48  172 1    
    99   48  173 1    
   100   49   50 am   BACKBONE|DICT|INTERRES
   101   49  174 1    
   102   50   51 2    
   103   50   52 1    
   104   52   53 1    
   105   52   54 1    
   106   52  175 1    
   107   53  176 1    
   108   53  177 1    
   109   53  178 1    
   110   54   55 am   BACKBONE|DICT|INTERRES
   111   54  179 1    
   112   55   56 2    
   113   55   57 1    
   114   57   58 1    
   115   57   59 1    
   116   57  180 1    
   117   58  181 1    
   118   58  182 1    
   119   58  183 1    
   120   59   60 am   BACKBONE|DICT|INTERRES
   121   59  184 1    
   122   60   61 2    
   123   60   62 1    
   124   62   63 1    
   125   62   64 1    
   126   62  185 1    
   127   63  186 1    
   128   63  187 1    
   129   63  188 1    
   130   64   65 am   BACKBONE|DICT|INTERRES
   131   64  189 1    
   132   65   66 2    
   133   67   68 2    
   134   67   69 am   BACKBONE|DICT|INTERRES
   135   69   70 1    
   136   69  190 1    
   137   70   71 1    
   138   70   72 1    
   139   70  191 1    
   140   71  192 1    
   141   71  193 1    
   142   71  194 1    
   143   72   73 2    
   144   72   74 am   BACKBONE|DICT|INTERRES
   145   74   75 1    
   146   74  195 1    
   147   75   76 1    
   148   75   77 1    
   149   75  196 1    
   150   76  197 1    
   151   76  198 1    
   152   76  199 1    
   153   77   78 2    
   154   77   79 am   BACKBONE|DICT|INTERRES
   155   79   80 1    
   156   79  200 1    
   157   80   81 1    
   158   80   82 1    
   159   80  201 1    
   160   81  202 1    
   161   81  203 1    
   162   81  204 1    
   163   82   83 2    
   164   82   84 am   BACKBONE|DICT|INTERRES
   165   84   85 1    
   166   84  205 1    
   167   85   86 1    
   168   85   87 1    
   169   85  206 1    
   170   86  207 1    
   171   86  208 1    
   172   86  209 1    
   173   87   88 2    
   174   87   89 am   BACKBONE|DICT|INTERRES
   175   89   90 1    
   176   89  210 1    
   177   90   91 1    
   178   90   92 1    
   179   90  211 1    
   180   91  212 1    
   181   91  213 1    
   182   91  214 1    
   183   92   93 2    
   184   92   94 am   BACKBONE|DICT|INTERRES
   185   94   95 1    
   186   94  215 1    
   187   95   96 1    
   188   95   97 1    
   189   95  216 1    
   190   96  217 1    
   191   96  218 1    
   192   96  219 1    
   193   97   98 2    
   194   97   99 am   BACKBONE|DICT|INTERRES
   195   99  100 1    
   196   99  220 1    
   197  100  101 1    
   198  100  102 1    
   199  100  221 1    
   200  101  222 1    
   201  101  223 1    
   202  101  224 1    
   203  102  103 2    
   204  102  104 am   BACKBONE|DICT|INTERRES
   205  104  105 1    
   206  104  225 1    
   207  105  106 1    
   208  105  107 1    
   209  105  226 1    
   210  106  227 1    
   211  106  228 1    
   212  106  229 1    
   213  107  108 2    
   214  107  109 am   BACKBONE|DICT|INTERRES
   215  109  110 1    
   216  109  230 1    
   217  110  111 1    
   218  110  112 1    
   219  110  231 1    
   220  111  232 1    
   221  111  233 1    
   222  111  234 1    
   223  112  113 2    
   224  112  114 am   BACKBONE|DICT|INTERRES
   225  114  115 1    
   226  114  235 1    
   227  115  116 1    
   228  115  117 1    
   229  115  236 1    
   230  116  237 1    
   231  116  238 1    
   232  116  239 1    
   233  117  118 2    
   234  117  119 am   BACKBONE|DICT|INTERRES
   235  119  120 1    
   236  119  240 1    
   237  120  121 1    
   238  120  124 1    
   239  120  241 1    
   240  121  122 am   BACKBONE|DICT|INTERRES
   241  121  123 2    
   242  122  242 1    
   243  122  243 1    
   244  124  125 1    
   245  124  244 1    
   246  124  245 1    
   247  125  126 1    
   248  126  246 1    
   249  126  247 1    
@<TRIPOS>SUBSTRUCTURE
     1 UNK         1 GROUP             0       ****    0 ROOT    
