@<TRIPOS>MOLECULE
3R540
247   249    1
SMALL
USER_CHARGES


@<TRIPOS>ATOM
      1 CA          1.4167  -10.0155  -46.5580 C.3       0 UNK        -0.1800 
      2 C           0.5240  -11.1062  -45.9691 C.2       0 UNK         0.5000 
      3 O          -0.0619  -10.8969  -44.9099 O.2       0 UNK        -0.5000 
      4 N           0.3750  -12.2752  -46.6084 N.am      1 UNK        -0.5000 
      5 CA          1.0292  -12.7128  -47.8503 C.3       1 UNK         0.1400 
      6 C6          0.4207  -14.0291  -48.3886 C.3       23 UNK        -0.0398 
      7 S7         -1.3744  -13.9711  -48.7035 S.3       23 UNK        -0.2404 
      8 C8         -1.8121  -15.7383  -48.5657 C.3       23 UNK        -0.0205 
      9 C9         -1.0792  -16.5935  -49.5906 C.ar      23 UNK        -0.0193 
     10 C10        -1.6215  -16.7959  -50.8620 C.ar      23 UNK        -0.1150 
     11 C11        -0.9517  -17.5822  -51.8096 C.ar      23 UNK        -0.0193 
     12 C12         0.2887  -18.1368  -51.4763 C.ar      23 UNK        -0.1150 
     13 C13         0.8527  -17.9239  -50.2154 C.ar      23 UNK        -0.0193 
     14 C14         0.1522  -17.1706  -49.2718 C.ar      23 UNK        -0.1150 
     15 C15         2.2420  -18.4568  -49.8940 C.3       23 UNK        -0.0205 
     16 S16         2.2159  -20.1758  -49.3037 S.3       23 UNK        -0.2404 
     17 C17         1.6313  -19.9666  -47.5873 C.3       23 UNK        -0.0398 
     18 CA          0.8507  -21.1928  -47.0683 C.3       11 UNK         0.1400 
     19 N           0.7018  -21.1576  -45.6135 N.am      11 UNK        -0.5000 
     20 C           0.2771  -22.1878  -44.8702 C.2       10 UNK         0.5000 
     21 O           0.0105  -23.2979  -45.3297 O.2       10 UNK        -0.5000 
     22 CA          0.0696  -21.9182  -43.3697 C.3       10 UNK         0.1400 
     23 CB          1.4040  -21.9923  -42.6133 C.3       10 UNK        -0.1800 
     24 N          -0.5771  -20.6293  -43.1151 N.am      10 UNK        -0.5000 
     25 C          -1.8151  -20.3142  -43.5232 C.2       9 UNK         0.5000 
     26 O          -2.5549  -21.0954  -44.1190 O.2       9 UNK        -0.5000 
     27 CA         -2.2995  -18.8786  -43.2611 C.3       9 UNK         0.1400 
     28 CB         -2.7881  -18.7272  -41.8131 C.3       9 UNK        -0.1800 
     29 N          -1.2794  -17.8706  -43.5484 N.am      9 UNK        -0.5000 
     30 C          -0.7482  -17.6394  -44.7576 C.2       8 UNK         0.5000 
     31 O          -1.0732  -18.2429  -45.7799 O.2       8 UNK        -0.5000 
     32 CA          0.3793  -16.5933  -44.8254 C.3       8 UNK         0.1400 
     33 CB         -0.1808  -15.1668  -44.7319 C.3       8 UNK        -0.1800 
     34 N           1.3811  -16.7909  -43.7796 N.am      8 UNK        -0.5000 
     35 C           2.1356  -17.8917  -43.6490 C.2       7 UNK         0.5000 
     36 O           2.1085  -18.8413  -44.4326 O.2       7 UNK        -0.5000 
     37 CA          3.0318  -17.9604  -42.4021 C.3       7 UNK         0.1400 
     38 CB          4.3299  -17.1670  -42.6136 C.3       7 UNK        -0.1800 
     39 N           2.3399  -17.4722  -41.2083 N.am      7 UNK        -0.5000 
     40 C           1.3101  -18.1024  -40.6241 C.2       6 UNK         0.5000 
     41 O           0.8560  -19.1774  -41.0134 O.2       6 UNK        -0.5000 
     42 CA          0.6493  -17.3893  -39.4312 C.3       6 UNK         0.1400 
     43 CB          1.4476  -17.6336  -38.1419 C.3       6 UNK        -0.1800 
     44 N           0.5049  -15.9498  -39.6489 N.am      6 UNK        -0.5000 
     45 C          -0.2821  -15.3987  -40.5842 C.2       5 UNK         0.5000 
     46 O          -0.9982  -16.0481  -41.3440 O.2       5 UNK        -0.5000 
     47 CA         -0.2217  -13.8674  -40.7254 C.3       5 UNK         0.1400 
     48 CB         -1.2318  -13.1971  -39.7828 C.3       5 UNK        -0.1800 
     49 N           1.1154  -13.3255  -40.4730 N.am      5 UNK        -0.5000 
     50 C           2.1889  -13.5817  -41.2305 C.2       4 UNK         0.5000 
     51 O           2.1707  -14.3154  -42.2237 O.2       4 UNK        -0.5000 
     52 CA          3.5123  -12.9541  -40.7696 C.3       4 UNK         0.1400 
     53 CB          4.4071  -14.0099  -40.1028 C.3       4 UNK        -0.1800 
     54 N           4.2119  -12.3873  -41.9150 N.am      4 UNK        -0.5000 
     55 C           3.9942  -11.1688  -42.4184 C.2       3 UNK         0.5000 
     56 O           3.2519  -10.3367  -41.8955 O.2       3 UNK        -0.5000 
     57 CA          4.7049  -10.8240  -43.7411 C.3       3 UNK         0.1400 
     58 CB          6.2130  -10.5867  -43.5310 C.3       3 UNK        -0.1800 
     59 N           4.4484  -11.7904  -44.8176 N.am      3 UNK        -0.5000 
     60 C           4.8239  -13.0742  -44.9173 C.2       2 UNK         0.5000 
     61 O           5.5119  -13.6576  -44.0779 O.2       2 UNK        -0.5000 
     62 CA          4.3088  -13.8276  -46.1567 C.3       2 UNK         0.1400 
     63 CB          4.3080  -15.3559  -45.9681 C.3       2 UNK        -0.1800 
     64 N           2.9488  -13.3991  -46.4896 N.am      2 UNK        -0.5000 
     65 C           2.5479  -12.9298  -47.6777 C.2       1 UNK         0.5000 
     66 O           3.3071  -12.6876  -48.6153 O.2       1 UNK        -0.5000 
     67 C          -0.5087  -21.3759  -47.7777 C.2       11 UNK         0.5000 
     68 O          -0.6110  -22.2184  -48.6677 O.2       11 UNK        -0.5000 
     69 N          -1.5410  -20.6417  -47.3381 N.am      12 UNK        -0.5000 
     70 CA         -2.9136  -20.7717  -47.8333 C.3       12 UNK         0.1400 
     71 CB         -3.7812  -19.6560  -47.2334 C.3       12 UNK        -0.1800 
     72 C          -3.5240  -22.1617  -47.5585 C.2       12 UNK         0.5000 
     73 O          -4.1977  -22.7143  -48.4281 O.2       12 UNK        -0.5000 
     74 N          -3.2472  -22.7248  -46.3743 N.am      13 UNK        -0.5000 
     75 CA         -3.6402  -24.0815  -45.9922 C.3       13 UNK         0.1400 
     76 CB         -3.3797  -24.2955  -44.4937 C.3       13 UNK        -0.1800 
     77 C          -2.9373  -25.1643  -46.8323 C.2       13 UNK         0.5000 
     78 O          -3.5805  -26.1435  -47.2090 O.2       13 UNK        -0.5000 
     79 N          -1.6459  -24.9615  -47.1304 N.am      14 UNK        -0.5000 
     80 CA         -0.8481  -25.8296  -47.9987 C.3       14 UNK         0.1400 
     81 CB          0.6408  -25.4830  -47.8453 C.3       14 UNK        -0.1800 
     82 C          -1.2805  -25.7530  -49.4756 C.2       14 UNK         0.5000 
     83 O          -1.3070  -26.7818  -50.1521 O.2       14 UNK        -0.5000 
     84 N          -1.6260  -24.5443  -49.9415 N.am      15 UNK        -0.5000 
     85 CA         -2.1644  -24.2722  -51.2759 C.3       15 UNK         0.1400 
     86 CB         -2.1892  -22.7560  -51.5091 C.3       15 UNK        -0.1800 
     87 C          -3.5523  -24.9015  -51.5108 C.2       15 UNK         0.5000 
     88 O          -3.8460  -25.3100  -52.6370 O.2       15 UNK        -0.5000 
     89 N          -4.3471  -25.0066  -50.4343 N.am      16 UNK        -0.5000 
     90 CA         -5.5485  -25.8342  -50.2742 C.3       16 UNK         0.1400 
     91 CB         -5.1453  -27.3232  -50.2424 C.3       16 UNK        -0.1800 
     92 C          -6.6744  -25.5601  -51.2940 C.2       16 UNK         0.5000 
     93 O          -7.4256  -26.4750  -51.6365 O.2       16 UNK        -0.5000 
     94 N          -6.7596  -24.3130  -51.7755 N.am      17 UNK        -0.5000 
     95 CA         -7.6498  -23.8127  -52.8281 C.3       17 UNK         0.1400 
     96 CB         -9.1330  -23.9478  -52.4263 C.3       17 UNK        -0.1800 
     97 C          -7.3546  -24.3969  -54.2265 C.2       17 UNK         0.5000 
     98 O          -8.1665  -24.2168  -55.1353 O.2       17 UNK        -0.5000 
     99 N          -6.2013  -25.0577  -54.3918 N.am      18 UNK        -0.5000 
    100 CA        -5.7441  -25.6401  -55.6485 C.3       18 UNK         0.1400 
    101 CB        -5.1892  -27.0505  -55.3887 C.3       18 UNK        -0.1800 
    102 C         -4.6869  -24.7346  -56.2924 C.2       18 UNK         0.5000 
    103 O         -4.8607  -24.3196  -57.4389 O.2       18 UNK        -0.5000 
    104 N         -3.6186  -24.4240  -55.5448 N.am      19 UNK        -0.5000 
    105 CA        -2.5191  -23.5776  -56.0060 C.3       19 UNK         0.1400 
    106 CB        -1.2742  -23.8277  -55.1419 C.3       19 UNK        -0.1800 
    107 C         -2.9399  -22.0990  -55.9889 C.2       19 UNK         0.5000 
    108 O         -3.1157  -21.5270  -54.9120 O.2       19 UNK        -0.5000 
    109 N         -3.1496  -21.5283  -57.1847 N.am      20 UNK        -0.5000 
    110 CA        -3.5638  -20.1409  -57.4511 C.3       20 UNK         0.1400 
    111 CB        -2.4335  -19.1657  -57.0606 C.3       20 UNK        -0.1800 
    112 C         -4.9191  -19.7452  -56.8180 C.2       20 UNK         0.5000 
    113 O         -5.1953  -18.5555  -56.6603 O.2       20 UNK        -0.5000 
    114 N         -5.7278  -20.7531  -56.4545 N.am      21 UNK        -0.5000 
    115 CA        -6.9721  -20.6748  -55.6808 C.3       21 UNK         0.1400 
    116 CB        -8.0619  -19.9076  -56.4580 C.3       21 UNK        -0.1800 
    117 C         -6.7874  -20.1474  -54.2373 C.2       21 UNK         0.5000 
    118 O         -7.7727  -19.7617  -53.6061 O.2       21 UNK        -0.5000 
    119 N         -5.5489  -20.1491  -53.7278 N.am      22 UNK        -0.5000 
    120 CA        -5.1980  -19.7037  -52.3727 C.3       22 UNK         0.1400 
    121 C         -5.5181  -20.7860  -51.3121 C.2       22 UNK         0.5000 
    122 N         -6.0181  -20.4044  -50.1462 N.am      22 UNK        -0.7600 
    123 O         -5.2764  -21.9694  -51.5208 O.2       22 UNK        -0.5000 
    124 C124       -3.7094  -19.2949  -52.2808 C.3       23 UNK        -0.0398 
    125 S125       -3.3335  -17.8448  -53.3183 S.3       23 UNK        -0.2404 
    126 C126       -1.5124  -17.8133  -53.2134 C.3       23 UNK        -0.0205 
    127 H127        1.2378   -9.8835  -47.6246 H         1 UNK         0.0600 
    128 H128        2.4690  -10.2480  -46.4036 H         1 UNK         0.0600 
    129 H129        1.2138   -9.0599  -46.0741 H         1 UNK         0.0600 
    130 H130       -0.2800  -12.9378  -46.2213 H         1 UNK         0.3000 
    131 H131        0.8820  -11.9414  -48.6082 H         1 UNK         0.0600 
    132 H132        0.9048  -14.3171  -49.3244 H         1 UNK         0.0800 
    133 H133        0.6156  -14.8336  -47.6791 H         1 UNK         0.0800 
    134 H134       -2.8895  -15.8462  -48.6995 H         1 UNK         0.0800 
    135 H135       -1.5988  -16.0957  -47.5579 H         1 UNK         0.0800 
    136 H136       -2.5659  -16.3329  -51.1095 H         1 UNK         0.1150 
    137 H137        0.8294  -18.7216  -52.2073 H         1 UNK         0.1150 
    138 H138        0.5812  -17.0078  -48.2949 H         1 UNK         0.1150 
    139 H139        2.8629  -18.4074  -50.7898 H         1 UNK         0.0800 
    140 H140        2.7343  -17.8238  -49.1539 H         1 UNK         0.0800 
    141 H141        1.0265  -19.0672  -47.4869 H         1 UNK         0.0800 
    142 H142        2.5150  -19.8020  -46.9694 H         1 UNK         0.0800 
    143 H143        1.4490  -22.0786  -47.2933 H         1 UNK         0.0600 
    144 H144        0.9385  -20.2844  -45.1520 H         1 UNK         0.3000 
    145 H145       -0.5841  -22.7013  -42.9802 H         1 UNK         0.0600 
    146 H146        1.2523  -21.8975  -41.5380 H         1 UNK         0.0600 
    147 H147        1.9002  -22.9476  -42.7883 H         1 UNK         0.0600 
    148 H148        2.0888  -21.2034  -42.9253 H         1 UNK         0.0600 
    149 H149       -0.0449  -19.9508  -42.5783 H         1 UNK         0.3000 
    150 H150       -3.1458  -18.6892  -43.9243 H         1 UNK         0.0600 
    151 H151       -3.5549  -19.4668  -41.5792 H         1 UNK         0.0600 
    152 H152       -3.2250  -17.7425  -41.6463 H         1 UNK         0.0600 
    153 H153       -1.9752  -18.8575  -41.0981 H         1 UNK         0.0600 
    154 H154       -0.9836  -17.2954  -42.7637 H         1 UNK         0.3000 
    155 H155        0.8817  -16.7020  -45.7886 H         1 UNK         0.0600 
    156 H156       -0.7307  -15.0084  -43.8048 H         1 UNK         0.0600 
    157 H157       -0.8668  -14.9598  -45.5529 H         1 UNK         0.0600 
    158 H158        0.6189  -14.4284  -44.7683 H         1 UNK         0.0600 
    159 H159        1.4951  -16.0412  -43.1053 H         1 UNK         0.3000 
    160 H160        3.2971  -19.0071  -42.2385 H         1 UNK         0.0600 
    161 H161        4.1368  -16.1068  -42.7783 H         1 UNK         0.0600 
    162 H162        4.8744  -17.5370  -43.4833 H         1 UNK         0.0600 
    163 H163        4.9928  -17.2579  -41.7532 H         1 UNK         0.0600 
    164 H164        2.6207  -16.5698  -40.8560 H         1 UNK         0.3000 
    165 H165       -0.3484  -17.8138  -39.3008 H         1 UNK         0.0600 
    166 H166        0.9440  -17.1989  -37.2784 H         1 UNK         0.0600 
    167 H167        1.5581  -18.7015  -37.9486 H         1 UNK         0.0600 
    168 H168        2.4489  -17.2047  -38.1982 H         1 UNK         0.0600 
    169 H169        1.0572  -15.3402  -39.0646 H         1 UNK         0.3000 
    170 H170       -0.4963  -13.6181  -41.7525 H         1 UNK         0.0600 
    171 H171       -2.2409  -13.5697  -39.9644 H         1 UNK         0.0600 
    172 H172       -0.9951  -13.3872  -38.7352 H         1 UNK         0.0600 
    173 H173       -1.2541  -12.1174  -39.9323 H         1 UNK         0.0600 
    174 H174        1.2103  -12.7145  -39.6745 H         1 UNK         0.3000 
    175 H175        3.3079  -12.1672  -40.0404 H         1 UNK         0.0600 
    176 H176        4.6784  -14.8066  -40.7954 H         1 UNK         0.0600 
    177 H177        5.3305  -13.5632  -39.7340 H         1 UNK         0.0600 
    178 H178        3.9054  -14.4692  -39.2502 H         1 UNK         0.0600 
    179 H179        4.7766  -13.0252  -42.4701 H         1 UNK         0.3000 
    180 H180        4.2771   -9.8816  -44.0873 H         1 UNK         0.0600 
    181 H181        6.7238  -11.4771  -43.1642 H         1 UNK         0.0600 
    182 H182        6.3816   -9.7937  -42.8015 H         1 UNK         0.0600 
    183 H183        6.6962  -10.2820  -44.4593 H         1 UNK         0.0600 
    184 H184        3.8741  -11.4384  -45.5687 H         1 UNK         0.3000 
    185 H185        4.9983  -13.5876  -46.9684 H         1 UNK         0.0600 
    186 H186        5.3077  -15.7297  -45.7436 H         1 UNK         0.0600 
    187 H187        3.6517  -15.6532  -45.1510 H         1 UNK         0.0600 
    188 H188        3.9675  -15.8643  -46.8703 H         1 UNK         0.0600 
    189 H189        2.2610  -13.5126  -45.7584 H         1 UNK         0.3000 
    190 H190       -1.3789  -19.9347  -46.6257 H         1 UNK         0.3000 
    191 H191       -2.8894  -20.6304  -48.9155 H         1 UNK         0.0600 
    192 H192       -3.8136  -19.7124  -46.1455 H         1 UNK         0.0600 
    193 H193       -4.8073  -19.7193  -47.5958 H         1 UNK         0.0600 
    194 H194       -3.3987  -18.6720  -47.5062 H         1 UNK         0.0600 
    195 H195       -2.7486  -22.1796  -45.6760 H         1 UNK         0.3000 
    196 H196       -4.7145  -24.1770  -46.1635 H         1 UNK         0.0600 
    197 H197       -3.6877  -25.2944  -44.1825 H         1 UNK         0.0600 
    198 H198       -3.9390  -23.5800  -43.8908 H         1 UNK         0.0600 
    199 H199       -2.3236  -24.1858  -44.2477 H         1 UNK         0.0600 
    200 H200       -1.1717  -24.1593  -46.7283 H         1 UNK         0.3000 
    201 H201       -0.9895  -26.8598  -47.6654 H         1 UNK         0.0600 
    202 H202        0.9680  -25.6005  -46.8121 H         1 UNK         0.0600 
    203 H203        0.8500  -24.4566  -48.1468 H         1 UNK         0.0600 
    204 H204        1.2592  -26.1383  -48.4598 H         1 UNK         0.0600 
    205 H205       -1.4846  -23.7358  -49.3405 H         1 UNK         0.3000 
    206 H206       -1.4839  -24.7177  -52.0036 H         1 UNK         0.0600 
    207 H207       -1.1807  -22.3449  -51.5532 H         1 UNK         0.0600 
    208 H208       -2.6876  -22.5102  -52.4465 H         1 UNK         0.0600 
    209 H209       -2.7244  -22.2390  -50.7140 H         1 UNK         0.0600 
    210 H210       -4.0501  -24.5159  -49.5984 H         1 UNK         0.3000 
    211 H211       -5.9579  -25.5802  -49.2957 H         1 UNK         0.0600 
    212 H212       -4.7797  -27.6604  -51.2131 H         1 UNK         0.0600 
    213 H213       -5.9901  -27.9564  -49.9696 H         1 UNK         0.0600 
    214 H214       -4.3586  -27.5036  -49.5096 H         1 UNK         0.0600 
    215 H215       -6.0715  -23.6290  -51.4608 H         1 UNK         0.3000 
    216 H216       -7.4394  -22.7468  -52.9069 H         1 UNK         0.0600 
    217 H217       -9.7761  -23.4104  -53.1241 H         1 UNK         0.0600 
    218 H218       -9.3125  -23.5298  -51.4358 H         1 UNK         0.0600 
    219 H219       -9.4610  -24.9874  -52.4187 H         1 UNK         0.0600 
    220 H220       -5.5632  -25.1320  -53.6050 H         1 UNK         0.3000 
    221 H221       -6.5754  -25.7372  -56.3500 H         1 UNK         0.0600 
    222 H222       -4.3557  -27.0419  -54.6857 H         1 UNK         0.0600 
    223 H223       -5.9601  -27.7035  -54.9792 H         1 UNK         0.0600 
    224 H224       -4.8343  -27.5062  -56.3139 H         1 UNK         0.0600 
    225 H225       -3.5744  -24.7555  -54.5868 H         1 UNK         0.3000 
    226 H226       -2.2650  -23.8626  -57.0295 H         1 UNK         0.0600 
    227 H227       -0.9757  -24.8757  -55.1730 H         1 UNK         0.0600 
    228 H228       -0.4298  -23.2367  -55.4983 H         1 UNK         0.0600 
    229 H229       -1.4421  -23.5589  -54.1018 H         1 UNK         0.0600 
    230 H230       -3.0356  -22.1050  -58.0074 H         1 UNK         0.3000 
    231 H231       -3.7058  -20.0669  -58.5300 H         1 UNK         0.0600 
    232 H232       -1.4922  -19.4419  -57.5355 H         1 UNK         0.0600 
    233 H233       -2.2720  -19.1474  -55.9826 H         1 UNK         0.0600 
    234 H234       -2.6650  -18.1467  -57.3726 H         1 UNK         0.0600 
    235 H235       -5.3978  -21.6886  -56.6480 H         1 UNK         0.3000 
    236 H236       -7.3169  -21.7027  -55.5776 H         1 UNK         0.0600 
    237 H237       -9.0314  -20.0021  -55.9676 H         1 UNK         0.0600 
    238 H238       -7.8371  -18.8433  -56.5300 H         1 UNK         0.0600 
    239 H239       -8.1738  -20.2974  -57.4697 H         1 UNK         0.0600 
    240 H240       -4.7831  -20.5257  -54.2765 H         1 UNK         0.3000 
    241 H241       -5.7994  -18.8221  -52.1410 H         1 UNK         0.0600 
    242 H242       -6.1900  -21.1130  -49.4507 H         1 UNK         0.3800 
    243 H243       -6.2420  -19.4421  -49.9487 H         1 UNK         0.3800 
    244 H244       -3.4424  -19.0499  -51.2512 H         1 UNK         0.0800 
    245 H245       -3.0628  -20.1212  -52.5785 H         1 UNK         0.0800 
    246 H246       -1.1423  -17.0220  -53.8660 H         1 UNK         0.0800 
    247 H247       -1.1324  -18.7522  -53.6199 H         1 UNK         0.0800 
@<TRIPOS>BOND
     1    1    2 1    
     2    1  127 1    
     3    1  128 1    
     4    1  129 1    
     5    2    3 2    
     6    2    4 am   BACKBONE|DICT|INTERRES
     7    4    5 1    
     8    4  130 1    
     9    5    6 1    
    10    5   65 1    
    11    5  131 1    
    12    6    7 1    
    13    6  132 1    
    14    6  133 1    
    15    7    8 1    
    16    8    9 1    
    17    8  134 1    
    18    8  135 1    
    19    9   10 ar   
    20    9   14 ar   
    21   10   11 ar   
    22   10  136 1    
    23   11   12 ar   
    24   11  126 1    
    25   12   13 ar   
    26   12  137 1    
    27   13   14 ar   
    28   13   15 1    
    29   14  138 1    
    30   15   16 1    
    31   15  139 1    
    32   15  140 1    
    33   16   17 1    
    34   17   18 1    
    35   17  141 1    
    36   17  142 1    
    37   18   19 1    
    38   18   67 1    
    39   18  143 1    
    40   19   20 am   BACKBONE|DICT|INTERRES
    41   19  144 1    
    42   20   21 2    
    43   20   22 1    
    44   22   23 1    
    45   22   24 1    
    46   22  145 1    
    47   23  146 1    
    48   23  147 1    
    49   23  148 1    
    50   24   25 am   BACKBONE|DICT|INTERRES
    51   24  149 1    
    52   25   26 2    
    53   25   27 1    
    54   27   28 1    
    55   27   29 1    
    56   27  150 1    
    57   28  151 1    
    58   28  152 1    
    59   28  153 1    
    60   29   30 am   BACKBONE|DICT|INTERRES
    61   29  154 1    
    62   30   31 2    
    63   30   32 1    
    64   32   33 1    
    65   32   34 1    
    66   32  155 1    
    67   33  156 1    
    68   33  157 1    
    69   33  158 1    
    70   34   35 am   BACKBONE|DICT|INTERRES
    71   34  159 1    
    72   35   36 2    
    73   35   37 1    
    74   37   38 1    
    75   37   39 1    
    76   37  160 1    
    77   38  161 1    
    78   38  162 1    
    79   38  163 1    
    80   39   40 am   BACKBONE|DICT|INTERRES
    81   39  164 1    
    82   40   41 2    
    83   40   42 1    
    84   42   43 1    
    85   42   44 1    
    86   42  165 1    
    87   43  166 1    
    88   43  167 1    
    89   43  168 1    
    90   44   45 am   BACKBONE|DICT|INTERRES
    91   44  169 1    
    92   45   46 2    
    93   45   47 1    
    94   47   48 1    
    95   47   49 1    
    96   47  170 1    
    97   48  171 1    
    98   48  172 1    
    99   48  173 1    
   100   49   50 am   BACKBONE|DICT|INTERRES
   101   49  174 1    
   102   50   51 2    
   103   50   52 1    
   104   52   53 1    
   105   52   54 1    
   106   52  175 1    
   107   53  176 1    
   108   53  177 1    
   109   53  178 1    
   110   54   55 am   BACKBONE|DICT|INTERRES
   111   54  179 1    
   112   55   56 2    
   113   55   57 1    
   114   57   58 1    
   115   57   59 1    
   116   57  180 1    
   117   58  181 1    
   118   58  182 1    
   119   58  183 1    
   120   59   60 am   BACKBONE|DICT|INTERRES
   121   59  184 1    
   122   60   61 2    
   123   60   62 1    
   124   62   63 1    
   125   62   64 1    
   126   62  185 1    
   127   63  186 1    
   128   63  187 1    
   129   63  188 1    
   130   64   65 am   BACKBONE|DICT|INTERRES
   131   64  189 1    
   132   65   66 2    
   133   67   68 2    
   134   67   69 am   BACKBONE|DICT|INTERRES
   135   69   70 1    
   136   69  190 1    
   137   70   71 1    
   138   70   72 1    
   139   70  191 1    
   140   71  192 1    
   141   71  193 1    
   142   71  194 1    
   143   72   73 2    
   144   72   74 am   BACKBONE|DICT|INTERRES
   145   74   75 1    
   146   74  195 1    
   147   75   76 1    
   148   75   77 1    
   149   75  196 1    
   150   76  197 1    
   151   76  198 1    
   152   76  199 1    
   153   77   78 2    
   154   77   79 am   BACKBONE|DICT|INTERRES
   155   79   80 1    
   156   79  200 1    
   157   80   81 1    
   158   80   82 1    
   159   80  201 1    
   160   81  202 1    
   161   81  203 1    
   162   81  204 1    
   163   82   83 2    
   164   82   84 am   BACKBONE|DICT|INTERRES
   165   84   85 1    
   166   84  205 1    
   167   85   86 1    
   168   85   87 1    
   169   85  206 1    
   170   86  207 1    
   171   86  208 1    
   172   86  209 1    
   173   87   88 2    
   174   87   89 am   BACKBONE|DICT|INTERRES
   175   89   90 1    
   176   89  210 1    
   177   90   91 1    
   178   90   92 1    
   179   90  211 1    
   180   91  212 1    
   181   91  213 1    
   182   91  214 1    
   183   92   93 2    
   184   92   94 am   BACKBONE|DICT|INTERRES
   185   94   95 1    
   186   94  215 1    
   187   95   96 1    
   188   95   97 1    
   189   95  216 1    
   190   96  217 1    
   191   96  218 1    
   192   96  219 1    
   193   97   98 2    
   194   97   99 am   BACKBONE|DICT|INTERRES
   195   99  100 1    
   196   99  220 1    
   197  100  101 1    
   198  100  102 1    
   199  100  221 1    
   200  101  222 1    
   201  101  223 1    
   202  101  224 1    
   203  102  103 2    
   204  102  104 am   BACKBONE|DICT|INTERRES
   205  104  105 1    
   206  104  225 1    
   207  105  106 1    
   208  105  107 1    
   209  105  226 1    
   210  106  227 1    
   211  106  228 1    
   212  106  229 1    
   213  107  108 2    
   214  107  109 am   BACKBONE|DICT|INTERRES
   215  109  110 1    
   216  109  230 1    
   217  110  111 1    
   218  110  112 1    
   219  110  231 1    
   220  111  232 1    
   221  111  233 1    
   222  111  234 1    
   223  112  113 2    
   224  112  114 am   BACKBONE|DICT|INTERRES
   225  114  115 1    
   226  114  235 1    
   227  115  116 1    
   228  115  117 1    
   229  115  236 1    
   230  116  237 1    
   231  116  238 1    
   232  116  239 1    
   233  117  118 2    
   234  117  119 am   BACKBONE|DICT|INTERRES
   235  119  120 1    
   236  119  240 1    
   237  120  121 1    
   238  120  124 1    
   239  120  241 1    
   240  121  122 am   BACKBONE|DICT|INTERRES
   241  121  123 2    
   242  122  242 1    
   243  122  243 1    
   244  124  125 1    
   245  124  244 1    
   246  124  245 1    
   247  125  126 1    
   248  126  246 1    
   249  126  247 1    
@<TRIPOS>SUBSTRUCTURE
     1 UNK         1 GROUP             0       ****    0 ROOT    
