@<TRIPOS>MOLECULE
3R540
247   249    1
SMALL
USER_CHARGES


@<TRIPOS>ATOM
      1 CA         -4.5353  -18.4509  -42.5159 C.3       0 UNK        -0.1800 
      2 C          -4.6976  -18.6549  -44.0155 C.2       0 UNK         0.5000 
      3 O          -5.1693  -19.7079  -44.4380 O.2       0 UNK        -0.5000 
      4 N          -4.3128  -17.6503  -44.8069 N.am      1 UNK        -0.5000 
      5 CA         -4.4484  -17.5828  -46.2611 C.3       1 UNK         0.1400 
      6 C6         -3.3007  -18.3143  -47.0184 C.3       23 UNK        -0.0398 
      7 S7         -1.7003  -17.4246  -47.0749 S.3       23 UNK        -0.2404 
      8 C8         -1.5209  -17.0880  -48.8545 C.3       23 UNK        -0.0205 
      9 C9         -0.7621  -18.1905  -49.5682 C.ar      23 UNK        -0.0193 
     10 C10        -1.4493  -19.2206  -50.2145 C.ar      23 UNK        -0.1150 
     11 C11        -0.7574  -20.2003  -50.9339 C.ar      23 UNK        -0.0193 
     12 C12         0.6394  -20.1306  -51.0054 C.ar      23 UNK        -0.1150 
     13 C13         1.3388  -19.1105  -50.3538 C.ar      23 UNK        -0.0193 
     14 C14         0.6325  -18.1451  -49.6332 C.ar      23 UNK        -0.1150 
     15 C15         2.8568  -19.0407  -50.4479 C.3       23 UNK        -0.0205 
     16 S16         3.6681  -19.4569  -48.8715 S.3       23 UNK        -0.2404 
     17 C17         2.9465  -21.0953  -48.5199 C.3       23 UNK        -0.0398 
     18 CA          3.8953  -22.0210  -47.7229 C.3       11 UNK         0.1400 
     19 N           4.2208  -21.4646  -46.4071 N.am      11 UNK        -0.5000 
     20 C           5.2696  -21.8320  -45.6611 C.2       10 UNK         0.5000 
     21 O           6.0805  -22.6966  -45.9954 O.2       10 UNK        -0.5000 
     22 CA          5.4293  -21.1206  -44.3069 C.3       10 UNK         0.1400 
     23 CB          6.0200  -19.7136  -44.4894 C.3       10 UNK        -0.1800 
     24 N           4.1595  -21.0296  -43.5874 N.am      10 UNK        -0.5000 
     25 C           3.5817  -22.0536  -42.9446 C.2       9 UNK         0.5000 
     26 O           4.0754  -23.1790  -42.8693 O.2       9 UNK        -0.5000 
     27 CA          2.2233  -21.7822  -42.2724 C.3       9 UNK         0.1400 
     28 CB          2.4265  -21.3136  -40.8238 C.3       9 UNK        -0.1800 
     29 N           1.4145  -20.7945  -42.9844 N.am      9 UNK        -0.5000 
     30 C           0.8458  -20.9968  -44.1805 C.2       8 UNK         0.5000 
     31 O           0.9309  -22.0452  -44.8199 O.2       8 UNK        -0.5000 
     32 CA          0.0788  -19.8095  -44.7817 C.3       8 UNK         0.1400 
     33 CB         -1.3016  -19.6939  -44.1241 C.3       8 UNK        -0.1800 
     34 N           0.7899  -18.5353  -44.6711 N.am      8 UNK        -0.5000 
     35 C           2.0194  -18.3017  -45.1536 C.2       7 UNK         0.5000 
     36 O           2.7303  -19.1631  -45.6676 O.2       7 UNK        -0.5000 
     37 CA          2.5617  -16.8752  -44.9985 C.3       7 UNK         0.1400 
     38 CB          1.9409  -15.9463  -46.0482 C.3       7 UNK        -0.1800 
     39 N           2.2916  -16.3614  -43.6589 N.am      7 UNK        -0.5000 
     40 C           3.0063  -16.6972  -42.5760 C.2       6 UNK         0.5000 
     41 O           4.0222  -17.3920  -42.6130 O.2       6 UNK        -0.5000 
     42 CA          2.4771  -16.2033  -41.2168 C.3       6 UNK         0.1400 
     43 CB          2.9737  -14.7790  -40.9263 C.3       6 UNK        -0.1800 
     44 N           1.0166  -16.2322  -41.1288 N.am      6 UNK        -0.5000 
     45 C           0.2688  -17.3422  -41.1991 C.2       5 UNK         0.5000 
     46 O           0.7314  -18.4772  -41.3163 O.2       5 UNK        -0.5000 
     47 CA         -1.2579  -17.1503  -41.1686 C.3       5 UNK         0.1400 
     48 CB         -1.7860  -17.2538  -39.7307 C.3       5 UNK        -0.1800 
     49 N          -1.7285  -15.8972  -41.7665 N.am      5 UNK        -0.5000 
     50 C          -1.5348  -15.5172  -43.0374 C.2       4 UNK         0.5000 
     51 O          -0.8593  -16.1620  -43.8426 O.2       4 UNK        -0.5000 
     52 CA         -2.2545  -14.2184  -43.4533 C.3       4 UNK         0.1400 
     53 CB         -1.8139  -13.0109  -42.5972 C.3       4 UNK        -0.1800 
     54 N          -2.1648  -13.9230  -44.8875 N.am      4 UNK        -0.5000 
     55 C          -1.1025  -13.4945  -45.5875 C.2       3 UNK         0.5000 
     56 O           0.0018  -13.2684  -45.0909 O.2       3 UNK        -0.5000 
     57 CA         -1.3202  -13.2450  -47.0963 C.3       3 UNK         0.1400 
     58 CB         -0.0764  -13.5858  -47.9358 C.3       3 UNK        -0.1800 
     59 N          -2.4701  -13.9929  -47.6144 N.am      3 UNK        -0.5000 
     60 C          -3.6232  -13.4524  -48.0331 C.2       2 UNK         0.5000 
     61 O          -3.8323  -12.2396  -48.0728 O.2       2 UNK        -0.5000 
     62 CA         -4.7484  -14.4186  -48.4739 C.3       2 UNK         0.1400 
     63 CB         -4.8030  -14.4882  -50.0054 C.3       2 UNK        -0.1800 
     64 N          -4.6539  -15.7855  -47.9424 N.am      2 UNK        -0.5000 
     65 C          -4.6267  -16.0969  -46.6387 C.2       1 UNK         0.5000 
     66 O          -4.6938  -15.2459  -45.7449 O.2       1 UNK        -0.5000 
     67 C           3.2717  -23.4288  -47.6325 C.2       11 UNK         0.5000 
     68 O           3.3515  -24.1752  -48.6087 O.2       11 UNK        -0.5000 
     69 N           2.6295  -23.7418  -46.4951 N.am      12 UNK        -0.5000 
     70 CA          1.7110  -24.8664  -46.2790 C.3       12 UNK         0.1400 
     71 CB          2.4308  -26.2260  -46.4014 C.3       12 UNK        -0.1800 
     72 C           0.4749  -24.7276  -47.1930 C.2       12 UNK         0.5000 
     73 O           0.1476  -25.6392  -47.9556 O.2       12 UNK        -0.5000 
     74 N          -0.1428  -23.5399  -47.1320 N.am      13 UNK        -0.5000 
     75 CA         -1.2495  -23.1088  -47.9843 C.3       13 UNK         0.1400 
     76 CB         -1.5361  -21.6251  -47.7152 C.3       13 UNK        -0.1800 
     77 C          -2.5324  -23.9331  -47.7825 C.2       13 UNK         0.5000 
     78 O          -2.8226  -24.3713  -46.6660 O.2       13 UNK        -0.5000 
     79 N          -3.3111  -24.0740  -48.8615 N.am      14 UNK        -0.5000 
     80 CA         -4.6057  -24.7569  -48.8971 C.3       14 UNK         0.1400 
     81 CB         -4.8736  -25.2208  -50.3401 C.3       14 UNK        -0.1800 
     82 C          -5.7371  -23.8655  -48.3407 C.2       14 UNK         0.5000 
     83 O          -6.6927  -23.5590  -49.0560 O.2       14 UNK        -0.5000 
     84 N          -5.5902  -23.4520  -47.0744 N.am      15 UNK        -0.5000 
     85 CA         -6.4562  -22.5295  -46.3344 C.3       15 UNK         0.1400 
     86 CB         -7.8247  -23.1848  -46.0391 C.3       15 UNK        -0.1800 
     87 C          -6.5428  -21.1525  -47.0284 C.2       15 UNK         0.5000 
     88 O          -5.5068  -20.6282  -47.4426 O.2       15 UNK        -0.5000 
     89 N          -7.7567  -20.5966  -47.1605 N.am      16 UNK        -0.5000 
     90 CA         -8.0892  -19.2803  -47.7244 C.3       16 UNK         0.1400 
     91 CB         -9.5398  -18.9415  -47.3359 C.3       16 UNK        -0.1800 
     92 C          -7.8356  -19.1256  -49.2455 C.2       16 UNK         0.5000 
     93 O          -8.6112  -18.4663  -49.9405 O.2       16 UNK        -0.5000 
     94 N          -6.7548  -19.7324  -49.7374 N.am      17 UNK        -0.5000 
     95 CA         -6.2558  -19.6417  -51.1010 C.3       17 UNK         0.1400 
     96 CB         -5.3872  -20.8796  -51.3703 C.3       17 UNK        -0.1800 
     97 C          -5.4399  -18.3546  -51.3110 C.2       17 UNK         0.5000 
     98 O          -4.8984  -17.7911  -50.3526 O.2       17 UNK        -0.5000 
     99 N          -5.3453  -17.9413  -52.5798 N.am      18 UNK        -0.5000 
    100 CA        -4.4798  -16.8612  -53.0445 C.3       18 UNK         0.1400 
    101 CB        -4.9315  -16.4314  -54.4489 C.3       18 UNK        -0.1800 
    102 C         -3.0093  -17.3096  -53.0737 C.2       18 UNK         0.5000 
    103 O         -2.7325  -18.4820  -53.3269 O.2       18 UNK        -0.5000 
    104 N         -2.0888  -16.3587  -52.8749 N.am      19 UNK        -0.5000 
    105 CA        -0.6413  -16.5993  -52.8743 C.3       19 UNK         0.1400 
    106 CB         0.0629  -15.3850  -52.2487 C.3       19 UNK        -0.1800 
    107 C         -0.0484  -16.9315  -54.2599 C.2       19 UNK         0.5000 
    108 O          1.0948  -17.3834  -54.3318 O.2       19 UNK        -0.5000 
    109 N         -0.8206  -16.6978  -55.3311 N.am      20 UNK        -0.5000 
    110 CA        -0.4508  -16.9910  -56.7156 C.3       20 UNK         0.1400 
    111 CB        -1.4931  -16.3688  -57.6579 C.3       20 UNK        -0.1800 
    112 C         -0.2937  -18.4977  -56.9987 C.2       20 UNK         0.5000 
    113 O          0.6365  -18.8808  -57.7096 O.2       20 UNK        -0.5000 
    114 N         -1.1882  -19.3184  -56.4329 N.am      21 UNK        -0.5000 
    115 CA        -1.2022  -20.7742  -56.5494 C.3       21 UNK         0.1400 
    116 CB        -1.5402  -21.2160  -57.9881 C.3       21 UNK        -0.1800 
    117 C         -2.2393  -21.3367  -55.5700 C.2       21 UNK         0.5000 
    118 O         -3.3346  -20.7811  -55.4616 O.2       21 UNK        -0.5000 
    119 N         -1.8892  -22.4410  -54.9013 N.am      22 UNK        -0.5000 
    120 CA        -2.7536  -23.1392  -53.9325 C.3       22 UNK         0.1400 
    121 C         -3.7914  -24.1061  -54.5767 C.2       22 UNK         0.5000 
    122 N         -3.7755  -24.3320  -55.8852 N.am      22 UNK        -0.7600 
    123 O         -4.6348  -24.6572  -53.8756 O.2       22 UNK        -0.5000 
    124 C124       -1.9235  -23.8661  -52.8377 C.3       23 UNK        -0.0398 
    125 S125       -0.6844  -22.8493  -51.9505 S.3       23 UNK        -0.2404 
    126 C126       -1.5585  -21.2669  -51.6762 C.3       23 UNK        -0.0205 
    127 H127       -4.1739  -17.4504  -42.2791 H         1 UNK         0.0600 
    128 H128       -3.8291  -19.1769  -42.1135 H         1 UNK         0.0600 
    129 H129       -5.4921  -18.5917  -42.0132 H         1 UNK         0.0600 
    130 H130       -3.9997  -16.7782  -44.4033 H         1 UNK         0.3000 
    131 H131       -5.3850  -18.0716  -46.5243 H         1 UNK         0.0600 
    132 H132       -3.1288  -19.2903  -46.5642 H         1 UNK         0.0800 
    133 H133       -3.6245  -18.5404  -48.0345 H         1 UNK         0.0800 
    134 H134       -2.4930  -16.9359  -49.3233 H         1 UNK         0.0800 
    135 H135       -0.9840  -16.1509  -48.9884 H         1 UNK         0.0800 
    136 H136       -2.5294  -19.2430  -50.1812 H         1 UNK         0.1150 
    137 H137        1.1892  -20.8618  -51.5795 H         1 UNK         0.1150 
    138 H138        1.1692  -17.3491  -49.1367 H         1 UNK         0.1150 
    139 H139        3.2275  -19.7084  -51.2271 H         1 UNK         0.0800 
    140 H140        3.1524  -18.0332  -50.7438 H         1 UNK         0.0800 
    141 H141        2.0085  -20.9457  -47.9811 H         1 UNK         0.0800 
    142 H142        2.6833  -21.5620  -49.4711 H         1 UNK         0.0800 
    143 H143        4.8241  -22.1184  -48.2894 H         1 UNK         0.0600 
    144 H144        3.6348  -20.6943  -46.0879 H         1 UNK         0.3000 
    145 H145        6.1302  -21.7012  -43.7032 H         1 UNK         0.0600 
    146 H146        6.1819  -19.2271  -43.5273 H         1 UNK         0.0600 
    147 H147        5.3674  -19.0711  -45.0810 H         1 UNK         0.0600 
    148 H148        6.9836  -19.7589  -44.9981 H         1 UNK         0.0600 
    149 H149        3.6702  -20.1467  -43.6375 H         1 UNK         0.3000 
    150 H150        1.6692  -22.7231  -42.2529 H         1 UNK         0.0600 
    151 H151        3.0100  -22.0384  -40.2548 H         1 UNK         0.0600 
    152 H152        1.4716  -21.1904  -40.3124 H         1 UNK         0.0600 
    153 H153        2.9528  -20.3589  -40.7815 H         1 UNK         0.0600 
    154 H154        1.2658  -19.9044  -42.5154 H         1 UNK         0.3000 
    155 H155       -0.0574  -19.9934  -45.8477 H         1 UNK         0.0600 
    156 H156       -1.2354  -19.7313  -43.0377 H         1 UNK         0.0600 
    157 H157       -1.9519  -20.5120  -44.4345 H         1 UNK         0.0600 
    158 H158       -1.7906  -18.7614  -44.3975 H         1 UNK         0.0600 
    159 H159        0.2628  -17.7523  -44.2971 H         1 UNK         0.3000 
    160 H160        3.6411  -16.8992  -45.1639 H         1 UNK         0.0600 
    161 H161        0.8567  -15.9003  -45.9456 H         1 UNK         0.0600 
    162 H162        2.1608  -16.2969  -47.0572 H         1 UNK         0.0600 
    163 H163        2.3291  -14.9316  -45.9607 H         1 UNK         0.0600 
    164 H164        1.4364  -15.8338  -43.5421 H         1 UNK         0.3000 
    165 H165        2.8720  -16.8685  -40.4461 H         1 UNK         0.0600 
    166 H166        2.6726  -14.4511  -39.9312 H         1 UNK         0.0600 
    167 H167        4.0626  -14.7297  -40.9680 H         1 UNK         0.0600 
    168 H168        2.5844  -14.0610  -41.6495 H         1 UNK         0.0600 
    169 H169        0.5464  -15.3437  -41.0404 H         1 UNK         0.3000 
    170 H170       -1.6966  -17.9643  -41.7433 H         1 UNK         0.0600 
    171 H171       -1.4726  -18.1897  -39.2657 H         1 UNK         0.0600 
    172 H172       -1.4185  -16.4380  -39.1071 H         1 UNK         0.0600 
    173 H173       -2.8758  -17.2316  -39.7076 H         1 UNK         0.0600 
    174 H174       -2.2891  -15.3091  -41.1670 H         1 UNK         0.3000 
    175 H175       -3.3163  -14.3840  -43.2652 H         1 UNK         0.0600 
    176 H176       -0.7333  -12.8668  -42.6181 H         1 UNK         0.0600 
    177 H177       -2.2813  -12.0895  -42.9451 H         1 UNK         0.0600 
    178 H178       -2.1013  -13.1386  -41.5534 H         1 UNK         0.0600 
    179 H179       -3.0153  -14.1178  -45.4042 H         1 UNK         0.3000 
    180 H180       -1.4933  -12.1721  -47.1977 H         1 UNK         0.0600 
    181 H181        0.7784  -12.9782  -47.6369 H         1 UNK         0.0600 
    182 H182       -0.2516  -13.3971  -48.9950 H         1 UNK         0.0600 
    183 H183        0.2120  -14.6289  -47.8248 H         1 UNK         0.0600 
    184 H184       -2.3970  -15.0000  -47.5735 H         1 UNK         0.3000 
    185 H185       -5.6904  -13.9964  -48.1182 H         1 UNK         0.0600 
    186 H186       -4.9104  -13.4947  -50.4427 H         1 UNK         0.0600 
    187 H187       -3.8927  -14.9304  -50.4111 H         1 UNK         0.0600 
    188 H188       -5.6522  -15.0830  -50.3425 H         1 UNK         0.0600 
    189 H189       -4.6275  -16.5262  -48.6357 H         1 UNK         0.3000 
    190 H190        2.5909  -23.0284  -45.7770 H         1 UNK         0.3000 
    191 H191        1.3513  -24.7792  -45.2527 H         1 UNK         0.0600 
    192 H192        1.7661  -27.0408  -46.1125 H         1 UNK         0.0600 
    193 H193        3.3021  -26.2693  -45.7480 H         1 UNK         0.0600 
    194 H194        2.7642  -26.4270  -47.4195 H         1 UNK         0.0600 
    195 H195        0.1755  -22.8823  -46.4274 H         1 UNK         0.3000 
    196 H196       -0.9244  -23.2182  -49.0199 H         1 UNK         0.0600 
    197 H197       -1.8226  -21.4581  -46.6771 H         1 UNK         0.0600 
    198 H198       -0.6653  -21.0070  -47.9344 H         1 UNK         0.0600 
    199 H199       -2.3555  -21.2628  -48.3374 H         1 UNK         0.0600 
    200 H200       -3.0167  -23.6476  -49.7265 H         1 UNK         0.3000 
    201 H201       -4.5542  -25.6474  -48.2670 H         1 UNK         0.0600 
    202 H202       -5.8120  -25.7727  -50.4059 H         1 UNK         0.0600 
    203 H203       -4.0850  -25.8841  -50.6959 H         1 UNK         0.0600 
    204 H204       -4.9406  -24.3778  -51.0291 H         1 UNK         0.0600 
    205 H205       -4.7328  -23.7235  -46.6039 H         1 UNK         0.3000 
    206 H206       -5.9624  -22.3504  -45.3783 H         1 UNK         0.0600 
    207 H207       -7.6947  -24.1511  -45.5517 H         1 UNK         0.0600 
    208 H208       -8.4215  -22.5692  -45.3651 H         1 UNK         0.0600 
    209 H209       -8.4064  -23.3502  -46.9467 H         1 UNK         0.0600 
    210 H210       -8.5448  -21.1342  -46.8312 H         1 UNK         0.3000 
    211 H211       -7.4503  -18.5451  -47.2366 H         1 UNK         0.0600 
    212 H212      -10.2491  -19.6271  -47.8009 H         1 UNK         0.0600 
    213 H213       -9.8071  -17.9302  -47.6455 H         1 UNK         0.0600 
    214 H214       -9.6819  -18.9914  -46.2561 H         1 UNK         0.0600 
    215 H215       -6.1438  -20.1879  -49.0635 H         1 UNK         0.3000 
    216 H216       -7.0992  -19.6420  -51.7946 H         1 UNK         0.0600 
    217 H217       -5.9865  -21.7904  -51.3562 H         1 UNK         0.0600 
    218 H218       -4.6111  -20.9843  -50.6126 H         1 UNK         0.0600 
    219 H219       -4.9008  -20.8222  -52.3451 H         1 UNK         0.0600 
    220 H220       -5.7780  -18.4969  -53.3028 H         1 UNK         0.3000 
    221 H221       -4.5836  -16.0110  -52.3712 H         1 UNK         0.0600 
    222 H222       -5.9713  -16.1037  -54.4453 H         1 UNK         0.0600 
    223 H223       -4.3318  -15.5979  -54.8167 H         1 UNK         0.0600 
    224 H224       -4.8388  -17.2458  -55.1691 H         1 UNK         0.0600 
    225 H225       -2.3850  -15.4088  -52.7041 H         1 UNK         0.3000 
    226 H226       -0.4438  -17.4666  -52.2451 H         1 UNK         0.0600 
    227 H227       -0.2976  -15.1968  -51.2374 H         1 UNK         0.0600 
    228 H228        1.1390  -15.5502  -52.1802 H         1 UNK         0.0600 
    229 H229       -0.0952  -14.4809  -52.8376 H         1 UNK         0.0600 
    230 H230       -1.7415  -16.3175  -55.1764 H         1 UNK         0.3000 
    231 H231        0.5121  -16.5148  -56.9124 H         1 UNK         0.0600 
    232 H232       -1.2359  -16.5556  -58.7015 H         1 UNK         0.0600 
    233 H233       -1.5487  -15.2880  -57.5268 H         1 UNK         0.0600 
    234 H234       -2.4888  -16.7802  -57.4866 H         1 UNK         0.0600 
    235 H235       -1.9077  -18.9387  -55.8289 H         1 UNK         0.3000 
    236 H236       -0.2143  -21.1512  -56.2766 H         1 UNK         0.0600 
    237 H237       -2.4932  -20.8017  -58.3195 H         1 UNK         0.0600 
    238 H238       -0.7754  -20.9043  -58.6987 H         1 UNK         0.0600 
    239 H239       -1.6126  -22.3020  -58.0565 H         1 UNK         0.0600 
    240 H240       -0.9757  -22.8450  -55.0493 H         1 UNK         0.3000 
    241 H241       -3.3659  -22.3904  -53.4289 H         1 UNK         0.0600 
    242 H242       -3.0946  -23.8840  -56.4769 H         1 UNK         0.3800 
    243 H243       -4.4564  -24.9568  -56.2879 H         1 UNK         0.3800 
    244 H244       -1.3933  -24.7130  -53.2766 H         1 UNK         0.0800 
    245 H245       -2.5886  -24.2922  -52.0856 H         1 UNK         0.0800 
    246 H246       -2.4759  -21.4831  -51.1272 H         1 UNK         0.0800 
    247 H247       -1.8501  -20.8364  -52.6350 H         1 UNK         0.0800 
@<TRIPOS>BOND
     1    1    2 1    
     2    1  127 1    
     3    1  128 1    
     4    1  129 1    
     5    2    3 2    
     6    2    4 am   BACKBONE|DICT|INTERRES
     7    4    5 1    
     8    4  130 1    
     9    5    6 1    
    10    5   65 1    
    11    5  131 1    
    12    6    7 1    
    13    6  132 1    
    14    6  133 1    
    15    7    8 1    
    16    8    9 1    
    17    8  134 1    
    18    8  135 1    
    19    9   10 ar   
    20    9   14 ar   
    21   10   11 ar   
    22   10  136 1    
    23   11   12 ar   
    24   11  126 1    
    25   12   13 ar   
    26   12  137 1    
    27   13   14 ar   
    28   13   15 1    
    29   14  138 1    
    30   15   16 1    
    31   15  139 1    
    32   15  140 1    
    33   16   17 1    
    34   17   18 1    
    35   17  141 1    
    36   17  142 1    
    37   18   19 1    
    38   18   67 1    
    39   18  143 1    
    40   19   20 am   BACKBONE|DICT|INTERRES
    41   19  144 1    
    42   20   21 2    
    43   20   22 1    
    44   22   23 1    
    45   22   24 1    
    46   22  145 1    
    47   23  146 1    
    48   23  147 1    
    49   23  148 1    
    50   24   25 am   BACKBONE|DICT|INTERRES
    51   24  149 1    
    52   25   26 2    
    53   25   27 1    
    54   27   28 1    
    55   27   29 1    
    56   27  150 1    
    57   28  151 1    
    58   28  152 1    
    59   28  153 1    
    60   29   30 am   BACKBONE|DICT|INTERRES
    61   29  154 1    
    62   30   31 2    
    63   30   32 1    
    64   32   33 1    
    65   32   34 1    
    66   32  155 1    
    67   33  156 1    
    68   33  157 1    
    69   33  158 1    
    70   34   35 am   BACKBONE|DICT|INTERRES
    71   34  159 1    
    72   35   36 2    
    73   35   37 1    
    74   37   38 1    
    75   37   39 1    
    76   37  160 1    
    77   38  161 1    
    78   38  162 1    
    79   38  163 1    
    80   39   40 am   BACKBONE|DICT|INTERRES
    81   39  164 1    
    82   40   41 2    
    83   40   42 1    
    84   42   43 1    
    85   42   44 1    
    86   42  165 1    
    87   43  166 1    
    88   43  167 1    
    89   43  168 1    
    90   44   45 am   BACKBONE|DICT|INTERRES
    91   44  169 1    
    92   45   46 2    
    93   45   47 1    
    94   47   48 1    
    95   47   49 1    
    96   47  170 1    
    97   48  171 1    
    98   48  172 1    
    99   48  173 1    
   100   49   50 am   BACKBONE|DICT|INTERRES
   101   49  174 1    
   102   50   51 2    
   103   50   52 1    
   104   52   53 1    
   105   52   54 1    
   106   52  175 1    
   107   53  176 1    
   108   53  177 1    
   109   53  178 1    
   110   54   55 am   BACKBONE|DICT|INTERRES
   111   54  179 1    
   112   55   56 2    
   113   55   57 1    
   114   57   58 1    
   115   57   59 1    
   116   57  180 1    
   117   58  181 1    
   118   58  182 1    
   119   58  183 1    
   120   59   60 am   BACKBONE|DICT|INTERRES
   121   59  184 1    
   122   60   61 2    
   123   60   62 1    
   124   62   63 1    
   125   62   64 1    
   126   62  185 1    
   127   63  186 1    
   128   63  187 1    
   129   63  188 1    
   130   64   65 am   BACKBONE|DICT|INTERRES
   131   64  189 1    
   132   65   66 2    
   133   67   68 2    
   134   67   69 am   BACKBONE|DICT|INTERRES
   135   69   70 1    
   136   69  190 1    
   137   70   71 1    
   138   70   72 1    
   139   70  191 1    
   140   71  192 1    
   141   71  193 1    
   142   71  194 1    
   143   72   73 2    
   144   72   74 am   BACKBONE|DICT|INTERRES
   145   74   75 1    
   146   74  195 1    
   147   75   76 1    
   148   75   77 1    
   149   75  196 1    
   150   76  197 1    
   151   76  198 1    
   152   76  199 1    
   153   77   78 2    
   154   77   79 am   BACKBONE|DICT|INTERRES
   155   79   80 1    
   156   79  200 1    
   157   80   81 1    
   158   80   82 1    
   159   80  201 1    
   160   81  202 1    
   161   81  203 1    
   162   81  204 1    
   163   82   83 2    
   164   82   84 am   BACKBONE|DICT|INTERRES
   165   84   85 1    
   166   84  205 1    
   167   85   86 1    
   168   85   87 1    
   169   85  206 1    
   170   86  207 1    
   171   86  208 1    
   172   86  209 1    
   173   87   88 2    
   174   87   89 am   BACKBONE|DICT|INTERRES
   175   89   90 1    
   176   89  210 1    
   177   90   91 1    
   178   90   92 1    
   179   90  211 1    
   180   91  212 1    
   181   91  213 1    
   182   91  214 1    
   183   92   93 2    
   184   92   94 am   BACKBONE|DICT|INTERRES
   185   94   95 1    
   186   94  215 1    
   187   95   96 1    
   188   95   97 1    
   189   95  216 1    
   190   96  217 1    
   191   96  218 1    
   192   96  219 1    
   193   97   98 2    
   194   97   99 am   BACKBONE|DICT|INTERRES
   195   99  100 1    
   196   99  220 1    
   197  100  101 1    
   198  100  102 1    
   199  100  221 1    
   200  101  222 1    
   201  101  223 1    
   202  101  224 1    
   203  102  103 2    
   204  102  104 am   BACKBONE|DICT|INTERRES
   205  104  105 1    
   206  104  225 1    
   207  105  106 1    
   208  105  107 1    
   209  105  226 1    
   210  106  227 1    
   211  106  228 1    
   212  106  229 1    
   213  107  108 2    
   214  107  109 am   BACKBONE|DICT|INTERRES
   215  109  110 1    
   216  109  230 1    
   217  110  111 1    
   218  110  112 1    
   219  110  231 1    
   220  111  232 1    
   221  111  233 1    
   222  111  234 1    
   223  112  113 2    
   224  112  114 am   BACKBONE|DICT|INTERRES
   225  114  115 1    
   226  114  235 1    
   227  115  116 1    
   228  115  117 1    
   229  115  236 1    
   230  116  237 1    
   231  116  238 1    
   232  116  239 1    
   233  117  118 2    
   234  117  119 am   BACKBONE|DICT|INTERRES
   235  119  120 1    
   236  119  240 1    
   237  120  121 1    
   238  120  124 1    
   239  120  241 1    
   240  121  122 am   BACKBONE|DICT|INTERRES
   241  121  123 2    
   242  122  242 1    
   243  122  243 1    
   244  124  125 1    
   245  124  244 1    
   246  124  245 1    
   247  125  126 1    
   248  126  246 1    
   249  126  247 1    
@<TRIPOS>SUBSTRUCTURE
     1 UNK         1 GROUP             0       ****    0 ROOT    
