@<TRIPOS>MOLECULE
3R540
247   249    1
SMALL
USER_CHARGES


@<TRIPOS>ATOM
      1 CA         -3.3768  -13.1273  -46.2921 C.3       0 UNK        -0.1800 
      2 C          -2.0888  -12.5804  -46.8902 C.2       0 UNK         0.5000 
      3 O          -2.1291  -11.6348  -47.6772 O.2       0 UNK        -0.5000 
      4 N          -0.9430  -13.1556  -46.5076 N.am      1 UNK        -0.5000 
      5 CA          0.4069  -12.8334  -46.9951 C.3       1 UNK         0.1400 
      6 C6          1.3733  -14.0351  -46.8246 C.3       23 UNK        -0.0398 
      7 S7          0.7737  -15.5579  -47.6293 S.3       23 UNK        -0.2404 
      8 C8          1.8645  -15.6366  -49.0803 C.3       23 UNK        -0.0205 
      9 C9          1.6043  -16.9005  -49.8815 C.ar      23 UNK        -0.0193 
     10 C10         0.7996  -16.8688  -51.0239 C.ar      23 UNK        -0.1150 
     11 C11         0.5567  -18.0347  -51.7578 C.ar      23 UNK        -0.0193 
     12 C12         1.1262  -19.2403  -51.3294 C.ar      23 UNK        -0.1150 
     13 C13         1.9171  -19.2887  -50.1783 C.ar      23 UNK        -0.0193 
     14 C14         2.1679  -18.1096  -49.4708 C.ar      23 UNK        -0.1150 
     15 C15         2.4904  -20.6190  -49.7037 C.3       23 UNK        -0.0205 
     16 S16         2.2067  -20.9213  -47.9276 S.3       23 UNK        -0.2404 
     17 C17         0.3893  -20.7625  -47.8026 C.3       23 UNK        -0.0398 
     18 CA         -0.2148  -21.8384  -46.8715 C.3       11 UNK         0.1400 
     19 N           0.2829  -21.7127  -45.4979 N.am      11 UNK        -0.5000 
     20 C           0.3672  -22.7163  -44.6176 C.2       10 UNK         0.5000 
     21 O          -0.0497  -23.8537  -44.8379 O.2       10 UNK        -0.5000 
     22 CA          0.9925  -22.3796  -43.2528 C.3       10 UNK         0.1400 
     23 CB          2.5166  -22.2269  -43.3742 C.3       10 UNK        -0.1800 
     24 N           0.4219  -21.1710  -42.6557 N.am      10 UNK        -0.5000 
     25 C          -0.8420  -21.0707  -42.2205 C.2       9 UNK         0.5000 
     26 O          -1.6534  -21.9949  -42.2689 O.2       9 UNK        -0.5000 
     27 CA         -1.2817  -19.7132  -41.6433 C.3       9 UNK         0.1400 
     28 CB         -0.8169  -19.5672  -40.1865 C.3       9 UNK        -0.1800 
     29 N          -0.7969  -18.5783  -42.4269 N.am      9 UNK        -0.5000 
     30 C          -1.1984  -18.2848  -43.6718 C.2       8 UNK         0.5000 
     31 O          -2.0599  -18.9163  -44.2814 O.2       8 UNK        -0.5000 
     32 CA         -0.4905  -17.1074  -44.3678 C.3       8 UNK         0.1400 
     33 CB         -1.0712  -15.7653  -43.8976 C.3       8 UNK        -0.1800 
     34 N           0.9569  -17.1136  -44.1568 N.am      8 UNK        -0.5000 
     35 C           1.7751  -18.1084  -44.5289 C.2       7 UNK         0.5000 
     36 O           1.4023  -19.1277  -45.1061 O.2       7 UNK        -0.5000 
     37 CA          3.2498  -17.9694  -44.1255 C.3       7 UNK         0.1400 
     38 CB          3.9964  -17.0420  -45.0969 C.3       7 UNK        -0.1800 
     39 N           3.3826  -17.4816  -42.7517 N.am      7 UNK        -0.5000 
     40 C           3.0466  -18.1953  -41.6662 C.2       6 UNK         0.5000 
     41 O           2.6355  -19.3548  -41.7104 O.2       6 UNK        -0.5000 
     42 CA          3.1439  -17.4788  -40.3068 C.3       6 UNK         0.1400 
     43 CB          4.5895  -17.4908  -39.7880 C.3       6 UNK        -0.1800 
     44 N           2.6582  -16.0995  -40.3623 N.am      6 UNK        -0.5000 
     45 C           1.3840  -15.7534  -40.5955 C.2       5 UNK         0.5000 
     46 O           0.4724  -16.5667  -40.7395 O.2       5 UNK        -0.5000 
     47 CA          1.0861  -14.2484  -40.7390 C.3       5 UNK         0.1400 
     48 CB          0.7471  -13.6317  -39.3744 C.3       5 UNK        -0.1800 
     49 N           2.1772  -13.4885  -41.3542 N.am      5 UNK        -0.5000 
     50 C           2.6832  -13.7091  -42.5738 C.2       4 UNK         0.5000 
     51 O           2.2811  -14.6018  -43.3220 O.2       4 UNK        -0.5000 
     52 CA          3.8281  -12.7752  -43.0088 C.3       4 UNK         0.1400 
     53 CB          4.5231  -13.2425  -44.2997 C.3       4 UNK        -0.1800 
     54 N           3.3541  -11.4003  -43.1763 N.am      4 UNK        -0.5000 
     55 C           3.1888  -10.5248  -42.1730 C.2       3 UNK         0.5000 
     56 O           3.4005  -10.8104  -40.9927 O.2       3 UNK        -0.5000 
     57 CA          2.7228   -9.0965  -42.5201 C.3       3 UNK         0.1400 
     58 CB          3.9028   -8.1156  -42.4369 C.3       3 UNK        -0.1800 
     59 N           2.1109   -8.9798  -43.8433 N.am      3 UNK        -0.5000 
     60 C           0.8695   -9.3751  -44.1510 C.2       2 UNK         0.5000 
     61 O           0.0910   -9.8735  -43.3362 O.2       2 UNK        -0.5000 
     62 CA          0.4158   -9.2036  -45.6175 C.3       2 UNK         0.1400 
     63 CB          1.3849   -8.3760  -46.4925 C.3       2 UNK        -0.1800 
     64 N           0.1426  -10.4976  -46.2471 N.am      2 UNK        -0.5000 
     65 C           0.9748  -11.5432  -46.3508 C.2       1 UNK         0.5000 
     66 O           2.1401  -11.5138  -45.9505 O.2       1 UNK        -0.5000 
     67 C          -1.7563  -21.8731  -46.9574 C.2       11 UNK         0.5000 
     68 O          -2.2880  -22.0390  -48.0540 O.2       11 UNK        -0.5000 
     69 N          -2.4615  -21.7650  -45.8211 N.am      12 UNK        -0.5000 
     70 CA         -3.9036  -22.0037  -45.7287 C.3       12 UNK         0.1400 
     71 CB         -4.4218  -21.5414  -44.3593 C.3       12 UNK        -0.1800 
     72 C          -4.2738  -23.4810  -45.9682 C.2       12 UNK         0.5000 
     73 O          -5.3823  -23.7545  -46.4310 O.2       12 UNK        -0.5000 
     74 N          -3.3396  -24.4010  -45.6761 N.am      13 UNK        -0.5000 
     75 CA         -3.4510  -25.8408  -45.9113 C.3       13 UNK         0.1400 
     76 CB         -2.1820  -26.5359  -45.3950 C.3       13 UNK        -0.1800 
     77 C          -3.6839  -26.1437  -47.4025 C.2       13 UNK         0.5000 
     78 O          -2.7990  -25.8880  -48.2228 O.2       13 UNK        -0.5000 
     79 N          -4.9036  -26.6026  -47.7217 N.am      14 UNK        -0.5000 
     80 CA         -5.4401  -26.8518  -49.0676 C.3       14 UNK         0.1400 
     81 CB         -4.7113  -28.0445  -49.7226 C.3       14 UNK        -0.1800 
     82 C          -5.4428  -25.6047  -49.9818 C.2       14 UNK         0.5000 
     83 O          -5.4623  -25.7513  -51.2055 O.2       14 UNK        -0.5000 
     84 N          -5.3716  -24.4027  -49.3828 N.am      15 UNK        -0.5000 
     85 CA         -5.1484  -23.1065  -50.0359 C.3       15 UNK         0.1400 
     86 CB         -6.4453  -22.6271  -50.7132 C.3       15 UNK        -0.1800 
     87 C          -3.9120  -23.1176  -50.9671 C.2       15 UNK         0.5000 
     88 O          -3.9651  -22.6164  -52.0923 O.2       15 UNK        -0.5000 
     89 N          -2.8425  -23.7662  -50.4788 N.am      16 UNK        -0.5000 
     90 CA         -1.5436  -24.0270  -51.1074 C.3       16 UNK         0.1400 
     91 CB         -0.8508  -22.7120  -51.5158 C.3       16 UNK        -0.1800 
     92 C          -1.5889  -25.0310  -52.2783 C.2       16 UNK         0.5000 
     93 O          -0.5474  -25.2815  -52.8850 O.2       16 UNK        -0.5000 
     94 N          -2.7756  -25.5771  -52.5898 N.am      17 UNK        -0.5000 
     95 CA         -3.0938  -26.5015  -53.6865 C.3       17 UNK         0.1400 
     96 CB         -2.3541  -27.8424  -53.5080 C.3       17 UNK        -0.1800 
     97 C          -2.9015  -25.9145  -55.1043 C.2       17 UNK         0.5000 
     98 O          -3.0748  -26.6350  -56.0887 O.2       17 UNK        -0.5000 
     99 N          -2.5924  -24.6149  -55.2040 N.am      18 UNK        -0.5000 
    100 CA        -2.3557  -23.8741  -56.4427 C.3       18 UNK         0.1400 
    101 CB        -1.4049  -22.7034  -56.1315 C.3       18 UNK        -0.1800 
    102 C         -3.6914  -23.4059  -57.0471 C.2       18 UNK         0.5000 
    103 O         -3.9560  -22.2051  -57.1106 O.2       18 UNK        -0.5000 
    104 N         -4.5577  -24.3734  -57.3854 N.am      19 UNK        -0.5000 
    105 CA        -5.9520  -24.2023  -57.8274 C.3       19 UNK         0.1400 
    106 CB        -6.0004  -23.5429  -59.2213 C.3       19 UNK        -0.1800 
    107 C         -6.8347  -23.4620  -56.7931 C.2       19 UNK         0.5000 
    108 O         -7.8454  -22.8603  -57.1585 O.2       19 UNK        -0.5000 
    109 N         -6.4043  -23.5031  -55.5227 N.am      20 UNK        -0.5000 
    110 CA        -6.9190  -22.7781  -54.3591 C.3       20 UNK         0.1400 
    111 CB        -8.3452  -23.2457  -54.0034 C.3       20 UNK        -0.1800 
    112 C         -6.8033  -21.2394  -54.4596 C.2       20 UNK         0.5000 
    113 O         -7.4665  -20.5320  -53.6983 O.2       20 UNK        -0.5000 
    114 N         -5.9535  -20.7327  -55.3678 N.am      21 UNK        -0.5000 
    115 CA        -5.7871  -19.3031  -55.6494 C.3       21 UNK         0.1400 
    116 CB        -4.9217  -19.1312  -56.9066 C.3       21 UNK        -0.1800 
    117 C         -5.1964  -18.4953  -54.4784 C.2       21 UNK         0.5000 
    118 O         -5.4365  -17.2898  -54.3971 O.2       21 UNK        -0.5000 
    119 N         -4.4521  -19.1678  -53.5928 N.am      22 UNK        -0.5000 
    120 CA        -3.8675  -18.5837  -52.3756 C.3       22 UNK         0.1400 
    121 C         -4.8640  -18.4847  -51.1817 C.2       22 UNK         0.5000 
    122 N         -6.1068  -18.9404  -51.3006 N.am      22 UNK        -0.7600 
    123 O         -4.5076  -17.9679  -50.1269 O.2       22 UNK        -0.5000 
    124 C124       -2.5547  -19.2959  -51.9598 C.3       23 UNK        -0.0398 
    125 S125       -1.3465  -19.4169  -53.3255 S.3       23 UNK        -0.2404 
    126 C126       -0.2929  -17.9575  -53.0250 C.3       23 UNK        -0.0205 
    127 H127       -3.8904  -12.3473  -45.7301 H         1 UNK         0.0600 
    128 H128       -3.1894  -13.9639  -45.6194 H         1 UNK         0.0600 
    129 H129       -4.0409  -13.4717  -47.0848 H         1 UNK         0.0600 
    130 H130       -0.9818  -13.9199  -45.8507 H         1 UNK         0.3000 
    131 H131        0.3358  -12.6279  -48.0652 H         1 UNK         0.0600 
    132 H132        1.5164  -14.2568  -45.7672 H         1 UNK         0.0800 
    133 H133        2.3627  -13.7937  -47.2166 H         1 UNK         0.0800 
    134 H134        1.7122  -14.7511  -49.6994 H         1 UNK         0.0800 
    135 H135        2.9066  -15.6179  -48.7571 H         1 UNK         0.0800 
    136 H136        0.3659  -15.9318  -51.3441 H         1 UNK         0.1150 
    137 H137        0.9496  -20.1470  -51.8901 H         1 UNK         0.1150 
    138 H138        2.7817  -18.1364  -48.5812 H         1 UNK         0.1150 
    139 H139        2.0637  -21.4489  -50.2694 H         1 UNK         0.0800 
    140 H140        3.5635  -20.6297  -49.8977 H         1 UNK         0.0800 
    141 H141       -0.0364  -20.8408  -48.8037 H         1 UNK         0.0800 
    142 H142        0.1469  -19.7595  -47.4469 H         1 UNK         0.0800 
    143 H143        0.1128  -22.8078  -47.2542 H         1 UNK         0.0600 
    144 H144        0.6597  -20.7991  -45.2487 H         1 UNK         0.3000 
    145 H145        0.7910  -23.2157  -42.5799 H         1 UNK         0.0600 
    146 H146        2.9651  -23.1176  -43.8158 H         1 UNK         0.0600 
    147 H147        2.7885  -21.3767  -44.0007 H         1 UNK         0.0600 
    148 H148        2.9764  -22.0817  -42.3966 H         1 UNK         0.0600 
    149 H149        1.0462  -20.3788  -42.5462 H         1 UNK         0.3000 
    150 H150       -2.3734  -19.6867  -41.6544 H         1 UNK         0.0600 
    151 H151       -1.1704  -20.3997  -39.5770 H         1 UNK         0.0600 
    152 H152       -1.2033  -18.6505  -39.7406 H         1 UNK         0.0600 
    153 H153        0.2709  -19.5418  -40.1114 H         1 UNK         0.0600 
    154 H154       -0.1266  -17.9656  -41.9719 H         1 UNK         0.3000 
    155 H155       -0.6642  -17.2002  -45.4417 H         1 UNK         0.0600 
    156 H156       -0.5351  -14.9246  -44.3351 H         1 UNK         0.0600 
    157 H157       -1.0191  -15.6618  -42.8143 H         1 UNK         0.0600 
    158 H158       -2.1202  -15.6779  -44.1813 H         1 UNK         0.0600 
    159 H159        1.3626  -16.2968  -43.7100 H         1 UNK         0.3000 
    160 H160        3.7100  -18.9582  -44.1814 H         1 UNK         0.0600 
    161 H161        3.5520  -16.0478  -45.1346 H         1 UNK         0.0600 
    162 H162        3.9691  -17.4447  -46.1104 H         1 UNK         0.0600 
    163 H163        5.0442  -16.9341  -44.8169 H         1 UNK         0.0600 
    164 H164        3.6427  -16.5132  -42.6378 H         1 UNK         0.3000 
    165 H165        2.5220  -18.0282  -39.5966 H         1 UNK         0.0600 
    166 H166        4.6537  -17.0563  -38.7903 H         1 UNK         0.0600 
    167 H167        4.9712  -18.5106  -39.7222 H         1 UNK         0.0600 
    168 H168        5.2591  -16.9311  -40.4422 H         1 UNK         0.0600 
    169 H169        3.3427  -15.3663  -40.2525 H         1 UNK         0.3000 
    170 H170        0.2124  -14.1461  -41.3850 H         1 UNK         0.0600 
    171 H171       -0.0804  -14.1618  -38.9008 H         1 UNK         0.0600 
    172 H172        1.5972  -13.6716  -38.6922 H         1 UNK         0.0600 
    173 H173        0.4475  -12.5885  -39.4769 H         1 UNK         0.0600 
    174 H174        2.5448  -12.7024  -40.8293 H         1 UNK         0.3000 
    175 H175        4.5810  -12.7958  -42.2180 H         1 UNK         0.0600 
    176 H176        5.3213  -12.5585  -44.5880 H         1 UNK         0.0600 
    177 H177        4.9741  -14.2255  -44.1618 H         1 UNK         0.0600 
    178 H178        3.8293  -13.3171  -45.1358 H         1 UNK         0.0600 
    179 H179        3.0811  -11.1350  -44.1167 H         1 UNK         0.3000 
    180 H180        1.9856   -8.8035  -41.7695 H         1 UNK         0.0600 
    181 H181        4.6745   -8.3511  -43.1709 H         1 UNK         0.0600 
    182 H182        4.3681   -8.1452  -41.4506 H         1 UNK         0.0600 
    183 H183        3.5765   -7.0897  -42.6089 H         1 UNK         0.0600 
    184 H184        2.6917   -8.6043  -44.5789 H         1 UNK         0.3000 
    185 H185       -0.5343   -8.6687  -45.5815 H         1 UNK         0.0600 
    186 H186        1.5500   -7.3844  -46.0692 H         1 UNK         0.0600 
    187 H187        2.3563   -8.8582  -46.6074 H         1 UNK         0.0600 
    188 H188        0.9736   -8.2299  -47.4914 H         1 UNK         0.0600 
    189 H189       -0.7952  -10.6256  -46.6138 H         1 UNK         0.3000 
    190 H190       -1.9683  -21.5880  -44.9570 H         1 UNK         0.3000 
    191 H191       -4.3975  -21.4075  -46.4989 H         1 UNK         0.0600 
    192 H192       -3.9763  -22.1137  -43.5457 H         1 UNK         0.0600 
    193 H193       -4.2078  -20.4870  -44.1877 H         1 UNK         0.0600 
    194 H194       -5.5033  -21.6660  -44.2910 H         1 UNK         0.0600 
    195 H195       -2.4450  -24.0779  -45.3326 H         1 UNK         0.3000 
    196 H196       -4.3000  -26.2100  -45.3325 H         1 UNK         0.0600 
    197 H197       -2.2421  -27.6154  -45.5389 H         1 UNK         0.0600 
    198 H198       -2.0387  -26.3561  -44.3293 H         1 UNK         0.0600 
    199 H199       -1.2897  -26.1841  -45.9149 H         1 UNK         0.0600 
    200 H200       -5.5685  -26.7284  -46.9706 H         1 UNK         0.3000 
    201 H201       -6.4860  -27.1318  -48.9354 H         1 UNK         0.0600 
    202 H202       -4.7132  -28.9162  -49.0684 H         1 UNK         0.0600 
    203 H203       -3.6742  -27.8044  -49.9594 H         1 UNK         0.0600 
    204 H204       -5.1970  -28.3394  -50.6535 H         1 UNK         0.0600 
    205 H205       -5.3783  -24.3788  -48.3678 H         1 UNK         0.3000 
    206 H206       -4.9103  -22.3936  -49.2449 H         1 UNK         0.0600 
    207 H207       -7.2132  -22.4135  -49.9699 H         1 UNK         0.0600 
    208 H208       -6.2869  -21.7125  -51.2834 H         1 UNK         0.0600 
    209 H209       -6.8475  -23.3801  -51.3885 H         1 UNK         0.0600 
    210 H210       -2.9361  -24.1746  -49.5551 H         1 UNK         0.3000 
    211 H211       -0.9353  -24.4932  -50.3312 H         1 UNK         0.0600 
    212 H212       -1.3232  -22.2662  -52.3908 H         1 UNK         0.0600 
    213 H213        0.1966  -22.8825  -51.7664 H         1 UNK         0.0600 
    214 H214       -0.8776  -21.9801  -50.7094 H         1 UNK         0.0600 
    215 H215       -3.5754  -25.3095  -52.0263 H         1 UNK         0.3000 
    216 H216       -4.1616  -26.7051  -53.5950 H         1 UNK         0.0600 
    217 H217       -2.7035  -28.5814  -54.2299 H         1 UNK         0.0600 
    218 H218       -2.5250  -28.2565  -52.5142 H         1 UNK         0.0600 
    219 H219       -1.2782  -27.7357  -53.6479 H         1 UNK         0.0600 
    220 H220       -2.5038  -24.0889  -54.3467 H         1 UNK         0.3000 
    221 H221       -1.8674  -24.5239  -57.1718 H         1 UNK         0.0600 
    222 H222       -1.8320  -22.0186  -55.3970 H         1 UNK         0.0600 
    223 H223       -0.4543  -23.0630  -55.7368 H         1 UNK         0.0600 
    224 H224       -1.1861  -22.1266  -57.0309 H         1 UNK         0.0600 
    225 H225       -4.2513  -25.3314  -57.2489 H         1 UNK         0.3000 
    226 H226       -6.3700  -25.2055  -57.9196 H         1 UNK         0.0600 
    227 H227       -5.3715  -24.0782  -59.9327 H         1 UNK         0.0600 
    228 H228       -7.0148  -23.5460  -59.6217 H         1 UNK         0.0600 
    229 H229       -5.6651  -22.5057  -59.1910 H         1 UNK         0.0600 
    230 H230       -5.5576  -24.0262  -55.3552 H         1 UNK         0.3000 
    231 H231       -6.2602  -23.0654  -53.5414 H         1 UNK         0.0600 
    232 H232       -9.0693  -22.9518  -54.7634 H         1 UNK         0.0600 
    233 H233       -8.6760  -22.8162  -53.0571 H         1 UNK         0.0600 
    234 H234       -8.3889  -24.3295  -53.8972 H         1 UNK         0.0600 
    235 H235       -5.4095  -21.3655  -55.9455 H         1 UNK         0.3000 
    236 H236       -6.7766  -18.8928  -55.8611 H         1 UNK         0.0600 
    237 H237       -5.3468  -19.6659  -57.7564 H         1 UNK         0.0600 
    238 H238       -4.8450  -18.0802  -57.1879 H         1 UNK         0.0600 
    239 H239       -3.9084  -19.5027  -56.7486 H         1 UNK         0.0600 
    240 H240       -4.3039  -20.1571  -53.7302 H         1 UNK         0.3000 
    241 H241       -3.5969  -17.5513  -52.6046 H         1 UNK         0.0600 
    242 H242       -6.7389  -18.8521  -50.5214 H         1 UNK         0.3800 
    243 H243       -6.4318  -19.3577  -52.1634 H         1 UNK         0.3800 
    244 H244       -2.0899  -18.7841  -51.1155 H         1 UNK         0.0800 
    245 H245       -2.7689  -20.3060  -51.6118 H         1 UNK         0.0800 
    246 H246        0.3770  -17.8355  -53.8768 H         1 UNK         0.0800 
    247 H247       -0.9298  -17.0718  -53.0047 H         1 UNK         0.0800 
@<TRIPOS>BOND
     1    1    2 1    
     2    1  127 1    
     3    1  128 1    
     4    1  129 1    
     5    2    3 2    
     6    2    4 am   BACKBONE|DICT|INTERRES
     7    4    5 1    
     8    4  130 1    
     9    5    6 1    
    10    5   65 1    
    11    5  131 1    
    12    6    7 1    
    13    6  132 1    
    14    6  133 1    
    15    7    8 1    
    16    8    9 1    
    17    8  134 1    
    18    8  135 1    
    19    9   10 ar   
    20    9   14 ar   
    21   10   11 ar   
    22   10  136 1    
    23   11   12 ar   
    24   11  126 1    
    25   12   13 ar   
    26   12  137 1    
    27   13   14 ar   
    28   13   15 1    
    29   14  138 1    
    30   15   16 1    
    31   15  139 1    
    32   15  140 1    
    33   16   17 1    
    34   17   18 1    
    35   17  141 1    
    36   17  142 1    
    37   18   19 1    
    38   18   67 1    
    39   18  143 1    
    40   19   20 am   BACKBONE|DICT|INTERRES
    41   19  144 1    
    42   20   21 2    
    43   20   22 1    
    44   22   23 1    
    45   22   24 1    
    46   22  145 1    
    47   23  146 1    
    48   23  147 1    
    49   23  148 1    
    50   24   25 am   BACKBONE|DICT|INTERRES
    51   24  149 1    
    52   25   26 2    
    53   25   27 1    
    54   27   28 1    
    55   27   29 1    
    56   27  150 1    
    57   28  151 1    
    58   28  152 1    
    59   28  153 1    
    60   29   30 am   BACKBONE|DICT|INTERRES
    61   29  154 1    
    62   30   31 2    
    63   30   32 1    
    64   32   33 1    
    65   32   34 1    
    66   32  155 1    
    67   33  156 1    
    68   33  157 1    
    69   33  158 1    
    70   34   35 am   BACKBONE|DICT|INTERRES
    71   34  159 1    
    72   35   36 2    
    73   35   37 1    
    74   37   38 1    
    75   37   39 1    
    76   37  160 1    
    77   38  161 1    
    78   38  162 1    
    79   38  163 1    
    80   39   40 am   BACKBONE|DICT|INTERRES
    81   39  164 1    
    82   40   41 2    
    83   40   42 1    
    84   42   43 1    
    85   42   44 1    
    86   42  165 1    
    87   43  166 1    
    88   43  167 1    
    89   43  168 1    
    90   44   45 am   BACKBONE|DICT|INTERRES
    91   44  169 1    
    92   45   46 2    
    93   45   47 1    
    94   47   48 1    
    95   47   49 1    
    96   47  170 1    
    97   48  171 1    
    98   48  172 1    
    99   48  173 1    
   100   49   50 am   BACKBONE|DICT|INTERRES
   101   49  174 1    
   102   50   51 2    
   103   50   52 1    
   104   52   53 1    
   105   52   54 1    
   106   52  175 1    
   107   53  176 1    
   108   53  177 1    
   109   53  178 1    
   110   54   55 am   BACKBONE|DICT|INTERRES
   111   54  179 1    
   112   55   56 2    
   113   55   57 1    
   114   57   58 1    
   115   57   59 1    
   116   57  180 1    
   117   58  181 1    
   118   58  182 1    
   119   58  183 1    
   120   59   60 am   BACKBONE|DICT|INTERRES
   121   59  184 1    
   122   60   61 2    
   123   60   62 1    
   124   62   63 1    
   125   62   64 1    
   126   62  185 1    
   127   63  186 1    
   128   63  187 1    
   129   63  188 1    
   130   64   65 am   BACKBONE|DICT|INTERRES
   131   64  189 1    
   132   65   66 2    
   133   67   68 2    
   134   67   69 am   BACKBONE|DICT|INTERRES
   135   69   70 1    
   136   69  190 1    
   137   70   71 1    
   138   70   72 1    
   139   70  191 1    
   140   71  192 1    
   141   71  193 1    
   142   71  194 1    
   143   72   73 2    
   144   72   74 am   BACKBONE|DICT|INTERRES
   145   74   75 1    
   146   74  195 1    
   147   75   76 1    
   148   75   77 1    
   149   75  196 1    
   150   76  197 1    
   151   76  198 1    
   152   76  199 1    
   153   77   78 2    
   154   77   79 am   BACKBONE|DICT|INTERRES
   155   79   80 1    
   156   79  200 1    
   157   80   81 1    
   158   80   82 1    
   159   80  201 1    
   160   81  202 1    
   161   81  203 1    
   162   81  204 1    
   163   82   83 2    
   164   82   84 am   BACKBONE|DICT|INTERRES
   165   84   85 1    
   166   84  205 1    
   167   85   86 1    
   168   85   87 1    
   169   85  206 1    
   170   86  207 1    
   171   86  208 1    
   172   86  209 1    
   173   87   88 2    
   174   87   89 am   BACKBONE|DICT|INTERRES
   175   89   90 1    
   176   89  210 1    
   177   90   91 1    
   178   90   92 1    
   179   90  211 1    
   180   91  212 1    
   181   91  213 1    
   182   91  214 1    
   183   92   93 2    
   184   92   94 am   BACKBONE|DICT|INTERRES
   185   94   95 1    
   186   94  215 1    
   187   95   96 1    
   188   95   97 1    
   189   95  216 1    
   190   96  217 1    
   191   96  218 1    
   192   96  219 1    
   193   97   98 2    
   194   97   99 am   BACKBONE|DICT|INTERRES
   195   99  100 1    
   196   99  220 1    
   197  100  101 1    
   198  100  102 1    
   199  100  221 1    
   200  101  222 1    
   201  101  223 1    
   202  101  224 1    
   203  102  103 2    
   204  102  104 am   BACKBONE|DICT|INTERRES
   205  104  105 1    
   206  104  225 1    
   207  105  106 1    
   208  105  107 1    
   209  105  226 1    
   210  106  227 1    
   211  106  228 1    
   212  106  229 1    
   213  107  108 2    
   214  107  109 am   BACKBONE|DICT|INTERRES
   215  109  110 1    
   216  109  230 1    
   217  110  111 1    
   218  110  112 1    
   219  110  231 1    
   220  111  232 1    
   221  111  233 1    
   222  111  234 1    
   223  112  113 2    
   224  112  114 am   BACKBONE|DICT|INTERRES
   225  114  115 1    
   226  114  235 1    
   227  115  116 1    
   228  115  117 1    
   229  115  236 1    
   230  116  237 1    
   231  116  238 1    
   232  116  239 1    
   233  117  118 2    
   234  117  119 am   BACKBONE|DICT|INTERRES
   235  119  120 1    
   236  119  240 1    
   237  120  121 1    
   238  120  124 1    
   239  120  241 1    
   240  121  122 am   BACKBONE|DICT|INTERRES
   241  121  123 2    
   242  122  242 1    
   243  122  243 1    
   244  124  125 1    
   245  124  244 1    
   246  124  245 1    
   247  125  126 1    
   248  126  246 1    
   249  126  247 1    
@<TRIPOS>SUBSTRUCTURE
     1 UNK         1 GROUP             0       ****    0 ROOT    
