@<TRIPOS>MOLECULE
3R540
247   249    1
SMALL
USER_CHARGES


@<TRIPOS>ATOM
      1 CA         -3.6858  -17.3223  -44.4233 C.3       0 UNK        -0.1800 
      2 C          -2.9856  -16.8578  -45.6927 C.2       0 UNK         0.5000 
      3 O          -3.6149  -16.7732  -46.7465 O.2       0 UNK        -0.5000 
      4 N          -1.6870  -16.5513  -45.5909 N.am      1 UNK        -0.5000 
      5 CA         -0.8761  -15.9584  -46.6573 C.3       1 UNK         0.1400 
      6 C6          0.6280  -16.0831  -46.3017 C.3       23 UNK        -0.0398 
      7 S7          1.7850  -15.2338  -47.4333 S.3       23 UNK        -0.2404 
      8 C8          2.4687  -16.6125  -48.4027 C.3       23 UNK        -0.0205 
      9 C9          1.4440  -17.2186  -49.3500 C.ar      23 UNK        -0.0193 
     10 C10         0.9979  -16.4941  -50.4593 C.ar      23 UNK        -0.1150 
     11 C11         0.0762  -17.0555  -51.3470 C.ar      23 UNK        -0.0193 
     12 C12        -0.3850  -18.3560  -51.1295 C.ar      23 UNK        -0.1150 
     13 C13         0.0456  -19.0900  -50.0210 C.ar      23 UNK        -0.0193 
     14 C14         0.9564  -18.5101  -49.1301 C.ar      23 UNK        -0.1150 
     15 C15        -0.5249  -20.4814  -49.7781 C.3       23 UNK        -0.0205 
     16 S16         0.7513  -21.7716  -49.5612 S.3       23 UNK        -0.2404 
     17 C17         0.8285  -21.8826  -47.7364 C.3       23 UNK        -0.0398 
     18 CA          0.0034  -23.0335  -47.1014 C.3       11 UNK         0.1400 
     19 N           0.1047  -23.0123  -45.6394 N.am      11 UNK        -0.5000 
     20 C          -0.4324  -23.9216  -44.8089 C.2       10 UNK         0.5000 
     21 O          -1.0122  -24.9377  -45.1911 O.2       10 UNK        -0.5000 
     22 CA         -0.3692  -23.6174  -43.2976 C.3       10 UNK         0.1400 
     23 CB          0.8851  -24.2481  -42.6762 C.3       10 UNK        -0.1800 
     24 N          -0.3876  -22.1861  -42.9901 N.am      10 UNK        -0.5000 
     25 C          -1.3484  -21.3227  -43.3508 C.2       9 UNK         0.5000 
     26 O          -2.3949  -21.6623  -43.9046 O.2       9 UNK        -0.5000 
     27 CA         -1.0651  -19.8238  -43.1205 C.3       9 UNK         0.1400 
     28 CB         -1.8386  -19.3135  -41.8976 C.3       9 UNK        -0.1800 
     29 N           0.3582  -19.4886  -42.9743 N.am      9 UNK        -0.5000 
     30 C           1.3002  -19.6887  -43.9109 C.2       8 UNK         0.5000 
     31 O           1.0590  -20.2134  -44.9971 O.2       8 UNK        -0.5000 
     32 CA          2.7493  -19.2747  -43.5936 C.3       8 UNK         0.1400 
     33 CB          3.2702  -18.2587  -44.6222 C.3       8 UNK        -0.1800 
     34 N           2.8914  -18.7087  -42.2529 N.am      8 UNK        -0.5000 
     35 C           3.2577  -19.3979  -41.1630 C.2       7 UNK         0.5000 
     36 O           3.5185  -20.6011  -41.1738 O.2       7 UNK        -0.5000 
     37 CA          3.3397  -18.6202  -39.8328 C.3       7 UNK         0.1400 
     38 CB          4.7923  -18.2154  -39.5392 C.3       7 UNK        -0.1800 
     39 N           2.5005  -17.4204  -39.8088 N.am      7 UNK        -0.5000 
     40 C           1.1605  -17.4267  -39.8024 C.2       6 UNK         0.5000 
     41 O           0.4871  -18.4549  -39.7553 O.2       6 UNK        -0.5000 
     42 CA          0.4571  -16.0608  -39.9246 C.3       6 UNK         0.1400 
     43 CB          0.1285  -15.4976  -38.5342 C.3       6 UNK        -0.1800 
     44 N           1.2253  -15.0643  -40.6793 N.am      6 UNK        -0.5000 
     45 C           1.5888  -15.1848  -41.9625 C.2       5 UNK         0.5000 
     46 O           1.3216  -16.1663  -42.6581 O.2       5 UNK        -0.5000 
     47 CA          2.3628  -14.0041  -42.5708 C.3       5 UNK         0.1400 
     48 CB          3.4435  -14.4724  -43.5606 C.3       5 UNK        -0.1800 
     49 N           1.4374  -13.1191  -43.2663 N.am      5 UNK        -0.5000 
     50 C           0.6215  -12.2330  -42.6803 C.2       4 UNK         0.5000 
     51 O           0.6192  -12.0115  -41.4680 O.2       4 UNK        -0.5000 
     52 CA         -0.3686  -11.4951  -43.6052 C.3       4 UNK         0.1400 
     53 CB         -0.7366  -10.0841  -43.1000 C.3       4 UNK        -0.1800 
     54 N           0.0591  -11.4790  -45.0097 N.am      4 UNK        -0.5000 
     55 C           1.0886  -10.8082  -45.5537 C.2       3 UNK         0.5000 
     56 O           1.8154  -10.0429  -44.9198 O.2       3 UNK        -0.5000 
     57 CA          1.3882  -11.0508  -47.0509 C.3       3 UNK         0.1400 
     58 CB          2.7987  -11.6364  -47.2301 C.3       3 UNK        -0.1800 
     59 N           0.4244  -11.9422  -47.7019 N.am      3 UNK        -0.5000 
     60 C          -0.8132  -11.5910  -48.0782 C.2       2 UNK         0.5000 
     61 O          -1.2442  -10.4401  -48.0037 O.2       2 UNK        -0.5000 
     62 CA         -1.7421  -12.7136  -48.5857 C.3       2 UNK         0.1400 
     63 CB         -1.8439  -12.6742  -50.1170 C.3       2 UNK        -0.1800 
     64 N          -1.3608  -14.0669  -48.1606 N.am      2 UNK        -0.5000 
     65 C          -1.3158  -14.4941  -46.8901 C.2       1 UNK         0.5000 
     66 O          -1.5586  -13.7702  -45.9207 O.2       1 UNK        -0.5000 
     67 C          -1.4705  -22.9863  -47.5504 C.2       11 UNK         0.5000 
     68 O          -1.8734  -23.7858  -48.3931 O.2       11 UNK        -0.5000 
     69 N          -2.2437  -22.0558  -46.9748 N.am      12 UNK        -0.5000 
     70 CA         -3.6518  -21.8446  -47.3022 C.3       12 UNK         0.1400 
     71 CB         -4.0959  -20.4700  -46.7851 C.3       12 UNK        -0.1800 
     72 C          -4.5495  -22.9612  -46.7473 C.2       12 UNK         0.5000 
     73 O          -5.5093  -23.3477  -47.4131 O.2       12 UNK        -0.5000 
     74 N          -4.1994  -23.4825  -45.5624 N.am      13 UNK        -0.5000 
     75 CA         -4.8691  -24.6165  -44.9238 C.3       13 UNK         0.1400 
     76 CB         -4.3339  -24.7891  -43.4946 C.3       13 UNK        -0.1800 
     77 C          -4.7171  -25.9222  -45.7280 C.2       13 UNK         0.5000 
     78 O          -5.6953  -26.6519  -45.8931 O.2       13 UNK        -0.5000 
     79 N          -3.5024  -26.1786  -46.2333 N.am      14 UNK        -0.5000 
     80 CA         -3.1891  -27.3235  -47.0911 C.3       14 UNK         0.1400 
     81 CB         -1.6757  -27.5826  -47.0282 C.3       14 UNK        -0.1800 
     82 C          -3.6256  -27.1256  -48.5565 C.2       14 UNK         0.5000 
     83 O          -3.7492  -28.1121  -49.2831 O.2       14 UNK        -0.5000 
     84 N          -3.8055  -25.8608  -48.9664 N.am      15 UNK        -0.5000 
     85 CA         -3.9779  -25.3750  -50.3403 C.3       15 UNK         0.1400 
     86 CB         -5.3086  -25.8606  -50.9491 C.3       15 UNK        -0.1800 
     87 C          -2.7468  -25.6956  -51.2160 C.2       15 UNK         0.5000 
     88 O          -2.8857  -26.0813  -52.3775 O.2       15 UNK        -0.5000 
     89 N          -1.5536  -25.5380  -50.6256 N.am      16 UNK        -0.5000 
     90 CA         -0.2607  -25.9487  -51.1794 C.3       16 UNK         0.1400 
     91 CB          0.8150  -25.8122  -50.0917 C.3       16 UNK        -0.1800 
     92 C           0.1513  -25.1836  -52.4501 C.2       16 UNK         0.5000 
     93 O           0.8473  -25.7442  -53.2972 O.2       16 UNK        -0.5000 
     94 N          -0.3062  -23.9313  -52.5737 N.am      17 UNK        -0.5000 
     95 CA         -0.1078  -23.0875  -53.7537 C.3       17 UNK         0.1400 
     96 CB         -0.2758  -21.6154  -53.3419 C.3       17 UNK        -0.1800 
     97 C          -1.0710  -23.4203  -54.9111 C.2       17 UNK         0.5000 
     98 O          -0.9022  -22.8677  -55.9993 O.2       17 UNK        -0.5000 
     99 N          -2.0892  -24.2581  -54.6525 N.am      18 UNK        -0.5000 
    100 CA        -3.2627  -24.5660  -55.4805 C.3       18 UNK         0.1400 
    101 CB        -2.8777  -25.1723  -56.8442 C.3       18 UNK        -0.1800 
    102 C         -4.1964  -23.3501  -55.6226 C.2       18 UNK         0.5000 
    103 O         -5.3352  -23.3923  -55.1559 O.2       18 UNK        -0.5000 
    104 N         -3.6721  -22.2580  -56.1888 N.am      19 UNK        -0.5000 
    105 CA        -4.2821  -20.9327  -56.2272 C.3       19 UNK         0.1400 
    106 CB        -3.7357  -20.1714  -57.4478 C.3       19 UNK        -0.1800 
    107 C         -4.0174  -20.1935  -54.9000 C.2       19 UNK         0.5000 
    108 O         -3.3498  -19.1587  -54.8825 O.2       19 UNK        -0.5000 
    109 N         -4.5420  -20.7463  -53.7976 N.am      20 UNK        -0.5000 
    110 CA        -4.3754  -20.2439  -52.4281 C.3       20 UNK         0.1400 
    111 CB        -4.9146  -21.2938  -51.4450 C.3       20 UNK        -0.1800 
    112 C         -5.0140  -18.8617  -52.1712 C.2       20 UNK         0.5000 
    113 O         -4.6731  -18.2145  -51.1823 O.2       20 UNK        -0.5000 
    114 N         -5.9040  -18.4246  -53.0733 N.am      21 UNK        -0.5000 
    115 CA        -6.4600  -17.0708  -53.1248 C.3       21 UNK         0.1400 
    116 CB        -7.7255  -17.0954  -53.9969 C.3       21 UNK        -0.1800 
    117 C         -5.4598  -16.0171  -53.6525 C.2       21 UNK         0.5000 
    118 O         -5.7231  -14.8224  -53.5121 O.2       21 UNK        -0.5000 
    119 N         -4.3476  -16.4690  -54.2514 N.am      22 UNK        -0.5000 
    120 CA        -3.2323  -15.6633  -54.7815 C.3       22 UNK         0.1400 
    121 C         -3.5527  -14.8827  -56.0923 C.2       22 UNK         0.5000 
    122 N         -4.6557  -15.1591  -56.7773 N.am      22 UNK        -0.7600 
    123 O         -2.7754  -14.0322  -56.5178 O.2       22 UNK        -0.5000 
    124 C124       -2.5364  -14.7667  -53.7153 C.3       23 UNK        -0.0398 
    125 S125       -2.1225  -15.6483  -52.1720 S.3       23 UNK        -0.2404 
    126 C126       -0.4488  -16.2559  -52.5271 C.3       23 UNK        -0.0205 
    127 H127       -3.8577  -18.3972  -44.4545 H         1 UNK         0.0600 
    128 H128       -3.0984  -17.0935  -43.5342 H         1 UNK         0.0600 
    129 H129       -4.6508  -16.8253  -44.3231 H         1 UNK         0.0600 
    130 H130       -1.2409  -16.6038  -44.6867 H         1 UNK         0.3000 
    131 H131       -1.0559  -16.5226  -47.5754 H         1 UNK         0.0600 
    132 H132        0.8046  -15.6769  -45.3049 H         1 UNK         0.0800 
    133 H133        0.8971  -17.1385  -46.2419 H         1 UNK         0.0800 
    134 H134        2.8761  -17.3665  -47.7281 H         1 UNK         0.0800 
    135 H135        3.3124  -16.2425  -48.9869 H         1 UNK         0.0800 
    136 H136        1.3638  -15.4903  -50.6243 H         1 UNK         0.1150 
    137 H137       -1.1042  -18.7822  -51.8149 H         1 UNK         0.1150 
    138 H138        1.2963  -19.0632  -48.2677 H         1 UNK         0.1150 
    139 H139       -1.1831  -20.4314  -48.9121 H         1 UNK         0.0800 
    140 H140       -1.1624  -20.7812  -50.6098 H         1 UNK         0.0800 
    141 H141        1.8769  -21.9884  -47.4551 H         1 UNK         0.0800 
    142 H142        0.5067  -20.9286  -47.3227 H         1 UNK         0.0800 
    143 H143        0.4202  -23.9826  -47.4437 H         1 UNK         0.0600 
    144 H144        0.5333  -22.1843  -45.2396 H         1 UNK         0.3000 
    145 H145       -1.2467  -24.0666  -42.8302 H         1 UNK         0.0600 
    146 H146        0.9006  -24.1128  -41.5946 H         1 UNK         0.0600 
    147 H147        0.9189  -25.3213  -42.8688 H         1 UNK         0.0600 
    148 H148        1.7987  -23.8120  -43.0826 H         1 UNK         0.0600 
    149 H149        0.4331  -21.8125  -42.5366 H         1 UNK         0.3000 
    150 H150       -1.4315  -19.2940  -44.0014 H         1 UNK         0.0600 
    151 H151       -2.9106  -19.4763  -42.0171 H         1 UNK         0.0600 
    152 H152       -1.6863  -18.2444  -41.7497 H         1 UNK         0.0600 
    153 H153       -1.5294  -19.8262  -40.9860 H         1 UNK         0.0600 
    154 H154        0.6336  -19.0669  -42.0978 H         1 UNK         0.3000 
    155 H155        3.3612  -20.1746  -43.6817 H         1 UNK         0.0600 
    156 H156        4.3104  -17.9982  -44.4268 H         1 UNK         0.0600 
    157 H157        2.6889  -17.3386  -44.6097 H         1 UNK         0.0600 
    158 H158        3.2228  -18.6646  -45.6333 H         1 UNK         0.0600 
    159 H159        2.6281  -17.7349  -42.1586 H         1 UNK         0.3000 
    160 H160        3.0024  -19.2893  -39.0384 H         1 UNK         0.0600 
    161 H161        5.1805  -17.5318  -40.2955 H         1 UNK         0.0600 
    162 H162        5.4453  -19.0890  -39.5203 H         1 UNK         0.0600 
    163 H163        4.8777  -17.7271  -38.5683 H         1 UNK         0.0600 
    164 H164        2.9758  -16.5306  -39.8432 H         1 UNK         0.3000 
    165 H165       -0.4819  -16.2257  -40.4571 H         1 UNK         0.0600 
    166 H166        1.0324  -15.2838  -37.9624 H         1 UNK         0.0600 
    167 H167       -0.4485  -14.5755  -38.6085 H         1 UNK         0.0600 
    168 H168       -0.4665  -16.2059  -37.9560 H         1 UNK         0.0600 
    169 H169        1.4379  -14.2015  -40.1976 H         1 UNK         0.3000 
    170 H170        2.8582  -13.4541  -41.7677 H         1 UNK         0.0600 
    171 H171        4.1224  -15.1858  -43.0917 H         1 UNK         0.0600 
    172 H172        3.0134  -14.9556  -44.4378 H         1 UNK         0.0600 
    173 H173        4.0445  -13.6323  -43.9093 H         1 UNK         0.0600 
    174 H174        1.3516  -13.2505  -44.2623 H         1 UNK         0.3000 
    175 H175       -1.2828  -12.0900  -43.5869 H         1 UNK         0.0600 
    176 H176       -1.4228   -9.5861  -43.7850 H         1 UNK         0.0600 
    177 H177       -1.2300  -10.1353  -42.1288 H         1 UNK         0.0600 
    178 H178        0.1421   -9.4499  -42.9822 H         1 UNK         0.0600 
    179 H179       -0.4683  -12.1066  -45.6083 H         1 UNK         0.3000 
    180 H180        1.3576  -10.0806  -47.5510 H         1 UNK         0.0600 
    181 H181        3.0172  -11.8334  -48.2798 H         1 UNK         0.0600 
    182 H182        3.5583  -10.9431  -46.8668 H         1 UNK         0.0600 
    183 H183        2.9214  -12.5692  -46.6790 H         1 UNK         0.0600 
    184 H184        0.7010  -12.9090  -47.8038 H         1 UNK         0.3000 
    185 H185       -2.7337  -12.5093  -48.1768 H         1 UNK         0.0600 
    186 H186       -2.6464  -13.3219  -50.4683 H         1 UNK         0.0600 
    187 H187       -2.0690  -11.6681  -50.4735 H         1 UNK         0.0600 
    188 H188       -0.9156  -12.9925  -50.5930 H         1 UNK         0.0600 
    189 H189       -1.1340  -14.7159  -48.9011 H         1 UNK         0.3000 
    190 H190       -1.8611  -21.4875  -46.2329 H         1 UNK         0.3000 
    191 H191       -3.7522  -21.8461  -48.3894 H         1 UNK         0.0600 
    192 H192       -5.1299  -20.2637  -47.0642 H         1 UNK         0.0600 
    193 H193       -3.4818  -19.6729  -47.2045 H         1 UNK         0.0600 
    194 H194       -4.0318  -20.4111  -45.6987 H         1 UNK         0.0600 
    195 H195       -3.4261  -23.0605  -45.0601 H         1 UNK         0.3000 
    196 H196       -5.9339  -24.3823  -44.8619 H         1 UNK         0.0600 
    197 H197       -4.8830  -25.5693  -42.9662 H         1 UNK         0.0600 
    198 H198       -4.4370  -23.8693  -42.9183 H         1 UNK         0.0600 
    199 H199       -3.2816  -25.0720  -43.4910 H         1 UNK         0.0600 
    200 H200       -2.7288  -25.5629  -46.0002 H         1 UNK         0.3000 
    201 H201       -3.7035  -28.2068  -46.7068 H         1 UNK         0.0600 
    202 H202       -1.3531  -27.7885  -46.0075 H         1 UNK         0.0600 
    203 H203       -1.1083  -26.7244  -47.3905 H         1 UNK         0.0600 
    204 H204       -1.3971  -28.4430  -47.6380 H         1 UNK         0.0600 
    205 H205       -3.6274  -25.1350  -48.2849 H         1 UNK         0.3000 
    206 H206       -4.0268  -24.2880  -50.2694 H         1 UNK         0.0600 
    207 H207       -6.1497  -25.6128  -50.3015 H         1 UNK         0.0600 
    208 H208       -5.4906  -25.3855  -51.9139 H         1 UNK         0.0600 
    209 H209       -5.3141  -26.9387  -51.1104 H         1 UNK         0.0600 
    210 H210       -1.5448  -25.1256  -49.6966 H         1 UNK         0.3000 
    211 H211       -0.3402  -27.0041  -51.4479 H         1 UNK         0.0600 
    212 H212        0.9238  -24.7789  -49.7632 H         1 UNK         0.0600 
    213 H213        1.7871  -26.1433  -50.4591 H         1 UNK         0.0600 
    214 H214        0.5748  -26.4193  -49.2189 H         1 UNK         0.0600 
    215 H215       -0.8536  -23.5459  -51.8183 H         1 UNK         0.3000 
    216 H216        0.9105  -23.2248  -54.1234 H         1 UNK         0.0600 
    217 H217       -0.1130  -20.9475  -54.1889 H         1 UNK         0.0600 
    218 H218        0.4442  -21.3356  -52.5733 H         1 UNK         0.0600 
    219 H219       -1.2776  -21.4172  -52.9607 H         1 UNK         0.0600 
    220 H220       -2.1198  -24.6828  -53.7324 H         1 UNK         0.3000 
    221 H221       -3.8190  -25.3291  -54.9336 H         1 UNK         0.0600 
    222 H222       -2.3468  -24.4652  -57.4814 H         1 UNK         0.0600 
    223 H223       -2.2430  -26.0492  -56.7173 H         1 UNK         0.0600 
    224 H224       -3.7674  -25.4912  -57.3883 H         1 UNK         0.0600 
    225 H225       -2.6909  -22.3084  -56.4494 H         1 UNK         0.3000 
    226 H226       -5.3632  -21.0298  -56.3462 H         1 UNK         0.0600 
    227 H227       -4.1763  -19.1760  -57.5184 H         1 UNK         0.0600 
    228 H228       -2.6529  -20.0500  -57.3958 H         1 UNK         0.0600 
    229 H229       -3.9688  -20.6958  -58.3746 H         1 UNK         0.0600 
    230 H230       -5.0707  -21.6037  -53.9072 H         1 UNK         0.3000 
    231 H231       -3.3049  -20.1309  -52.2465 H         1 UNK         0.0600 
    232 H232       -4.7931  -20.9635  -50.4128 H         1 UNK         0.0600 
    233 H233       -4.3816  -22.2385  -51.5493 H         1 UNK         0.0600 
    234 H234       -5.9761  -21.4862  -51.6050 H         1 UNK         0.0600 
    235 H235       -6.1405  -19.0381  -53.8385 H         1 UNK         0.3000 
    236 H236       -6.7454  -16.7731  -52.1137 H         1 UNK         0.0600 
    237 H237       -7.5029  -17.3939  -55.0220 H         1 UNK         0.0600 
    238 H238       -8.4661  -17.7887  -53.5978 H         1 UNK         0.0600 
    239 H239       -8.1934  -16.1108  -54.0360 H         1 UNK         0.0600 
    240 H240       -4.2076  -17.4707  -54.3296 H         1 UNK         0.3000 
    241 H241       -2.4925  -16.4019  -55.0912 H         1 UNK         0.0600 
    242 H242       -4.8509  -14.6574  -57.6295 H         1 UNK         0.3800 
    243 H243       -5.2999  -15.8588  -56.4467 H         1 UNK         0.3800 
    244 H244       -3.1794  -13.9252  -53.4539 H         1 UNK         0.0800 
    245 H245       -1.6232  -14.3276  -54.1199 H         1 UNK         0.0800 
    246 H246       -0.4680  -16.8837  -53.4193 H         1 UNK         0.0800 
    247 H247        0.2092  -15.4137  -52.7461 H         1 UNK         0.0800 
@<TRIPOS>BOND
     1    1    2 1    
     2    1  127 1    
     3    1  128 1    
     4    1  129 1    
     5    2    3 2    
     6    2    4 am   BACKBONE|DICT|INTERRES
     7    4    5 1    
     8    4  130 1    
     9    5    6 1    
    10    5   65 1    
    11    5  131 1    
    12    6    7 1    
    13    6  132 1    
    14    6  133 1    
    15    7    8 1    
    16    8    9 1    
    17    8  134 1    
    18    8  135 1    
    19    9   10 ar   
    20    9   14 ar   
    21   10   11 ar   
    22   10  136 1    
    23   11   12 ar   
    24   11  126 1    
    25   12   13 ar   
    26   12  137 1    
    27   13   14 ar   
    28   13   15 1    
    29   14  138 1    
    30   15   16 1    
    31   15  139 1    
    32   15  140 1    
    33   16   17 1    
    34   17   18 1    
    35   17  141 1    
    36   17  142 1    
    37   18   19 1    
    38   18   67 1    
    39   18  143 1    
    40   19   20 am   BACKBONE|DICT|INTERRES
    41   19  144 1    
    42   20   21 2    
    43   20   22 1    
    44   22   23 1    
    45   22   24 1    
    46   22  145 1    
    47   23  146 1    
    48   23  147 1    
    49   23  148 1    
    50   24   25 am   BACKBONE|DICT|INTERRES
    51   24  149 1    
    52   25   26 2    
    53   25   27 1    
    54   27   28 1    
    55   27   29 1    
    56   27  150 1    
    57   28  151 1    
    58   28  152 1    
    59   28  153 1    
    60   29   30 am   BACKBONE|DICT|INTERRES
    61   29  154 1    
    62   30   31 2    
    63   30   32 1    
    64   32   33 1    
    65   32   34 1    
    66   32  155 1    
    67   33  156 1    
    68   33  157 1    
    69   33  158 1    
    70   34   35 am   BACKBONE|DICT|INTERRES
    71   34  159 1    
    72   35   36 2    
    73   35   37 1    
    74   37   38 1    
    75   37   39 1    
    76   37  160 1    
    77   38  161 1    
    78   38  162 1    
    79   38  163 1    
    80   39   40 am   BACKBONE|DICT|INTERRES
    81   39  164 1    
    82   40   41 2    
    83   40   42 1    
    84   42   43 1    
    85   42   44 1    
    86   42  165 1    
    87   43  166 1    
    88   43  167 1    
    89   43  168 1    
    90   44   45 am   BACKBONE|DICT|INTERRES
    91   44  169 1    
    92   45   46 2    
    93   45   47 1    
    94   47   48 1    
    95   47   49 1    
    96   47  170 1    
    97   48  171 1    
    98   48  172 1    
    99   48  173 1    
   100   49   50 am   BACKBONE|DICT|INTERRES
   101   49  174 1    
   102   50   51 2    
   103   50   52 1    
   104   52   53 1    
   105   52   54 1    
   106   52  175 1    
   107   53  176 1    
   108   53  177 1    
   109   53  178 1    
   110   54   55 am   BACKBONE|DICT|INTERRES
   111   54  179 1    
   112   55   56 2    
   113   55   57 1    
   114   57   58 1    
   115   57   59 1    
   116   57  180 1    
   117   58  181 1    
   118   58  182 1    
   119   58  183 1    
   120   59   60 am   BACKBONE|DICT|INTERRES
   121   59  184 1    
   122   60   61 2    
   123   60   62 1    
   124   62   63 1    
   125   62   64 1    
   126   62  185 1    
   127   63  186 1    
   128   63  187 1    
   129   63  188 1    
   130   64   65 am   BACKBONE|DICT|INTERRES
   131   64  189 1    
   132   65   66 2    
   133   67   68 2    
   134   67   69 am   BACKBONE|DICT|INTERRES
   135   69   70 1    
   136   69  190 1    
   137   70   71 1    
   138   70   72 1    
   139   70  191 1    
   140   71  192 1    
   141   71  193 1    
   142   71  194 1    
   143   72   73 2    
   144   72   74 am   BACKBONE|DICT|INTERRES
   145   74   75 1    
   146   74  195 1    
   147   75   76 1    
   148   75   77 1    
   149   75  196 1    
   150   76  197 1    
   151   76  198 1    
   152   76  199 1    
   153   77   78 2    
   154   77   79 am   BACKBONE|DICT|INTERRES
   155   79   80 1    
   156   79  200 1    
   157   80   81 1    
   158   80   82 1    
   159   80  201 1    
   160   81  202 1    
   161   81  203 1    
   162   81  204 1    
   163   82   83 2    
   164   82   84 am   BACKBONE|DICT|INTERRES
   165   84   85 1    
   166   84  205 1    
   167   85   86 1    
   168   85   87 1    
   169   85  206 1    
   170   86  207 1    
   171   86  208 1    
   172   86  209 1    
   173   87   88 2    
   174   87   89 am   BACKBONE|DICT|INTERRES
   175   89   90 1    
   176   89  210 1    
   177   90   91 1    
   178   90   92 1    
   179   90  211 1    
   180   91  212 1    
   181   91  213 1    
   182   91  214 1    
   183   92   93 2    
   184   92   94 am   BACKBONE|DICT|INTERRES
   185   94   95 1    
   186   94  215 1    
   187   95   96 1    
   188   95   97 1    
   189   95  216 1    
   190   96  217 1    
   191   96  218 1    
   192   96  219 1    
   193   97   98 2    
   194   97   99 am   BACKBONE|DICT|INTERRES
   195   99  100 1    
   196   99  220 1    
   197  100  101 1    
   198  100  102 1    
   199  100  221 1    
   200  101  222 1    
   201  101  223 1    
   202  101  224 1    
   203  102  103 2    
   204  102  104 am   BACKBONE|DICT|INTERRES
   205  104  105 1    
   206  104  225 1    
   207  105  106 1    
   208  105  107 1    
   209  105  226 1    
   210  106  227 1    
   211  106  228 1    
   212  106  229 1    
   213  107  108 2    
   214  107  109 am   BACKBONE|DICT|INTERRES
   215  109  110 1    
   216  109  230 1    
   217  110  111 1    
   218  110  112 1    
   219  110  231 1    
   220  111  232 1    
   221  111  233 1    
   222  111  234 1    
   223  112  113 2    
   224  112  114 am   BACKBONE|DICT|INTERRES
   225  114  115 1    
   226  114  235 1    
   227  115  116 1    
   228  115  117 1    
   229  115  236 1    
   230  116  237 1    
   231  116  238 1    
   232  116  239 1    
   233  117  118 2    
   234  117  119 am   BACKBONE|DICT|INTERRES
   235  119  120 1    
   236  119  240 1    
   237  120  121 1    
   238  120  124 1    
   239  120  241 1    
   240  121  122 am   BACKBONE|DICT|INTERRES
   241  121  123 2    
   242  122  242 1    
   243  122  243 1    
   244  124  125 1    
   245  124  244 1    
   246  124  245 1    
   247  125  126 1    
   248  126  246 1    
   249  126  247 1    
@<TRIPOS>SUBSTRUCTURE
     1 UNK         1 GROUP             0       ****    0 ROOT    
