@<TRIPOS>MOLECULE
3R540
247   249    1
SMALL
USER_CHARGES


@<TRIPOS>ATOM
      1 CA         -0.7572  -14.4185  -50.1250 C.3       0 UNK        -0.1800 
      2 C           0.1833  -14.2136  -48.9500 C.2       0 UNK         0.5000 
      3 O          -0.2211  -13.6609  -47.9303 O.2       0 UNK        -0.5000 
      4 N           1.4322  -14.6727  -49.0789 N.am      1 UNK        -0.5000 
      5 CA          2.4971  -14.5785  -48.0725 C.3       1 UNK         0.1400 
      6 C6          3.8770  -15.0458  -48.6195 C.3       23 UNK        -0.0398 
      7 S7          3.8263  -16.4104  -49.8442 S.3       23 UNK        -0.2404 
      8 C8          3.8582  -17.8912  -48.7816 C.3       23 UNK        -0.0205 
      9 C9          2.6974  -18.8620  -48.9965 C.ar      23 UNK        -0.0193 
     10 C10         1.4272  -18.4324  -49.4078 C.ar      23 UNK        -0.1150 
     11 C11         0.3737  -19.3400  -49.5413 C.ar      23 UNK        -0.0193 
     12 C12         0.5956  -20.6892  -49.2603 C.ar      23 UNK        -0.1150 
     13 C13         1.8588  -21.1428  -48.8714 C.ar      23 UNK        -0.0193 
     14 C14         2.9023  -20.2221  -48.7385 C.ar      23 UNK        -0.1150 
     15 C15         2.0934  -22.6351  -48.6545 C.3       23 UNK        -0.0205 
     16 S16         2.8187  -23.0803  -47.0368 S.3       23 UNK        -0.2404 
     17 C17         1.8241  -22.1610  -45.8138 C.3       23 UNK        -0.0398 
     18 CA          0.4983  -22.8532  -45.4014 C.3       11 UNK         0.1400 
     19 N           0.2374  -22.7124  -43.9661 N.am      11 UNK        -0.5000 
     20 C          -0.6832  -23.4126  -43.2850 C.2       10 UNK         0.5000 
     21 O          -1.3880  -24.2835  -43.7961 O.2       10 UNK        -0.5000 
     22 CA         -0.8755  -23.0668  -41.7933 C.3       10 UNK         0.1400 
     23 CB         -0.0869  -24.0460  -40.9110 C.3       10 UNK        -0.1800 
     24 N          -0.4837  -21.6980  -41.4490 N.am      10 UNK        -0.5000 
     25 C          -1.0419  -20.5863  -41.9483 C.2       9 UNK         0.5000 
     26 O          -1.9991  -20.5959  -42.7202 O.2       9 UNK        -0.5000 
     27 CA         -0.3887  -19.2431  -41.5725 C.3       9 UNK         0.1400 
     28 CB         -1.1583  -18.5665  -40.4290 C.3       9 UNK        -0.1800 
     29 N           1.0296  -19.3379  -41.2095 N.am      9 UNK        -0.5000 
     30 C           2.0050  -19.7657  -42.0218 C.2       8 UNK         0.5000 
     31 O           1.8086  -20.2345  -43.1451 O.2       8 UNK        -0.5000 
     32 CA          3.4426  -19.6786  -41.4778 C.3       8 UNK         0.1400 
     33 CB          3.9962  -21.0845  -41.1990 C.3       8 UNK        -0.1800 
     34 N           4.3306  -18.9868  -42.4132 N.am      8 UNK        -0.5000 
     35 C           4.1828  -17.7116  -42.7941 C.2       7 UNK         0.5000 
     36 O           3.3163  -16.9620  -42.3361 O.2       7 UNK        -0.5000 
     37 CA          5.1532  -17.2019  -43.8754 C.3       7 UNK         0.1400 
     38 CB          4.9229  -17.9456  -45.1996 C.3       7 UNK        -0.1800 
     39 N           4.9222  -15.7765  -44.0950 N.am      7 UNK        -0.5000 
     40 C           5.6964  -14.7823  -43.6438 C.2       6 UNK         0.5000 
     41 O           6.8201  -14.9414  -43.1656 O.2       6 UNK        -0.5000 
     42 CA          5.0770  -13.3729  -43.6941 C.3       6 UNK         0.1400 
     43 CB          5.2768  -12.7302  -45.0758 C.3       6 UNK        -0.1800 
     44 N           3.6481  -13.4303  -43.3821 N.am      6 UNK        -0.5000 
     45 C           3.1497  -13.5498  -42.1431 C.2       5 UNK         0.5000 
     46 O           3.8350  -13.4362  -41.1247 O.2       5 UNK        -0.5000 
     47 CA          1.6453  -13.8786  -42.0274 C.3       5 UNK         0.1400 
     48 CB          1.0332  -13.4621  -40.6736 C.3       5 UNK        -0.1800 
     49 N           0.8458  -13.3735  -43.1468 N.am      5 UNK        -0.5000 
     50 C           0.6202  -12.0953  -43.4857 C.2       4 UNK         0.5000 
     51 O           1.0684  -11.1315  -42.8637 O.2       4 UNK        -0.5000 
     52 CA         -0.2375  -11.8406  -44.7435 C.3       4 UNK         0.1400 
     53 CB          0.6293  -11.2390  -45.8616 C.3       4 UNK        -0.1800 
     54 N          -0.8912  -13.0446  -45.2605 N.am      4 UNK        -0.5000 
     55 C          -1.9479  -13.6603  -44.7135 C.2       3 UNK         0.5000 
     56 O          -2.5607  -13.2310  -43.7359 O.2       3 UNK        -0.5000 
     57 CA         -2.3470  -15.0134  -45.3352 C.3       3 UNK         0.1400 
     58 CB         -3.2924  -14.8187  -46.5293 C.3       3 UNK        -0.1800 
     59 N          -1.1830  -15.7966  -45.7585 N.am      3 UNK        -0.5000 
     60 C          -0.2916  -16.3405  -44.9180 C.2       2 UNK         0.5000 
     61 O          -0.3788  -16.2659  -43.6937 O.2       2 UNK        -0.5000 
     62 CA          0.9270  -17.0363  -45.5440 C.3       2 UNK         0.1400 
     63 CB          0.6241  -18.4977  -45.8792 C.3       2 UNK        -0.1800 
     64 N           1.3963  -16.3521  -46.7488 N.am      2 UNK        -0.5000 
     65 C           2.1486  -15.2452  -46.7224 C.2       1 UNK         0.5000 
     66 O           2.5479  -14.7318  -45.6763 O.2       1 UNK        -0.5000 
     67 C          -0.6830  -22.3434  -46.2560 C.2       11 UNK         0.5000 
     68 O          -0.8917  -22.8563  -47.3519 O.2       11 UNK        -0.5000 
     69 N          -1.4652  -21.3787  -45.7423 N.am      12 UNK        -0.5000 
     70 CA         -2.5711  -20.7270  -46.4563 C.3       12 UNK         0.1400 
     71 CB         -3.0735  -19.5286  -45.6347 C.3       12 UNK        -0.1800 
     72 C          -3.7449  -21.6605  -46.8200 C.2       12 UNK         0.5000 
     73 O          -4.5802  -21.2833  -47.6407 O.2       12 UNK        -0.5000 
     74 N          -3.7855  -22.8560  -46.2178 N.am      13 UNK        -0.5000 
     75 CA         -4.7103  -23.9383  -46.5510 C.3       13 UNK         0.1400 
     76 CB         -4.8727  -24.8295  -45.3088 C.3       13 UNK        -0.1800 
     77 C          -4.2529  -24.7774  -47.7656 C.2       13 UNK         0.5000 
     78 O          -5.0082  -25.6455  -48.2055 O.2       13 UNK        -0.5000 
     79 N          -3.0386  -24.5332  -48.2740 N.am      14 UNK        -0.5000 
     80 CA         -2.4080  -25.2417  -49.3838 C.3       14 UNK         0.1400 
     81 CB         -1.2373  -26.0683  -48.8175 C.3       14 UNK        -0.1800 
     82 C          -1.9366  -24.2460  -50.4621 C.2       14 UNK         0.5000 
     83 O          -2.2509  -23.0539  -50.3932 O.2       14 UNK        -0.5000 
     84 N          -1.2026  -24.7690  -51.4567 N.am      15 UNK        -0.5000 
     85 CA         -0.6028  -24.0642  -52.5948 C.3       15 UNK         0.1400 
     86 CB          0.5789  -23.1883  -52.1258 C.3       15 UNK        -0.1800 
     87 C          -1.6607  -23.3007  -53.4142 C.2       15 UNK         0.5000 
     88 O          -2.4460  -23.9365  -54.1185 O.2       15 UNK        -0.5000 
     89 N          -1.7020  -21.9679  -53.2767 N.am      16 UNK        -0.5000 
     90 CA         -2.6655  -21.0727  -53.9228 C.3       16 UNK         0.1400 
     91 CB         -2.3313  -19.6225  -53.5529 C.3       16 UNK        -0.1800 
     92 C          -4.1375  -21.3827  -53.5877 C.2       16 UNK         0.5000 
     93 O          -5.0124  -21.0699  -54.3942 O.2       16 UNK        -0.5000 
     94 N          -4.3921  -22.0412  -52.4473 N.am      17 UNK        -0.5000 
     95 CA         -5.7113  -22.5431  -52.0571 C.3       17 UNK         0.1400 
     96 CB         -5.6393  -23.0922  -50.6286 C.3       17 UNK        -0.1800 
     97 C          -6.2840  -23.6102  -53.0113 C.2       17 UNK         0.5000 
     98 O          -7.5048  -23.7439  -53.0933 O.2       17 UNK        -0.5000 
     99 N          -5.4122  -24.3352  -53.7287 N.am      18 UNK        -0.5000 
    100 CA        -5.8109  -25.2859  -54.7678 C.3       18 UNK         0.1400 
    101 CB        -4.6731  -26.2903  -55.0058 C.3       18 UNK        -0.1800 
    102 C         -6.1985  -24.5827  -56.0831 C.2       18 UNK         0.5000 
    103 O         -6.9891  -25.1347  -56.8493 O.2       18 UNK        -0.5000 
    104 N         -5.6426  -23.3863  -56.3233 N.am      19 UNK        -0.5000 
    105 CA        -5.9485  -22.5495  -57.4815 C.3       19 UNK         0.1400 
    106 CB        -4.7461  -21.6466  -57.8030 C.3       19 UNK        -0.1800 
    107 C         -7.2218  -21.7201  -57.2472 C.2       19 UNK         0.5000 
    108 O         -8.1050  -21.7148  -58.1059 O.2       19 UNK        -0.5000 
    109 N         -7.3038  -21.0545  -56.0878 N.am      20 UNK        -0.5000 
    110 CA        -8.4464  -20.2472  -55.6711 C.3       20 UNK         0.1400 
    111 CB        -8.4841  -18.9076  -56.4362 C.3       20 UNK        -0.1800 
    112 C         -8.4196  -20.0398  -54.1512 C.2       20 UNK         0.5000 
    113 O         -9.2543  -20.6040  -53.4434 O.2       20 UNK        -0.5000 
    114 N         -7.4657  -19.2317  -53.6782 N.am      21 UNK        -0.5000 
    115 CA        -7.2890  -18.8343  -52.2858 C.3       21 UNK         0.1400 
    116 CB        -8.3664  -17.8083  -51.8852 C.3       21 UNK        -0.1800 
    117 C         -5.8879  -18.2310  -52.1212 C.2       21 UNK         0.5000 
    118 O         -5.3145  -17.7421  -53.0983 O.2       21 UNK        -0.5000 
    119 N         -5.3779  -18.2485  -50.8853 N.am      22 UNK        -0.5000 
    120 CA        -4.1589  -17.5374  -50.4813 C.3       22 UNK         0.1400 
    121 C         -4.4492  -16.0167  -50.3522 C.2       22 UNK         0.5000 
    122 N         -3.9679  -15.2000  -51.2791 N.am      22 UNK        -0.7600 
    123 O         -5.1188  -15.5769  -49.4214 O.2       22 UNK        -0.5000 
    124 C124       -3.5731  -18.1549  -49.1846 C.3       23 UNK        -0.0398 
    125 S125       -1.8187  -17.7425  -48.8838 S.3       23 UNK        -0.2404 
    126 C126       -0.9907  -18.8827  -50.0380 C.3       23 UNK        -0.0205 
    127 H127       -1.7151  -14.7867  -49.7619 H         1 UNK         0.0600 
    128 H128       -0.3639  -15.1418  -50.8396 H         1 UNK         0.0600 
    129 H129       -0.9271  -13.4744  -50.6419 H         1 UNK         0.0600 
    130 H130        1.7116  -15.1127  -49.9448 H         1 UNK         0.3000 
    131 H131        2.5951  -13.5153  -47.8420 H         1 UNK         0.0600 
    132 H132        4.3395  -14.2025  -49.1342 H         1 UNK         0.0800 
    133 H133        4.5745  -15.2928  -47.8162 H         1 UNK         0.0800 
    134 H134        4.8087  -18.4014  -48.9448 H         1 UNK         0.0800 
    135 H135        3.8472  -17.5895  -47.7384 H         1 UNK         0.0800 
    136 H136        1.2447  -17.3931  -49.6311 H         1 UNK         0.1150 
    137 H137       -0.2154  -21.3953  -49.3716 H         1 UNK         0.1150 
    138 H138        3.8784  -20.5700  -48.4306 H         1 UNK         0.1150 
    139 H139        1.1699  -23.1977  -48.7921 H         1 UNK         0.0800 
    140 H140        2.7667  -22.9886  -49.4361 H         1 UNK         0.0800 
    141 H141        1.6658  -21.1414  -46.1543 H         1 UNK         0.0800 
    142 H142        2.4751  -22.0642  -44.9442 H         1 UNK         0.0800 
    143 H143        0.5934  -23.9238  -45.5958 H         1 UNK         0.0600 
    144 H144        0.7584  -21.9852  -43.4873 H         1 UNK         0.3000 
    145 H145       -1.9380  -23.1769  -41.5668 H         1 UNK         0.0600 
    146 H146       -0.2794  -23.8675  -39.8529 H         1 UNK         0.0600 
    147 H147       -0.3712  -25.0780  -41.1216 H         1 UNK         0.0600 
    148 H148        0.9878  -23.9609  -41.0771 H         1 UNK         0.0600 
    149 H149        0.3023  -21.5947  -40.8247 H         1 UNK         0.3000 
    150 H150       -0.4570  -18.6029  -42.4533 H         1 UNK         0.0600 
    151 H151       -1.0942  -19.1416  -39.5045 H         1 UNK         0.0600 
    152 H152       -2.2150  -18.4604  -40.6785 H         1 UNK         0.0600 
    153 H153       -0.7721  -17.5659  -40.2330 H         1 UNK         0.0600 
    154 H154        1.2794  -18.9731  -40.3017 H         1 UNK         0.3000 
    155 H155        3.4380  -19.1174  -40.5410 H         1 UNK         0.0600 
    156 H156        4.0483  -21.6849  -42.1084 H         1 UNK         0.0600 
    157 H157        3.3646  -21.6198  -40.4888 H         1 UNK         0.0600 
    158 H158        4.9974  -21.0370  -40.7701 H         1 UNK         0.0600 
    159 H159        5.0437  -19.5506  -42.8515 H         1 UNK         0.3000 
    160 H160        6.1760  -17.3803  -43.5377 H         1 UNK         0.0600 
    161 H161        3.8762  -17.9056  -45.4996 H         1 UNK         0.0600 
    162 H162        5.1966  -18.9979  -45.1168 H         1 UNK         0.0600 
    163 H163        5.5263  -17.5182  -46.0005 H         1 UNK         0.0600 
    164 H164        3.9979  -15.5300  -44.4298 H         1 UNK         0.3000 
    165 H165        5.5813  -12.7497  -42.9525 H         1 UNK         0.0600 
    166 H166        4.8405  -11.7319  -45.1121 H         1 UNK         0.0600 
    167 H167        6.3380  -12.6309  -45.3069 H         1 UNK         0.0600 
    168 H168        4.8238  -13.3223  -45.8711 H         1 UNK         0.0600 
    169 H169        3.0262  -13.5959  -44.1672 H         1 UNK         0.3000 
    170 H170        1.5749  -14.9649  -42.0882 H         1 UNK         0.0600 
    171 H171        1.5262  -13.9765  -39.8481 H         1 UNK         0.0600 
    172 H172        1.1308  -12.3911  -40.4951 H         1 UNK         0.0600 
    173 H173       -0.0256  -13.7169  -40.6258 H         1 UNK         0.0600 
    174 H174        0.4234  -14.0886  -43.7235 H         1 UNK         0.3000 
    175 H175       -1.0086  -11.1157  -44.4756 H         1 UNK         0.0600 
    176 H176        1.1004  -10.3099  -45.5385 H         1 UNK         0.0600 
    177 H177        1.4236  -11.9231  -46.1632 H         1 UNK         0.0600 
    178 H178        0.0320  -11.0100  -46.7443 H         1 UNK         0.0600 
    179 H179       -0.5117  -13.4229  -46.1262 H         1 UNK         0.3000 
    180 H180       -2.8797  -15.5851  -44.5722 H         1 UNK         0.0600 
    181 H181       -2.8137  -14.2742  -47.3436 H         1 UNK         0.0600 
    182 H182       -4.1805  -14.2571  -46.2374 H         1 UNK         0.0600 
    183 H183       -3.6304  -15.7771  -46.9228 H         1 UNK         0.0600 
    184 H184       -1.0235  -15.8662  -46.7527 H         1 UNK         0.3000 
    185 H185        1.7233  -17.0301  -44.7966 H         1 UNK         0.0600 
    186 H186        0.2998  -19.0464  -44.9951 H         1 UNK         0.0600 
    187 H187       -0.1545  -18.5951  -46.6339 H         1 UNK         0.0600 
    188 H188        1.5211  -18.9805  -46.2603 H         1 UNK         0.0600 
    189 H189        1.0992  -16.7262  -47.6378 H         1 UNK         0.3000 
    190 H190       -1.2980  -21.0623  -44.7955 H         1 UNK         0.3000 
    191 H191       -2.1645  -20.3498  -47.3961 H         1 UNK         0.0600 
    192 H192       -2.2652  -18.8435  -45.3829 H         1 UNK         0.0600 
    193 H193       -3.8172  -18.9578  -46.1907 H         1 UNK         0.0600 
    194 H194       -3.5445  -19.8499  -44.7057 H         1 UNK         0.0600 
    195 H195       -3.0536  -23.0795  -45.5577 H         1 UNK         0.3000 
    196 H196       -5.6854  -23.5127  -46.7967 H         1 UNK         0.0600 
    197 H197       -5.5868  -25.6334  -45.4916 H         1 UNK         0.0600 
    198 H198       -5.2418  -24.2567  -44.4578 H         1 UNK         0.0600 
    199 H199       -3.9267  -25.2891  -45.0186 H         1 UNK         0.0600 
    200 H200       -2.4826  -23.7683  -47.9001 H         1 UNK         0.3000 
    201 H201       -3.1211  -25.9169  -49.8604 H         1 UNK         0.0600 
    202 H202       -0.7882  -26.7070  -49.5782 H         1 UNK         0.0600 
    203 H203       -1.5729  -26.7221  -48.0122 H         1 UNK         0.0600 
    204 H204       -0.4510  -25.4266  -48.4172 H         1 UNK         0.0600 
    205 H205       -1.0383  -25.7654  -51.4444 H         1 UNK         0.3000 
    206 H206       -0.1991  -24.8304  -53.2583 H         1 UNK         0.0600 
    207 H207        1.3385  -23.7933  -51.6307 H         1 UNK         0.0600 
    208 H208        1.0618  -22.6939  -52.9696 H         1 UNK         0.0600 
    209 H209        0.2668  -22.4173  -51.4241 H         1 UNK         0.0600 
    210 H210       -1.0432  -21.5393  -52.6437 H         1 UNK         0.3000 
    211 H211       -2.5467  -21.1881  -55.0019 H         1 UNK         0.0600 
    212 H212       -2.4748  -19.4466  -52.4884 H         1 UNK         0.0600 
    213 H213       -2.9763  -18.9252  -54.0891 H         1 UNK         0.0600 
    214 H214       -1.3008  -19.3716  -53.8047 H         1 UNK         0.0600 
    215 H215       -3.6180  -22.2711  -51.8327 H         1 UNK         0.3000 
    216 H216       -6.4019  -21.7010  -52.0651 H         1 UNK         0.0600 
    217 H217       -6.6279  -23.3748  -50.2649 H         1 UNK         0.0600 
    218 H218       -5.2373  -22.3499  -49.9406 H         1 UNK         0.0600 
    219 H219       -5.0061  -23.9774  -50.5771 H         1 UNK         0.0600 
    220 H220       -4.4166  -24.1635  -53.6323 H         1 UNK         0.3000 
    221 H221       -6.6819  -25.8445  -54.4184 H         1 UNK         0.0600 
    222 H222       -3.7889  -25.8088  -55.4243 H         1 UNK         0.0600 
    223 H223       -4.3806  -26.7850  -54.0795 H         1 UNK         0.0600 
    224 H224       -4.9821  -27.0670  -55.7064 H         1 UNK         0.0600 
    225 H225       -5.0428  -22.9813  -55.6186 H         1 UNK         0.3000 
    226 H226       -6.1192  -23.1912  -58.3488 H         1 UNK         0.0600 
    227 H227       -4.9404  -21.0462  -58.6924 H         1 UNK         0.0600 
    228 H228       -4.5190  -20.9579  -56.9894 H         1 UNK         0.0600 
    229 H229       -3.8518  -22.2381  -57.9995 H         1 UNK         0.0600 
    230 H230       -6.5290  -21.1090  -55.4280 H         1 UNK         0.3000 
    231 H231       -9.3619  -20.7971  -55.9003 H         1 UNK         0.0600 
    232 H232       -7.5417  -18.3653  -56.3542 H         1 UNK         0.0600 
    233 H233       -9.2732  -18.2597  -56.0521 H         1 UNK         0.0600 
    234 H234       -8.6847  -19.0625  -57.4962 H         1 UNK         0.0600 
    235 H235       -6.7707  -18.8440  -54.3052 H         1 UNK         0.3000 
    236 H236       -7.3728  -19.7118  -51.6435 H         1 UNK         0.0600 
    237 H237       -9.3679  -18.2337  -51.9492 H         1 UNK         0.0600 
    238 H238       -8.2264  -17.4716  -50.8572 H         1 UNK         0.0600 
    239 H239       -8.3361  -16.9263  -52.5263 H         1 UNK         0.0600 
    240 H240       -5.9292  -18.6366  -50.1338 H         1 UNK         0.3000 
    241 H241       -3.4206  -17.6769  -51.2723 H         1 UNK         0.0600 
    242 H242       -3.4656  -15.5521  -52.0788 H         1 UNK         0.3800 
    243 H243       -4.1601  -14.2135  -51.2086 H         1 UNK         0.3800 
    244 H244       -4.1570  -17.8524  -48.3143 H         1 UNK         0.0800 
    245 H245       -3.6550  -19.2419  -49.2213 H         1 UNK         0.0800 
    246 H246       -0.8692  -18.3833  -50.9998 H         1 UNK         0.0800 
    247 H247       -1.6263  -19.7511  -50.2182 H         1 UNK         0.0800 
@<TRIPOS>BOND
     1    1    2 1    
     2    1  127 1    
     3    1  128 1    
     4    1  129 1    
     5    2    3 2    
     6    2    4 am   BACKBONE|DICT|INTERRES
     7    4    5 1    
     8    4  130 1    
     9    5    6 1    
    10    5   65 1    
    11    5  131 1    
    12    6    7 1    
    13    6  132 1    
    14    6  133 1    
    15    7    8 1    
    16    8    9 1    
    17    8  134 1    
    18    8  135 1    
    19    9   10 ar   
    20    9   14 ar   
    21   10   11 ar   
    22   10  136 1    
    23   11   12 ar   
    24   11  126 1    
    25   12   13 ar   
    26   12  137 1    
    27   13   14 ar   
    28   13   15 1    
    29   14  138 1    
    30   15   16 1    
    31   15  139 1    
    32   15  140 1    
    33   16   17 1    
    34   17   18 1    
    35   17  141 1    
    36   17  142 1    
    37   18   19 1    
    38   18   67 1    
    39   18  143 1    
    40   19   20 am   BACKBONE|DICT|INTERRES
    41   19  144 1    
    42   20   21 2    
    43   20   22 1    
    44   22   23 1    
    45   22   24 1    
    46   22  145 1    
    47   23  146 1    
    48   23  147 1    
    49   23  148 1    
    50   24   25 am   BACKBONE|DICT|INTERRES
    51   24  149 1    
    52   25   26 2    
    53   25   27 1    
    54   27   28 1    
    55   27   29 1    
    56   27  150 1    
    57   28  151 1    
    58   28  152 1    
    59   28  153 1    
    60   29   30 am   BACKBONE|DICT|INTERRES
    61   29  154 1    
    62   30   31 2    
    63   30   32 1    
    64   32   33 1    
    65   32   34 1    
    66   32  155 1    
    67   33  156 1    
    68   33  157 1    
    69   33  158 1    
    70   34   35 am   BACKBONE|DICT|INTERRES
    71   34  159 1    
    72   35   36 2    
    73   35   37 1    
    74   37   38 1    
    75   37   39 1    
    76   37  160 1    
    77   38  161 1    
    78   38  162 1    
    79   38  163 1    
    80   39   40 am   BACKBONE|DICT|INTERRES
    81   39  164 1    
    82   40   41 2    
    83   40   42 1    
    84   42   43 1    
    85   42   44 1    
    86   42  165 1    
    87   43  166 1    
    88   43  167 1    
    89   43  168 1    
    90   44   45 am   BACKBONE|DICT|INTERRES
    91   44  169 1    
    92   45   46 2    
    93   45   47 1    
    94   47   48 1    
    95   47   49 1    
    96   47  170 1    
    97   48  171 1    
    98   48  172 1    
    99   48  173 1    
   100   49   50 am   BACKBONE|DICT|INTERRES
   101   49  174 1    
   102   50   51 2    
   103   50   52 1    
   104   52   53 1    
   105   52   54 1    
   106   52  175 1    
   107   53  176 1    
   108   53  177 1    
   109   53  178 1    
   110   54   55 am   BACKBONE|DICT|INTERRES
   111   54  179 1    
   112   55   56 2    
   113   55   57 1    
   114   57   58 1    
   115   57   59 1    
   116   57  180 1    
   117   58  181 1    
   118   58  182 1    
   119   58  183 1    
   120   59   60 am   BACKBONE|DICT|INTERRES
   121   59  184 1    
   122   60   61 2    
   123   60   62 1    
   124   62   63 1    
   125   62   64 1    
   126   62  185 1    
   127   63  186 1    
   128   63  187 1    
   129   63  188 1    
   130   64   65 am   BACKBONE|DICT|INTERRES
   131   64  189 1    
   132   65   66 2    
   133   67   68 2    
   134   67   69 am   BACKBONE|DICT|INTERRES
   135   69   70 1    
   136   69  190 1    
   137   70   71 1    
   138   70   72 1    
   139   70  191 1    
   140   71  192 1    
   141   71  193 1    
   142   71  194 1    
   143   72   73 2    
   144   72   74 am   BACKBONE|DICT|INTERRES
   145   74   75 1    
   146   74  195 1    
   147   75   76 1    
   148   75   77 1    
   149   75  196 1    
   150   76  197 1    
   151   76  198 1    
   152   76  199 1    
   153   77   78 2    
   154   77   79 am   BACKBONE|DICT|INTERRES
   155   79   80 1    
   156   79  200 1    
   157   80   81 1    
   158   80   82 1    
   159   80  201 1    
   160   81  202 1    
   161   81  203 1    
   162   81  204 1    
   163   82   83 2    
   164   82   84 am   BACKBONE|DICT|INTERRES
   165   84   85 1    
   166   84  205 1    
   167   85   86 1    
   168   85   87 1    
   169   85  206 1    
   170   86  207 1    
   171   86  208 1    
   172   86  209 1    
   173   87   88 2    
   174   87   89 am   BACKBONE|DICT|INTERRES
   175   89   90 1    
   176   89  210 1    
   177   90   91 1    
   178   90   92 1    
   179   90  211 1    
   180   91  212 1    
   181   91  213 1    
   182   91  214 1    
   183   92   93 2    
   184   92   94 am   BACKBONE|DICT|INTERRES
   185   94   95 1    
   186   94  215 1    
   187   95   96 1    
   188   95   97 1    
   189   95  216 1    
   190   96  217 1    
   191   96  218 1    
   192   96  219 1    
   193   97   98 2    
   194   97   99 am   BACKBONE|DICT|INTERRES
   195   99  100 1    
   196   99  220 1    
   197  100  101 1    
   198  100  102 1    
   199  100  221 1    
   200  101  222 1    
   201  101  223 1    
   202  101  224 1    
   203  102  103 2    
   204  102  104 am   BACKBONE|DICT|INTERRES
   205  104  105 1    
   206  104  225 1    
   207  105  106 1    
   208  105  107 1    
   209  105  226 1    
   210  106  227 1    
   211  106  228 1    
   212  106  229 1    
   213  107  108 2    
   214  107  109 am   BACKBONE|DICT|INTERRES
   215  109  110 1    
   216  109  230 1    
   217  110  111 1    
   218  110  112 1    
   219  110  231 1    
   220  111  232 1    
   221  111  233 1    
   222  111  234 1    
   223  112  113 2    
   224  112  114 am   BACKBONE|DICT|INTERRES
   225  114  115 1    
   226  114  235 1    
   227  115  116 1    
   228  115  117 1    
   229  115  236 1    
   230  116  237 1    
   231  116  238 1    
   232  116  239 1    
   233  117  118 2    
   234  117  119 am   BACKBONE|DICT|INTERRES
   235  119  120 1    
   236  119  240 1    
   237  120  121 1    
   238  120  124 1    
   239  120  241 1    
   240  121  122 am   BACKBONE|DICT|INTERRES
   241  121  123 2    
   242  122  242 1    
   243  122  243 1    
   244  124  125 1    
   245  124  244 1    
   246  124  245 1    
   247  125  126 1    
   248  126  246 1    
   249  126  247 1    
@<TRIPOS>SUBSTRUCTURE
     1 UNK         1 GROUP             0       ****    0 ROOT    
