@<TRIPOS>MOLECULE
3R540
247   249    1
SMALL
USER_CHARGES


@<TRIPOS>ATOM
      1 CA          6.8925  -11.0452  -49.2991 C.3       0 UNK        -0.1800 
      2 C           6.3287  -11.9209  -48.1887 C.2       0 UNK         0.5000 
      3 O           6.3511  -11.5234  -47.0231 O.2       0 UNK        -0.5000 
      4 N           5.8334  -13.1122  -48.5435 N.am      1 UNK        -0.5000 
      5 CA          5.1770  -14.0556  -47.6339 C.3       1 UNK         0.1400 
      6 C6          5.1791  -15.4952  -48.2139 C.3       23 UNK        -0.0398 
      7 S7          4.2869  -15.6753  -49.8035 S.3       23 UNK        -0.2404 
      8 C8          2.9484  -16.8359  -49.3773 C.3       23 UNK        -0.0205 
      9 C9          3.0345  -18.1111  -50.2012 C.ar      23 UNK        -0.0193 
     10 C10         2.1096  -18.3500  -51.2215 C.ar      23 UNK        -0.1150 
     11 C11         2.1960  -19.5056  -52.0024 C.ar      23 UNK        -0.0193 
     12 C12         3.2161  -20.4288  -51.7550 C.ar      23 UNK        -0.1150 
     13 C13         4.1445  -20.2052  -50.7337 C.ar      23 UNK        -0.0193 
     14 C14         4.0436  -19.0470  -49.9551 C.ar      23 UNK        -0.1150 
     15 C15         5.2848  -21.1896  -50.5079 C.3       23 UNK        -0.0205 
     16 S16         4.7378  -22.7506  -49.7438 S.3       23 UNK        -0.2404 
     17 C17         4.2567  -22.1960  -48.0729 C.3       23 UNK        -0.0398 
     18 CA          2.9089  -22.7741  -47.5773 C.3       11 UNK         0.1400 
     19 N           2.7115  -22.4430  -46.1649 N.am      11 UNK        -0.5000 
     20 C           1.7263  -22.8719  -45.3684 C.2       10 UNK         0.5000 
     21 O           0.8807  -23.6950  -45.7161 O.2       10 UNK        -0.5000 
     22 CA          1.6317  -22.2242  -43.9721 C.3       10 UNK         0.1400 
     23 CB          2.5241  -22.9513  -42.9499 C.3       10 UNK        -0.1800 
     24 N           1.8723  -20.7730  -43.9736 N.am      10 UNK        -0.5000 
     25 C           3.0082  -20.0991  -44.2129 C.2       9 UNK         0.5000 
     26 O           4.0838  -20.6344  -44.4823 O.2       9 UNK        -0.5000 
     27 CA          2.9143  -18.5653  -44.2046 C.3       9 UNK         0.1400 
     28 CB          2.5028  -18.0570  -45.5942 C.3       9 UNK        -0.1800 
     29 N           1.9746  -18.0759  -43.1960 N.am      9 UNK        -0.5000 
     30 C           2.2527  -18.0134  -41.8852 C.2       8 UNK         0.5000 
     31 O           3.3591  -18.2676  -41.4076 O.2       8 UNK        -0.5000 
     32 CA          1.0979  -17.6257  -40.9452 C.3       8 UNK         0.1400 
     33 CB          1.0296  -16.1023  -40.7590 C.3       8 UNK        -0.1800 
     34 N          -0.1897  -18.1255  -41.4294 N.am      8 UNK        -0.5000 
     35 C          -0.5832  -19.4035  -41.3173 C.2       7 UNK         0.5000 
     36 O           0.0776  -20.2700  -40.7444 O.2       7 UNK        -0.5000 
     37 CA         -1.9292  -19.7968  -41.9572 C.3       7 UNK         0.1400 
     38 CB         -3.0494  -19.7835  -40.9067 C.3       7 UNK        -0.1800 
     39 N          -2.3217  -18.9449  -43.0795 N.am      7 UNK        -0.5000 
     40 C          -1.6808  -18.8752  -44.2530 C.2       6 UNK         0.5000 
     41 O          -0.6917  -19.5551  -44.5343 O.2       6 UNK        -0.5000 
     42 CA         -2.2257  -17.8641  -45.2769 C.3       6 UNK         0.1400 
     43 CB         -3.2725  -18.5291  -46.1788 C.3       6 UNK        -0.1800 
     44 N          -2.8087  -16.6399  -44.7232 N.am      6 UNK        -0.5000 
     45 C          -2.2479  -15.8051  -43.8386 C.2       5 UNK         0.5000 
     46 O          -1.2327  -16.0635  -43.1914 O.2       5 UNK        -0.5000 
     47 CA         -2.9334  -14.4327  -43.7000 C.3       5 UNK         0.1400 
     48 CB         -2.2687  -13.5358  -42.6402 C.3       5 UNK        -0.1800 
     49 N          -2.9207  -13.7372  -44.9884 N.am      5 UNK        -0.5000 
     50 C          -3.8171  -13.9062  -45.9699 C.2       4 UNK         0.5000 
     51 O          -4.8009  -14.6410  -45.8764 O.2       4 UNK        -0.5000 
     52 CA         -3.5271  -13.1744  -47.2903 C.3       4 UNK         0.1400 
     53 CB         -3.7413  -11.6595  -47.1447 C.3       4 UNK        -0.1800 
     54 N          -2.1633  -13.4365  -47.7519 N.am      4 UNK        -0.5000 
     55 C          -1.7796  -14.5664  -48.3625 C.2       3 UNK         0.5000 
     56 O          -2.5425  -15.4914  -48.6452 O.2       3 UNK        -0.5000 
     57 CA         -0.2899  -14.6809  -48.7302 C.3       3 UNK         0.1400 
     58 CB         -0.0068  -14.0092  -50.0822 C.3       3 UNK        -0.1800 
     59 N           0.6103  -14.1054  -47.7315 N.am      3 UNK        -0.5000 
     60 C           0.8167  -14.5960  -46.5051 C.2       2 UNK         0.5000 
     61 O           0.2511  -15.5977  -46.0735 O.2       2 UNK        -0.5000 
     62 CA          1.8720  -13.8657  -45.6484 C.3       2 UNK         0.1400 
     63 CB          1.8055  -14.2663  -44.1642 C.3       2 UNK        -0.1800 
     64 N           3.2275  -14.1153  -46.1433 N.am      2 UNK        -0.5000 
     65 C           3.7577  -13.5766  -47.2492 C.2       1 UNK         0.5000 
     66 O           3.1604  -12.7584  -47.9564 O.2       1 UNK        -0.5000 
     67 C           1.7106  -22.3199  -48.4429 C.2       11 UNK         0.5000 
     68 O           1.3070  -23.0466  -49.3500 O.2       11 UNK        -0.5000 
     69 N           1.1272  -21.1601  -48.1049 N.am      12 UNK        -0.5000 
     70 CA         -0.0986  -20.6520  -48.7178 C.3       12 UNK         0.1400 
     71 CB         -0.2849  -19.1784  -48.3297 C.3       12 UNK        -0.1800 
     72 C          -1.3241  -21.5009  -48.3275 C.2       12 UNK         0.5000 
     73 O          -2.0829  -21.9198  -49.2007 O.2       12 UNK        -0.5000 
     74 N          -1.4630  -21.7937  -47.0235 N.am      13 UNK        -0.5000 
     75 CA         -2.5601  -22.5832  -46.4503 C.3       13 UNK         0.1400 
     76 CB         -2.4727  -22.5688  -44.9183 C.3       13 UNK        -0.1800 
     77 C          -2.6555  -24.0299  -46.9691 C.2       13 UNK         0.5000 
     78 O          -3.7411  -24.6092  -46.9298 O.2       13 UNK        -0.5000 
     79 N          -1.5479  -24.5736  -47.4921 N.am      14 UNK        -0.5000 
     80 CA         -1.4750  -25.8795  -48.1528 C.3       14 UNK         0.1400 
     81 CB         -0.0113  -26.1862  -48.5016 C.3       14 UNK        -0.1800 
     82 C          -2.3725  -26.0052  -49.4046 C.2       14 UNK         0.5000 
     83 O          -2.7071  -27.1261  -49.7890 O.2       14 UNK        -0.5000 
     84 N          -2.7814  -24.8707  -49.9950 N.am      15 UNK        -0.5000 
     85 CA         -3.7702  -24.8001  -51.0741 C.3       15 UNK         0.1400 
     86 CB         -3.5741  -23.4886  -51.8470 C.3       15 UNK        -0.1800 
     87 C          -5.2316  -24.9736  -50.5944 C.2       15 UNK         0.5000 
     88 O          -6.1308  -25.0202  -51.4357 O.2       15 UNK        -0.5000 
     89 N          -5.4474  -25.0936  -49.2733 N.am      16 UNK        -0.5000 
     90 CA         -6.6846  -25.4812  -48.5880 C.3       16 UNK         0.1400 
     91 CB         -6.9779  -26.9773  -48.8341 C.3       16 UNK        -0.1800 
     92 C          -7.8746  -24.5600  -48.9162 C.2       16 UNK         0.5000 
     93 O          -7.9702  -23.4708  -48.3515 O.2       16 UNK        -0.5000 
     94 N          -8.7530  -24.9941  -49.8300 N.am      17 UNK        -0.5000 
     95 CA         -9.9046  -24.2315  -50.3190 C.3       17 UNK         0.1400 
     96 CB        -10.7620  -25.1431  -51.2101 C.3       17 UNK        -0.1800 
     97 C          -9.5171  -22.9447  -51.0769 C.2       17 UNK         0.5000 
     98 O         -10.3265  -22.0194  -51.1464 O.2       17 UNK        -0.5000 
     99 N          -8.2895  -22.9036  -51.6094 N.am      18 UNK        -0.5000 
    100 CA        -7.7015  -21.7641  -52.3063 C.3       18 UNK         0.1400 
    101 CB        -7.3206  -22.2056  -53.7317 C.3       18 UNK        -0.1800 
    102 C         -6.4964  -21.2099  -51.5225 C.2       18 UNK         0.5000 
    103 O         -5.5246  -20.7829  -52.1391 O.2       18 UNK        -0.5000 
    104 N         -6.5571  -21.2346  -50.1809 N.am      19 UNK        -0.5000 
    105 CA        -5.4784  -20.8090  -49.2780 C.3       19 UNK         0.1400 
    106 CB        -5.9288  -20.9732  -47.8183 C.3       19 UNK        -0.1800 
    107 C         -4.9532  -19.3787  -49.5131 C.2       19 UNK         0.5000 
    108 O         -3.7493  -19.1535  -49.4043 O.2       19 UNK        -0.5000 
    109 N         -5.8575  -18.4443  -49.8380 N.am      20 UNK        -0.5000 
    110 CA        -5.5450  -17.0476  -50.1403 C.3       20 UNK         0.1400 
    111 CB        -6.8561  -16.2584  -50.2850 C.3       20 UNK        -0.1800 
    112 C         -4.6697  -16.9268  -51.4031 C.2       20 UNK         0.5000 
    113 O         -5.1697  -17.1103  -52.5159 O.2       20 UNK        -0.5000 
    114 N         -3.3725  -16.6625  -51.1933 N.am      21 UNK        -0.5000 
    115 CA        -2.3144  -16.4960  -52.1978 C.3       21 UNK         0.1400 
    116 CB        -2.5148  -15.1627  -52.9477 C.3       21 UNK        -0.1800 
    117 C         -2.1390  -17.6882  -53.1661 C.2       21 UNK         0.5000 
    118 O         -1.6279  -17.5009  -54.2716 O.2       21 UNK        -0.5000 
    119 N         -2.5704  -18.8836  -52.7433 N.am      22 UNK        -0.5000 
    120 CA        -2.6613  -20.1096  -53.5576 C.3       22 UNK         0.1400 
    121 C         -3.6964  -20.0272  -54.7266 C.2       22 UNK         0.5000 
    122 N         -4.6360  -19.0871  -54.7222 N.am      22 UNK        -0.7600 
    123 O         -3.6607  -20.8356  -55.6511 O.2       22 UNK        -0.5000 
    124 C124       -1.2837  -20.6593  -54.0282 C.3       23 UNK        -0.0398 
    125 S125       -0.1019  -20.9012  -52.6584 S.3       23 UNK        -0.2404 
    126 C126        1.2084  -19.7349  -53.1347 C.3       23 UNK        -0.0205 
    127 H127        7.9447  -10.8310  -49.1111 H         1 UNK         0.0600 
    128 H128        6.3526  -10.0991  -49.3411 H         1 UNK         0.0600 
    129 H129        6.8122  -11.5258  -50.2746 H         1 UNK         0.0600 
    130 H130        5.8053  -13.3689  -49.5201 H         1 UNK         0.3000 
    131 H131        5.7635  -14.0801  -46.7127 H         1 UNK         0.0600 
    132 H132        4.7951  -16.2000  -47.4759 H         1 UNK         0.0800 
    133 H133        6.2103  -15.8072  -48.3855 H         1 UNK         0.0800 
    134 H134        2.0009  -16.3340  -49.5637 H         1 UNK         0.0800 
    135 H135        2.9487  -17.0849  -48.3176 H         1 UNK         0.0800 
    136 H136        1.3279  -17.6298  -51.4177 H         1 UNK         0.1150 
    137 H137        3.2914  -21.3200  -52.3623 H         1 UNK         0.1150 
    138 H138        4.7653  -18.8571  -49.1730 H         1 UNK         0.1150 
    139 H139        5.7511  -21.4165  -51.4676 H         1 UNK         0.0800 
    140 H140        6.0667  -20.7427  -49.8917 H         1 UNK         0.0800 
    141 H141        4.2385  -21.1069  -48.0265 H         1 UNK         0.0800 
    142 H142        5.0553  -22.5041  -47.3964 H         1 UNK         0.0800 
    143 H143        2.9610  -23.8629  -47.6437 H         1 UNK         0.0600 
    144 H144        3.3714  -21.7887  -45.7520 H         1 UNK         0.3000 
    145 H145        0.5995  -22.3430  -43.6406 H         1 UNK         0.0600 
    146 H146        2.4178  -22.5146  -41.9567 H         1 UNK         0.0600 
    147 H147        3.5787  -22.9128  -43.2232 H         1 UNK         0.0600 
    148 H148        2.2471  -24.0034  -42.8745 H         1 UNK         0.0600 
    149 H149        1.0280  -20.2171  -43.8747 H         1 UNK         0.3000 
    150 H150        3.9099  -18.1741  -43.9841 H         1 UNK         0.0600 
    151 H151        3.1262  -18.4973  -46.3735 H         1 UNK         0.0600 
    152 H152        2.6169  -16.9772  -45.6648 H         1 UNK         0.0600 
    153 H153        1.4651  -18.2982  -45.8242 H         1 UNK         0.0600 
    154 H154        1.0403  -17.8481  -43.5065 H         1 UNK         0.3000 
    155 H155        1.2991  -18.0708  -39.9683 H         1 UNK         0.0600 
    156 H156        1.9576  -15.7213  -40.3311 H         1 UNK         0.0600 
    157 H157        0.2202  -15.8225  -40.0847 H         1 UNK         0.0600 
    158 H158        0.8711  -15.5848  -41.7043 H         1 UNK         0.0600 
    159 H159       -0.7588  -17.4682  -41.9565 H         1 UNK         0.3000 
    160 H160       -1.8235  -20.8177  -42.3294 H         1 UNK         0.0600 
    161 H161       -3.2178  -18.7808  -40.5115 H         1 UNK         0.0600 
    162 H162       -2.8036  -20.4316  -40.0644 H         1 UNK         0.0600 
    163 H163       -3.9891  -20.1422  -41.3272 H         1 UNK         0.0600 
    164 H164       -3.1131  -18.3359  -42.9334 H         1 UNK         0.3000 
    165 H165       -1.3873  -17.5557  -45.8999 H         1 UNK         0.0600 
    166 H166       -3.5802  -17.8570  -46.9805 H         1 UNK         0.0600 
    167 H167       -2.8770  -19.4282  -46.6492 H         1 UNK         0.0600 
    168 H168       -4.1633  -18.8141  -45.6182 H         1 UNK         0.0600 
    169 H169       -3.6377  -16.2998  -45.1961 H         1 UNK         0.3000 
    170 H170       -3.9646  -14.6094  -43.3870 H         1 UNK         0.0600 
    171 H171       -2.2579  -14.0246  -41.6651 H         1 UNK         0.0600 
    172 H172       -1.2375  -13.2966  -42.8990 H         1 UNK         0.0600 
    173 H173       -2.8102  -12.5967  -42.5256 H         1 UNK         0.0600 
    174 H174       -2.1174  -13.1551  -45.1692 H         1 UNK         0.3000 
    175 H175       -4.2311  -13.5423  -48.0403 H         1 UNK         0.0600 
    176 H176       -3.0478  -11.2151  -46.4299 H         1 UNK         0.0600 
    177 H177       -3.6077  -11.1513  -48.0998 H         1 UNK         0.0600 
    178 H178       -4.7530  -11.4407  -46.8003 H         1 UNK         0.0600 
    179 H179       -1.4689  -12.7267  -47.5719 H         1 UNK         0.3000 
    180 H180       -0.0686  -15.7461  -48.8169 H         1 UNK         0.0600 
    181 H181        1.0193  -14.1874  -50.4050 H         1 UNK         0.0600 
    182 H182       -0.1577  -12.9301  -50.0335 H         1 UNK         0.0600 
    183 H183       -0.6626  -14.3916  -50.8611 H         1 UNK         0.0600 
    184 H184        1.1980  -13.3346  -48.0314 H         1 UNK         0.3000 
    185 H185        1.6638  -12.7954  -45.7107 H         1 UNK         0.0600 
    186 H186        2.0481  -15.3179  -44.0140 H         1 UNK         0.0600 
    187 H187        2.4958  -13.6745  -43.5632 H         1 UNK         0.0600 
    188 H188        0.8055  -14.1044  -43.7627 H         1 UNK         0.0600 
    189 H189        3.7725  -14.7784  -45.6126 H         1 UNK         0.3000 
    190 H190        1.5114  -20.6286  -47.3398 H         1 UNK         0.3000 
    191 H191        0.0140  -20.7024  -49.8009 H         1 UNK         0.0600 
    192 H192        0.5431  -18.5674  -48.6856 H         1 UNK         0.0600 
    193 H193       -0.3443  -19.0589  -47.2503 H         1 UNK         0.0600 
    194 H194       -1.1981  -18.7681  -48.7612 H         1 UNK         0.0600 
    195 H195       -0.7868  -21.4273  -46.3698 H         1 UNK         0.3000 
    196 H196       -3.4905  -22.0916  -46.7348 H         1 UNK         0.0600 
    197 H197       -2.6005  -21.5618  -44.5287 H         1 UNK         0.0600 
    198 H198       -1.5187  -22.9568  -44.5636 H         1 UNK         0.0600 
    199 H199       -3.2592  -23.1806  -44.4742 H         1 UNK         0.0600 
    200 H200       -0.6890  -24.0412  -47.4418 H         1 UNK         0.3000 
    201 H201       -1.8166  -26.6259  -47.4330 H         1 UNK         0.0600 
    202 H202        0.6322  -26.1052  -47.6251 H         1 UNK         0.0600 
    203 H203        0.3694  -25.5061  -49.2634 H         1 UNK         0.0600 
    204 H204        0.0920  -27.2002  -48.8896 H         1 UNK         0.0600 
    205 H205       -2.4528  -23.9824  -49.6303 H         1 UNK         0.3000 
    206 H206       -3.5756  -25.6185  -51.7701 H         1 UNK         0.0600 
    207 H207       -3.7216  -22.6206  -51.2075 H         1 UNK         0.0600 
    208 H208       -2.5689  -23.4235  -52.2641 H         1 UNK         0.0600 
    209 H209       -4.2753  -23.4081  -52.6783 H         1 UNK         0.0600 
    210 H210       -4.6548  -24.9718  -48.6512 H         1 UNK         0.3000 
    211 H211       -6.4929  -25.3586  -47.5209 H         1 UNK         0.0600 
    212 H212       -7.0934  -27.2102  -49.8931 H         1 UNK         0.0600 
    213 H213       -7.8892  -27.2894  -48.3222 H         1 UNK         0.0600 
    214 H214       -6.1670  -27.5971  -48.4509 H         1 UNK         0.0600 
    215 H215       -8.5805  -25.8856  -50.2717 H         1 UNK         0.3000 
    216 H216      -10.5021  -23.9346  -49.4546 H         1 UNK         0.0600 
    217 H217      -11.6470  -24.6172  -51.5709 H         1 UNK         0.0600 
    218 H218      -11.1077  -26.0197  -50.6619 H         1 UNK         0.0600 
    219 H219      -10.2066  -25.4887  -52.0831 H         1 UNK         0.0600 
    220 H220       -7.6798  -23.7076  -51.4886 H         1 UNK         0.3000 
    221 H221       -8.4200  -20.9466  -52.3884 H         1 UNK         0.0600 
    222 H222       -6.5674  -22.9944  -53.7184 H         1 UNK         0.0600 
    223 H223       -8.1893  -22.5815  -54.2722 H         1 UNK         0.0600 
    224 H224       -6.9162  -21.3731  -54.3092 H         1 UNK         0.0600 
    225 H225       -7.3715  -21.6440  -49.7422 H         1 UNK         0.3000 
    226 H226       -4.6388  -21.4840  -49.4399 H         1 UNK         0.0600 
    227 H227       -5.9915  -22.0254  -47.5438 H         1 UNK         0.0600 
    228 H228       -5.2228  -20.5100  -47.1292 H         1 UNK         0.0600 
    229 H229       -6.9028  -20.5160  -47.6415 H         1 UNK         0.0600 
    230 H230       -6.8202  -18.7267  -49.9434 H         1 UNK         0.3000 
    231 H231       -4.9979  -16.6330  -49.2908 H         1 UNK         0.0600 
    232 H232       -6.6556  -15.2110  -50.5138 H         1 UNK         0.0600 
    233 H233       -7.4354  -16.2837  -49.3618 H         1 UNK         0.0600 
    234 H234       -7.4816  -16.6558  -51.0854 H         1 UNK         0.0600 
    235 H235       -3.0725  -16.5388  -50.2294 H         1 UNK         0.3000 
    236 H236       -1.3800  -16.4362  -51.6399 H         1 UNK         0.0600 
    237 H237       -3.3873  -15.1983  -53.6009 H         1 UNK         0.0600 
    238 H238       -2.6526  -14.3330  -52.2543 H         1 UNK         0.0600 
    239 H239       -1.6497  -14.9257  -53.5680 H         1 UNK         0.0600 
    240 H240       -2.9834  -18.9427  -51.8219 H         1 UNK         0.3000 
    241 H241       -3.0706  -20.8585  -52.8824 H         1 UNK         0.0600 
    242 H242       -5.3010  -19.0480  -55.4767 H         1 UNK         0.3800 
    243 H243       -4.7247  -18.4470  -53.9390 H         1 UNK         0.3800 
    244 H244       -0.8510  -20.0085  -54.7890 H         1 UNK         0.0800 
    245 H245       -1.4130  -21.6305  -54.5083 H         1 UNK         0.0800 
    246 H246        0.7614  -18.7863  -53.4354 H         1 UNK         0.0800 
    247 H247        1.7323  -20.1192  -54.0110 H         1 UNK         0.0800 
@<TRIPOS>BOND
     1    1    2 1    
     2    1  127 1    
     3    1  128 1    
     4    1  129 1    
     5    2    3 2    
     6    2    4 am   BACKBONE|DICT|INTERRES
     7    4    5 1    
     8    4  130 1    
     9    5    6 1    
    10    5   65 1    
    11    5  131 1    
    12    6    7 1    
    13    6  132 1    
    14    6  133 1    
    15    7    8 1    
    16    8    9 1    
    17    8  134 1    
    18    8  135 1    
    19    9   10 ar   
    20    9   14 ar   
    21   10   11 ar   
    22   10  136 1    
    23   11   12 ar   
    24   11  126 1    
    25   12   13 ar   
    26   12  137 1    
    27   13   14 ar   
    28   13   15 1    
    29   14  138 1    
    30   15   16 1    
    31   15  139 1    
    32   15  140 1    
    33   16   17 1    
    34   17   18 1    
    35   17  141 1    
    36   17  142 1    
    37   18   19 1    
    38   18   67 1    
    39   18  143 1    
    40   19   20 am   BACKBONE|DICT|INTERRES
    41   19  144 1    
    42   20   21 2    
    43   20   22 1    
    44   22   23 1    
    45   22   24 1    
    46   22  145 1    
    47   23  146 1    
    48   23  147 1    
    49   23  148 1    
    50   24   25 am   BACKBONE|DICT|INTERRES
    51   24  149 1    
    52   25   26 2    
    53   25   27 1    
    54   27   28 1    
    55   27   29 1    
    56   27  150 1    
    57   28  151 1    
    58   28  152 1    
    59   28  153 1    
    60   29   30 am   BACKBONE|DICT|INTERRES
    61   29  154 1    
    62   30   31 2    
    63   30   32 1    
    64   32   33 1    
    65   32   34 1    
    66   32  155 1    
    67   33  156 1    
    68   33  157 1    
    69   33  158 1    
    70   34   35 am   BACKBONE|DICT|INTERRES
    71   34  159 1    
    72   35   36 2    
    73   35   37 1    
    74   37   38 1    
    75   37   39 1    
    76   37  160 1    
    77   38  161 1    
    78   38  162 1    
    79   38  163 1    
    80   39   40 am   BACKBONE|DICT|INTERRES
    81   39  164 1    
    82   40   41 2    
    83   40   42 1    
    84   42   43 1    
    85   42   44 1    
    86   42  165 1    
    87   43  166 1    
    88   43  167 1    
    89   43  168 1    
    90   44   45 am   BACKBONE|DICT|INTERRES
    91   44  169 1    
    92   45   46 2    
    93   45   47 1    
    94   47   48 1    
    95   47   49 1    
    96   47  170 1    
    97   48  171 1    
    98   48  172 1    
    99   48  173 1    
   100   49   50 am   BACKBONE|DICT|INTERRES
   101   49  174 1    
   102   50   51 2    
   103   50   52 1    
   104   52   53 1    
   105   52   54 1    
   106   52  175 1    
   107   53  176 1    
   108   53  177 1    
   109   53  178 1    
   110   54   55 am   BACKBONE|DICT|INTERRES
   111   54  179 1    
   112   55   56 2    
   113   55   57 1    
   114   57   58 1    
   115   57   59 1    
   116   57  180 1    
   117   58  181 1    
   118   58  182 1    
   119   58  183 1    
   120   59   60 am   BACKBONE|DICT|INTERRES
   121   59  184 1    
   122   60   61 2    
   123   60   62 1    
   124   62   63 1    
   125   62   64 1    
   126   62  185 1    
   127   63  186 1    
   128   63  187 1    
   129   63  188 1    
   130   64   65 am   BACKBONE|DICT|INTERRES
   131   64  189 1    
   132   65   66 2    
   133   67   68 2    
   134   67   69 am   BACKBONE|DICT|INTERRES
   135   69   70 1    
   136   69  190 1    
   137   70   71 1    
   138   70   72 1    
   139   70  191 1    
   140   71  192 1    
   141   71  193 1    
   142   71  194 1    
   143   72   73 2    
   144   72   74 am   BACKBONE|DICT|INTERRES
   145   74   75 1    
   146   74  195 1    
   147   75   76 1    
   148   75   77 1    
   149   75  196 1    
   150   76  197 1    
   151   76  198 1    
   152   76  199 1    
   153   77   78 2    
   154   77   79 am   BACKBONE|DICT|INTERRES
   155   79   80 1    
   156   79  200 1    
   157   80   81 1    
   158   80   82 1    
   159   80  201 1    
   160   81  202 1    
   161   81  203 1    
   162   81  204 1    
   163   82   83 2    
   164   82   84 am   BACKBONE|DICT|INTERRES
   165   84   85 1    
   166   84  205 1    
   167   85   86 1    
   168   85   87 1    
   169   85  206 1    
   170   86  207 1    
   171   86  208 1    
   172   86  209 1    
   173   87   88 2    
   174   87   89 am   BACKBONE|DICT|INTERRES
   175   89   90 1    
   176   89  210 1    
   177   90   91 1    
   178   90   92 1    
   179   90  211 1    
   180   91  212 1    
   181   91  213 1    
   182   91  214 1    
   183   92   93 2    
   184   92   94 am   BACKBONE|DICT|INTERRES
   185   94   95 1    
   186   94  215 1    
   187   95   96 1    
   188   95   97 1    
   189   95  216 1    
   190   96  217 1    
   191   96  218 1    
   192   96  219 1    
   193   97   98 2    
   194   97   99 am   BACKBONE|DICT|INTERRES
   195   99  100 1    
   196   99  220 1    
   197  100  101 1    
   198  100  102 1    
   199  100  221 1    
   200  101  222 1    
   201  101  223 1    
   202  101  224 1    
   203  102  103 2    
   204  102  104 am   BACKBONE|DICT|INTERRES
   205  104  105 1    
   206  104  225 1    
   207  105  106 1    
   208  105  107 1    
   209  105  226 1    
   210  106  227 1    
   211  106  228 1    
   212  106  229 1    
   213  107  108 2    
   214  107  109 am   BACKBONE|DICT|INTERRES
   215  109  110 1    
   216  109  230 1    
   217  110  111 1    
   218  110  112 1    
   219  110  231 1    
   220  111  232 1    
   221  111  233 1    
   222  111  234 1    
   223  112  113 2    
   224  112  114 am   BACKBONE|DICT|INTERRES
   225  114  115 1    
   226  114  235 1    
   227  115  116 1    
   228  115  117 1    
   229  115  236 1    
   230  116  237 1    
   231  116  238 1    
   232  116  239 1    
   233  117  118 2    
   234  117  119 am   BACKBONE|DICT|INTERRES
   235  119  120 1    
   236  119  240 1    
   237  120  121 1    
   238  120  124 1    
   239  120  241 1    
   240  121  122 am   BACKBONE|DICT|INTERRES
   241  121  123 2    
   242  122  242 1    
   243  122  243 1    
   244  124  125 1    
   245  124  244 1    
   246  124  245 1    
   247  125  126 1    
   248  126  246 1    
   249  126  247 1    
@<TRIPOS>SUBSTRUCTURE
     1 UNK         1 GROUP             0       ****    0 ROOT    
