@<TRIPOS>MOLECULE
3R540
247   249    1
SMALL
USER_CHARGES


@<TRIPOS>ATOM
      1 CA         -1.5028  -16.2689  -50.1390 C.3       0 UNK        -0.1800 
      2 C          -0.4776  -15.4504  -49.3736 C.2       0 UNK         0.5000 
      3 O          -0.8210  -14.4124  -48.8091 O.2       0 UNK        -0.5000 
      4 N           0.7740  -15.9198  -49.3505 N.am      1 UNK        -0.5000 
      5 CA          1.8573  -15.3568  -48.5402 C.3       1 UNK         0.1400 
      6 C6          3.2519  -15.6417  -49.1544 C.3       23 UNK        -0.0398 
      7 S7          3.4157  -14.9272  -50.8302 S.3       23 UNK        -0.2404 
      8 C8          3.9564  -16.3484  -51.8364 C.3       23 UNK        -0.0205 
      9 C9          2.9813  -17.5151  -51.7792 C.ar      23 UNK        -0.0193 
     10 C10         1.7210  -17.4193  -52.3766 C.ar      23 UNK        -0.1150 
     11 C11         0.8185  -18.4842  -52.2989 C.ar      23 UNK        -0.0193 
     12 C12         1.1831  -19.6491  -51.6191 C.ar      23 UNK        -0.1150 
     13 C13         2.4445  -19.7591  -51.0283 C.ar      23 UNK        -0.0193 
     14 C14         3.3424  -18.6936  -51.1212 C.ar      23 UNK        -0.1150 
     15 C15         2.8293  -21.0228  -50.2743 C.3       23 UNK        -0.0205 
     16 S16         3.1830  -20.7281  -48.5071 S.3       23 UNK        -0.2404 
     17 C17         1.8033  -19.6693  -47.9453 C.3       23 UNK        -0.0398 
     18 CA          0.5975  -20.4606  -47.3910 C.3       11 UNK         0.1400 
     19 N          -0.0962  -19.7366  -46.3225 N.am      11 UNK        -0.5000 
     20 C          -0.9999  -20.3123  -45.5164 C.2       10 UNK         0.5000 
     21 O          -1.2749  -21.5108  -45.5717 O.2       10 UNK        -0.5000 
     22 CA         -1.7572  -19.4270  -44.5117 C.3       10 UNK         0.1400 
     23 CB         -1.3444  -19.7587  -43.0752 C.3       10 UNK        -0.1800 
     24 N          -1.6109  -17.9877  -44.7297 N.am      10 UNK        -0.5000 
     25 C          -2.1562  -17.3156  -45.7539 C.2       9 UNK         0.5000 
     26 O          -2.7179  -17.8725  -46.6993 O.2       9 UNK        -0.5000 
     27 CA         -2.0754  -15.7792  -45.7086 C.3       9 UNK         0.1400 
     28 CB         -3.4080  -15.1206  -46.1063 C.3       9 UNK        -0.1800 
     29 N          -1.6677  -15.2929  -44.3866 N.am      9 UNK        -0.5000 
     30 C          -0.7679  -14.3251  -44.1844 C.2       8 UNK         0.5000 
     31 O          -0.2367  -13.6881  -45.0937 O.2       8 UNK        -0.5000 
     32 CA         -0.3722  -13.9974  -42.7319 C.3       8 UNK         0.1400 
     33 CB         -0.9822  -12.6528  -42.3052 C.3       8 UNK        -0.1800 
     34 N          -0.7010  -14.9964  -41.7111 N.am      8 UNK        -0.5000 
     35 C          -0.2280  -16.2471  -41.6048 C.2       7 UNK         0.5000 
     36 O           0.3762  -16.8421  -42.5009 O.2       7 UNK        -0.5000 
     37 CA         -0.4362  -16.8983  -40.2242 C.3       7 UNK         0.1400 
     38 CB          0.3232  -18.2251  -40.0452 C.3       7 UNK        -0.1800 
     39 N           0.0248  -15.9527  -39.2083 N.am      7 UNK        -0.5000 
     40 C          -0.6767  -15.5170  -38.1538 C.2       6 UNK         0.5000 
     41 O          -1.8126  -15.9131  -37.8889 O.2       6 UNK        -0.5000 
     42 CA         -0.0280  -14.4212  -37.2740 C.3       6 UNK         0.1400 
     43 CB         -0.3453  -14.5992  -35.7739 C.3       6 UNK        -0.1800 
     44 N           1.4135  -14.2404  -37.5020 N.am      6 UNK        -0.5000 
     45 C           2.3932  -15.1113  -37.2242 C.2       5 UNK         0.5000 
     46 O           2.2267  -16.1882  -36.6474 O.2       5 UNK        -0.5000 
     47 CA          3.8018  -14.7269  -37.7175 C.3       5 UNK         0.1400 
     48 CB          4.7070  -14.3347  -36.5399 C.3       5 UNK        -0.1800 
     49 N           4.4156  -15.8324  -38.4545 N.am      5 UNK        -0.5000 
     50 C           3.9213  -16.3532  -39.5848 C.2       4 UNK         0.5000 
     51 O           2.9664  -15.8658  -40.2010 O.2       4 UNK        -0.5000 
     52 CA          4.5801  -17.6485  -40.0867 C.3       4 UNK         0.1400 
     53 CB          4.3789  -18.7936  -39.0709 C.3       4 UNK        -0.1800 
     54 N           3.9727  -17.9948  -41.3658 N.am      4 UNK        -0.5000 
     55 C           4.3616  -18.9470  -42.2211 C.2       3 UNK         0.5000 
     56 O           5.3549  -19.6560  -42.0573 O.2       3 UNK        -0.5000 
     57 CA          3.4866  -19.1402  -43.4734 C.3       3 UNK         0.1400 
     58 CB          2.4394  -20.2348  -43.2245 C.3       3 UNK        -0.1800 
     59 N           2.8125  -17.8969  -43.8551 N.am      3 UNK        -0.5000 
     60 C           3.3828  -16.9589  -44.6191 C.2       2 UNK         0.5000 
     61 O           4.4833  -17.0825  -45.1616 O.2       2 UNK        -0.5000 
     62 CA          2.6059  -15.6450  -44.7832 C.3       2 UNK         0.1400 
     63 CB          3.2620  -14.5188  -43.9699 C.3       2 UNK        -0.1800 
     64 N           2.5182  -15.2481  -46.1848 N.am      2 UNK        -0.5000 
     65 C           1.7641  -15.8814  -47.0909 C.2       1 UNK         0.5000 
     66 O           1.0325  -16.8394  -46.8146 O.2       1 UNK        -0.5000 
     67 C          -0.3758  -20.9195  -48.5032 C.2       11 UNK         0.5000 
     68 O          -0.1669  -21.9858  -49.0778 O.2       11 UNK        -0.5000 
     69 N          -1.4652  -20.1675  -48.7419 N.am      12 UNK        -0.5000 
     70 CA         -2.5460  -20.5834  -49.6439 C.3       12 UNK         0.1400 
     71 CB         -3.5077  -19.4161  -49.9080 C.3       12 UNK        -0.1800 
     72 C          -3.3244  -21.8016  -49.1148 C.2       12 UNK         0.5000 
     73 O          -3.7155  -22.6579  -49.9076 O.2       12 UNK        -0.5000 
     74 N          -3.5110  -21.8760  -47.7888 N.am      13 UNK        -0.5000 
     75 CA         -4.1171  -23.0208  -47.1084 C.3       13 UNK         0.1400 
     76 CB         -4.4946  -22.6477  -45.6668 C.3       13 UNK        -0.1800 
     77 C          -3.1974  -24.2526  -47.1530 C.2       13 UNK         0.5000 
     78 O          -3.6675  -25.3435  -47.4784 O.2       13 UNK        -0.5000 
     79 N          -1.8971  -24.0399  -46.8973 N.am      14 UNK        -0.5000 
     80 CA         -0.8371  -25.0494  -46.9958 C.3       14 UNK         0.1400 
     81 CB          0.4871  -24.4520  -46.4979 C.3       14 UNK        -0.1800 
     82 C          -0.6711  -25.6254  -48.4170 C.2       14 UNK         0.5000 
     83 O          -0.3472  -26.8040  -48.5604 O.2       14 UNK        -0.5000 
     84 N          -0.9621  -24.8073  -49.4374 N.am      15 UNK        -0.5000 
     85 CA         -1.0369  -25.1733  -50.8542 C.3       15 UNK         0.1400 
     86 CB         -0.8085  -23.9082  -51.7015 C.3       15 UNK        -0.1800 
     87 C          -2.3478  -25.9019  -51.2424 C.2       15 UNK         0.5000 
     88 O          -2.6980  -25.9240  -52.4228 O.2       15 UNK        -0.5000 
     89 N          -3.0394  -26.4936  -50.2568 N.am      16 UNK        -0.5000 
     90 CA         -4.2876  -27.2546  -50.3547 C.3       16 UNK         0.1400 
     91 CB         -4.1211  -28.5014  -51.2500 C.3       16 UNK        -0.1800 
     92 C          -5.4860  -26.3685  -50.7430 C.2       16 UNK         0.5000 
     93 O          -6.2654  -26.7299  -51.6266 O.2       16 UNK        -0.5000 
     94 N          -5.6070  -25.2281  -50.0469 N.am      17 UNK        -0.5000 
     95 CA         -6.6583  -24.2130  -50.1791 C.3       17 UNK         0.1400 
     96 CB         -8.0183  -24.7693  -49.7091 C.3       17 UNK        -0.1800 
     97 C          -6.7063  -23.6005  -51.5921 C.2       17 UNK         0.5000 
     98 O          -7.7486  -23.6118  -52.2497 O.2       17 UNK        -0.5000 
     99 N          -5.5636  -23.0587  -52.0288 N.am      18 UNK        -0.5000 
    100 CA        -5.3340  -22.4513  -53.3425 C.3       18 UNK         0.1400 
    101 CB        -3.8210  -22.4551  -53.6246 C.3       18 UNK        -0.1800 
    102 C         -5.9565  -21.0433  -53.4966 C.2       18 UNK         0.5000 
    103 O         -5.3420  -20.1599  -54.0983 O.2       18 UNK        -0.5000 
    104 N         -7.1687  -20.8495  -52.9613 N.am      19 UNK        -0.5000 
    105 CA        -7.9600  -19.6245  -53.0643 C.3       19 UNK         0.1400 
    106 CB        -9.2372  -19.7766  -52.2249 C.3       19 UNK        -0.1800 
    107 C         -8.2942  -19.3168  -54.5339 C.2       19 UNK         0.5000 
    108 O         -8.8185  -20.1890  -55.2304 O.2       19 UNK        -0.5000 
    109 N         -7.9173  -18.1148  -54.9892 N.am      20 UNK        -0.5000 
    110 CA        -7.9426  -17.6044  -56.3689 C.3       20 UNK         0.1400 
    111 CB        -9.3687  -17.5948  -56.9518 C.3       20 UNK        -0.1800 
    112 C         -6.9515  -18.3057  -57.3233 C.2       20 UNK         0.5000 
    113 O         -6.3175  -17.6272  -58.1323 O.2       20 UNK        -0.5000 
    114 N         -6.8003  -19.6307  -57.1953 N.am      21 UNK        -0.5000 
    115 CA        -5.9026  -20.4888  -57.9735 C.3       21 UNK         0.1400 
    116 CB        -6.0967  -21.9464  -57.5287 C.3       21 UNK        -0.1800 
    117 C         -4.4165  -20.0915  -57.8805 C.2       21 UNK         0.5000 
    118 O         -3.6891  -20.2399  -58.8632 O.2       21 UNK        -0.5000 
    119 N         -4.0029  -19.5696  -56.7187 N.am      22 UNK        -0.5000 
    120 CA        -2.6738  -18.9830  -56.4867 C.3       22 UNK         0.1400 
    121 C         -2.4469  -17.5955  -57.1682 C.2       22 UNK         0.5000 
    122 N         -3.4535  -16.9544  -57.7522 N.am      22 UNK        -0.7600 
    123 O         -1.3286  -17.0898  -57.1848 O.2       22 UNK        -0.5000 
    124 C124       -2.3537  -18.9464  -54.9695 C.3       23 UNK        -0.0398 
    125 S125       -0.5799  -19.1153  -54.5907 S.3       23 UNK        -0.2404 
    126 C126       -0.5566  -18.3761  -52.9334 C.3       23 UNK        -0.0205 
    127 H127       -1.1259  -17.2694  -50.3464 H         1 UNK         0.0600 
    128 H128       -2.4162  -16.3678  -49.5520 H         1 UNK         0.0600 
    129 H129       -1.7488  -15.7839  -51.0834 H         1 UNK         0.0600 
    130 H130        1.0004  -16.7661  -49.8511 H         1 UNK         0.3000 
    131 H131        1.7303  -14.2727  -48.4962 H         1 UNK         0.0600 
    132 H132        4.0400  -15.2020  -48.5412 H         1 UNK         0.0800 
    133 H133        3.4535  -16.7129  -49.1711 H         1 UNK         0.0800 
    134 H134        4.9501  -16.6568  -51.5077 H         1 UNK         0.0800 
    135 H135        4.0656  -16.0256  -52.8727 H         1 UNK         0.0800 
    136 H136        1.4415  -16.5114  -52.8929 H         1 UNK         0.1150 
    137 H137        0.4830  -20.4707  -51.5523 H         1 UNK         0.1150 
    138 H138        4.3158  -18.7775  -50.6582 H         1 UNK         0.1150 
    139 H139        2.0512  -21.7810  -50.3630 H         1 UNK         0.0800 
    140 H140        3.7170  -21.4530  -50.7395 H         1 UNK         0.0800 
    141 H141        1.5032  -18.9465  -48.7038 H         1 UNK         0.0800 
    142 H142        2.2374  -19.0751  -47.1408 H         1 UNK         0.0800 
    143 H143        0.9922  -21.3656  -46.9256 H         1 UNK         0.0600 
    144 H144        0.0848  -18.7417  -46.2479 H         1 UNK         0.3000 
    145 H145       -2.8158  -19.6738  -44.6174 H         1 UNK         0.0600 
    146 H146       -1.9643  -19.2270  -42.3532 H         1 UNK         0.0600 
    147 H147       -1.4436  -20.8250  -42.8674 H         1 UNK         0.0600 
    148 H148       -0.3078  -19.4820  -42.8999 H         1 UNK         0.0600 
    149 H149       -1.0696  -17.4793  -44.0421 H         1 UNK         0.3000 
    150 H150       -1.3250  -15.5063  -46.4504 H         1 UNK         0.0600 
    151 H151       -3.7139  -15.4244  -47.1083 H         1 UNK         0.0600 
    152 H152       -3.3212  -14.0340  -46.1136 H         1 UNK         0.0600 
    153 H153       -4.2099  -15.3901  -45.4183 H         1 UNK         0.0600 
    154 H154       -2.0836  -15.7453  -43.5853 H         1 UNK         0.3000 
    155 H155        0.7128  -13.8868  -42.7218 H         1 UNK         0.0600 
    156 H156       -2.0703  -12.7055  -42.2521 H         1 UNK         0.0600 
    157 H157       -0.7264  -11.8619  -43.0117 H         1 UNK         0.0600 
    158 H158       -0.6116  -12.3421  -41.3282 H         1 UNK         0.0600 
    159 H159       -1.2058  -14.6373  -40.9141 H         1 UNK         0.3000 
    160 H160       -1.5048  -17.0933  -40.1166 H         1 UNK         0.0600 
    161 H161        0.2489  -18.5839  -39.0185 H         1 UNK         0.0600 
    162 H162        1.3806  -18.1229  -40.2829 H         1 UNK         0.0600 
    163 H163       -0.0853  -19.0050  -40.6834 H         1 UNK         0.0600 
    164 H164        0.9536  -15.5782  -39.3660 H         1 UNK         0.3000 
    165 H165       -0.4918  -13.4856  -37.5893 H         1 UNK         0.0600 
    166 H166        0.1247  -13.8190  -35.1752 H         1 UNK         0.0600 
    167 H167       -1.4191  -14.5415  -35.5926 H         1 UNK         0.0600 
    168 H168       -0.0060  -15.5639  -35.3963 H         1 UNK         0.0600 
    169 H169        1.6626  -13.3875  -37.9843 H         1 UNK         0.3000 
    170 H170        3.7262  -13.8728  -38.3938 H         1 UNK         0.0600 
    171 H171        4.2815  -13.4987  -35.9833 H         1 UNK         0.0600 
    172 H172        4.8391  -15.1612  -35.8404 H         1 UNK         0.0600 
    173 H173        5.6936  -14.0258  -36.8857 H         1 UNK         0.0600 
    174 H174        5.1808  -16.3031  -37.9945 H         1 UNK         0.3000 
    175 H175        5.6450  -17.4621  -40.2367 H         1 UNK         0.0600 
    176 H176        3.3207  -18.9961  -38.9010 H         1 UNK         0.0600 
    177 H177        4.8444  -19.7193  -39.4083 H         1 UNK         0.0600 
    178 H178        4.8240  -18.5526  -38.1052 H         1 UNK         0.0600 
    179 H179        3.1734  -17.4162  -41.5942 H         1 UNK         0.3000 
    180 H180        4.1304  -19.4730  -44.2907 H         1 UNK         0.0600 
    181 H181        1.8277  -20.0114  -42.3504 H         1 UNK         0.0600 
    182 H182        2.9212  -21.1964  -43.0443 H         1 UNK         0.0600 
    183 H183        1.7817  -20.3586  -44.0845 H         1 UNK         0.0600 
    184 H184        1.9101  -17.7047  -43.4296 H         1 UNK         0.3000 
    185 H185        1.5926  -15.7905  -44.4171 H         1 UNK         0.0600 
    186 H186        3.2737  -14.7644  -42.9069 H         1 UNK         0.0600 
    187 H187        4.2936  -14.3459  -44.2791 H         1 UNK         0.0600 
    188 H188        2.7182  -13.5809  -44.0822 H         1 UNK         0.0600 
    189 H189        3.1077  -14.4807  -46.4709 H         1 UNK         0.3000 
    190 H190       -1.6156  -19.3247  -48.2016 H         1 UNK         0.3000 
    191 H191       -2.1005  -20.8718  -50.5983 H         1 UNK         0.0600 
    192 H192       -3.8967  -18.9929  -48.9812 H         1 UNK         0.0600 
    193 H193       -4.3614  -19.7396  -50.5058 H         1 UNK         0.0600 
    194 H194       -3.0191  -18.6207  -50.4658 H         1 UNK         0.0600 
    195 H195       -3.1289  -21.1483  -47.2036 H         1 UNK         0.3000 
    196 H196       -5.0402  -23.2756  -47.6301 H         1 UNK         0.0600 
    197 H197       -5.0218  -23.4701  -45.1819 H         1 UNK         0.0600 
    198 H198       -5.1554  -21.7810  -45.6439 H         1 UNK         0.0600 
    199 H199       -3.6219  -22.4200  -45.0561 H         1 UNK         0.0600 
    200 H200       -1.6134  -23.1127  -46.5928 H         1 UNK         0.3000 
    201 H201       -1.1102  -25.8736  -46.3339 H         1 UNK         0.0600 
    202 H202        0.3802  -24.0173  -45.5037 H         1 UNK         0.0600 
    203 H203        0.8535  -23.6757  -47.1687 H         1 UNK         0.0600 
    204 H204        1.2597  -25.2193  -46.4377 H         1 UNK         0.0600 
    205 H205       -1.1456  -23.8336  -49.2239 H         1 UNK         0.3000 
    206 H206       -0.2216  -25.8662  -51.0705 H         1 UNK         0.0600 
    207 H207       -0.7797  -24.1412  -52.7664 H         1 UNK         0.0600 
    208 H208       -1.5996  -23.1755  -51.5464 H         1 UNK         0.0600 
    209 H209        0.1401  -23.4325  -51.4519 H         1 UNK         0.0600 
    210 H210       -2.6869  -26.3793  -49.3158 H         1 UNK         0.3000 
    211 H211       -4.4965  -27.6119  -49.3452 H         1 UNK         0.0600 
    212 H212       -3.9733  -28.2371  -52.2972 H         1 UNK         0.0600 
    213 H213       -5.0060  -29.1367  -51.1982 H         1 UNK         0.0600 
    214 H214       -3.2706  -29.1044  -50.9320 H         1 UNK         0.0600 
    215 H215       -4.8830  -25.0246  -49.3694 H         1 UNK         0.3000 
    216 H216       -6.3948  -23.3965  -49.5071 H         1 UNK         0.0600 
    217 H217       -8.7804  -23.9892  -49.7138 H         1 UNK         0.0600 
    218 H218       -7.9552  -25.1546  -48.6915 H         1 UNK         0.0600 
    219 H219       -8.3737  -25.5756  -50.3514 H         1 UNK         0.0600 
    220 H220       -4.7773  -23.0413  -51.3828 H         1 UNK         0.3000 
    221 H221       -5.8097  -23.0851  -54.0933 H         1 UNK         0.0600 
    222 H222       -3.2823  -21.8095  -52.9300 H         1 UNK         0.0600 
    223 H223       -3.4072  -23.4596  -53.5376 H         1 UNK         0.0600 
    224 H224       -3.6073  -22.1088  -54.6366 H         1 UNK         0.0600 
    225 H225       -7.6309  -21.6594  -52.5629 H         1 UNK         0.3000 
    226 H226       -7.3681  -18.8064  -52.6487 H         1 UNK         0.0600 
    227 H227       -9.8447  -18.8719  -52.2716 H         1 UNK         0.0600 
    228 H228       -9.8533  -20.6054  -52.5763 H         1 UNK         0.0600 
    229 H229       -9.0008  -19.9563  -51.1759 H         1 UNK         0.0600 
    230 H230       -7.4626  -17.4972  -54.3309 H         1 UNK         0.3000 
    231 H231       -7.6169  -16.5653  -56.2985 H         1 UNK         0.0600 
    232 H232      -10.0591  -17.0635  -56.2967 H         1 UNK         0.0600 
    233 H233       -9.7576  -18.6016  -57.1049 H         1 UNK         0.0600 
    234 H234       -9.3867  -17.0919  -57.9195 H         1 UNK         0.0600 
    235 H235       -7.3910  -20.0912  -56.5097 H         1 UNK         0.3000 
    236 H236       -6.1994  -20.4063  -59.0208 H         1 UNK         0.0600 
    237 H237       -5.4707  -22.6208  -58.1144 H         1 UNK         0.0600 
    238 H238       -5.8347  -22.0834  -56.4794 H         1 UNK         0.0600 
    239 H239       -7.1306  -22.2658  -57.6609 H         1 UNK         0.0600 
    240 H240       -4.6538  -19.5302  -55.9414 H         1 UNK         0.3000 
    241 H241       -1.9586  -19.6609  -56.9566 H         1 UNK         0.0600 
    242 H242       -4.3869  -17.3488  -57.7944 H         1 UNK         0.3800 
    243 H243       -3.2759  -16.0649  -58.1910 H         1 UNK         0.3800 
    244 H244       -2.7605  -18.0452  -54.5070 H         1 UNK         0.0800 
    245 H245       -2.8352  -19.7808  -54.4623 H         1 UNK         0.0800 
    246 H246       -1.2934  -18.8780  -52.3046 H         1 UNK         0.0800 
    247 H247       -0.8617  -17.3307  -53.0002 H         1 UNK         0.0800 
@<TRIPOS>BOND
     1    1    2 1    
     2    1  127 1    
     3    1  128 1    
     4    1  129 1    
     5    2    3 2    
     6    2    4 am   BACKBONE|DICT|INTERRES
     7    4    5 1    
     8    4  130 1    
     9    5    6 1    
    10    5   65 1    
    11    5  131 1    
    12    6    7 1    
    13    6  132 1    
    14    6  133 1    
    15    7    8 1    
    16    8    9 1    
    17    8  134 1    
    18    8  135 1    
    19    9   10 ar   
    20    9   14 ar   
    21   10   11 ar   
    22   10  136 1    
    23   11   12 ar   
    24   11  126 1    
    25   12   13 ar   
    26   12  137 1    
    27   13   14 ar   
    28   13   15 1    
    29   14  138 1    
    30   15   16 1    
    31   15  139 1    
    32   15  140 1    
    33   16   17 1    
    34   17   18 1    
    35   17  141 1    
    36   17  142 1    
    37   18   19 1    
    38   18   67 1    
    39   18  143 1    
    40   19   20 am   BACKBONE|DICT|INTERRES
    41   19  144 1    
    42   20   21 2    
    43   20   22 1    
    44   22   23 1    
    45   22   24 1    
    46   22  145 1    
    47   23  146 1    
    48   23  147 1    
    49   23  148 1    
    50   24   25 am   BACKBONE|DICT|INTERRES
    51   24  149 1    
    52   25   26 2    
    53   25   27 1    
    54   27   28 1    
    55   27   29 1    
    56   27  150 1    
    57   28  151 1    
    58   28  152 1    
    59   28  153 1    
    60   29   30 am   BACKBONE|DICT|INTERRES
    61   29  154 1    
    62   30   31 2    
    63   30   32 1    
    64   32   33 1    
    65   32   34 1    
    66   32  155 1    
    67   33  156 1    
    68   33  157 1    
    69   33  158 1    
    70   34   35 am   BACKBONE|DICT|INTERRES
    71   34  159 1    
    72   35   36 2    
    73   35   37 1    
    74   37   38 1    
    75   37   39 1    
    76   37  160 1    
    77   38  161 1    
    78   38  162 1    
    79   38  163 1    
    80   39   40 am   BACKBONE|DICT|INTERRES
    81   39  164 1    
    82   40   41 2    
    83   40   42 1    
    84   42   43 1    
    85   42   44 1    
    86   42  165 1    
    87   43  166 1    
    88   43  167 1    
    89   43  168 1    
    90   44   45 am   BACKBONE|DICT|INTERRES
    91   44  169 1    
    92   45   46 2    
    93   45   47 1    
    94   47   48 1    
    95   47   49 1    
    96   47  170 1    
    97   48  171 1    
    98   48  172 1    
    99   48  173 1    
   100   49   50 am   BACKBONE|DICT|INTERRES
   101   49  174 1    
   102   50   51 2    
   103   50   52 1    
   104   52   53 1    
   105   52   54 1    
   106   52  175 1    
   107   53  176 1    
   108   53  177 1    
   109   53  178 1    
   110   54   55 am   BACKBONE|DICT|INTERRES
   111   54  179 1    
   112   55   56 2    
   113   55   57 1    
   114   57   58 1    
   115   57   59 1    
   116   57  180 1    
   117   58  181 1    
   118   58  182 1    
   119   58  183 1    
   120   59   60 am   BACKBONE|DICT|INTERRES
   121   59  184 1    
   122   60   61 2    
   123   60   62 1    
   124   62   63 1    
   125   62   64 1    
   126   62  185 1    
   127   63  186 1    
   128   63  187 1    
   129   63  188 1    
   130   64   65 am   BACKBONE|DICT|INTERRES
   131   64  189 1    
   132   65   66 2    
   133   67   68 2    
   134   67   69 am   BACKBONE|DICT|INTERRES
   135   69   70 1    
   136   69  190 1    
   137   70   71 1    
   138   70   72 1    
   139   70  191 1    
   140   71  192 1    
   141   71  193 1    
   142   71  194 1    
   143   72   73 2    
   144   72   74 am   BACKBONE|DICT|INTERRES
   145   74   75 1    
   146   74  195 1    
   147   75   76 1    
   148   75   77 1    
   149   75  196 1    
   150   76  197 1    
   151   76  198 1    
   152   76  199 1    
   153   77   78 2    
   154   77   79 am   BACKBONE|DICT|INTERRES
   155   79   80 1    
   156   79  200 1    
   157   80   81 1    
   158   80   82 1    
   159   80  201 1    
   160   81  202 1    
   161   81  203 1    
   162   81  204 1    
   163   82   83 2    
   164   82   84 am   BACKBONE|DICT|INTERRES
   165   84   85 1    
   166   84  205 1    
   167   85   86 1    
   168   85   87 1    
   169   85  206 1    
   170   86  207 1    
   171   86  208 1    
   172   86  209 1    
   173   87   88 2    
   174   87   89 am   BACKBONE|DICT|INTERRES
   175   89   90 1    
   176   89  210 1    
   177   90   91 1    
   178   90   92 1    
   179   90  211 1    
   180   91  212 1    
   181   91  213 1    
   182   91  214 1    
   183   92   93 2    
   184   92   94 am   BACKBONE|DICT|INTERRES
   185   94   95 1    
   186   94  215 1    
   187   95   96 1    
   188   95   97 1    
   189   95  216 1    
   190   96  217 1    
   191   96  218 1    
   192   96  219 1    
   193   97   98 2    
   194   97   99 am   BACKBONE|DICT|INTERRES
   195   99  100 1    
   196   99  220 1    
   197  100  101 1    
   198  100  102 1    
   199  100  221 1    
   200  101  222 1    
   201  101  223 1    
   202  101  224 1    
   203  102  103 2    
   204  102  104 am   BACKBONE|DICT|INTERRES
   205  104  105 1    
   206  104  225 1    
   207  105  106 1    
   208  105  107 1    
   209  105  226 1    
   210  106  227 1    
   211  106  228 1    
   212  106  229 1    
   213  107  108 2    
   214  107  109 am   BACKBONE|DICT|INTERRES
   215  109  110 1    
   216  109  230 1    
   217  110  111 1    
   218  110  112 1    
   219  110  231 1    
   220  111  232 1    
   221  111  233 1    
   222  111  234 1    
   223  112  113 2    
   224  112  114 am   BACKBONE|DICT|INTERRES
   225  114  115 1    
   226  114  235 1    
   227  115  116 1    
   228  115  117 1    
   229  115  236 1    
   230  116  237 1    
   231  116  238 1    
   232  116  239 1    
   233  117  118 2    
   234  117  119 am   BACKBONE|DICT|INTERRES
   235  119  120 1    
   236  119  240 1    
   237  120  121 1    
   238  120  124 1    
   239  120  241 1    
   240  121  122 am   BACKBONE|DICT|INTERRES
   241  121  123 2    
   242  122  242 1    
   243  122  243 1    
   244  124  125 1    
   245  124  244 1    
   246  124  245 1    
   247  125  126 1    
   248  126  246 1    
   249  126  247 1    
@<TRIPOS>SUBSTRUCTURE
     1 UNK         1 GROUP             0       ****    0 ROOT    
