@<TRIPOS>MOLECULE
3R540
247   249    1
SMALL
USER_CHARGES


@<TRIPOS>ATOM
      1 CA          2.5868  -13.8577  -42.1069 C.3       0 UNK        -0.1800 
      2 C           2.7081  -13.8737  -43.6228 C.2       0 UNK         0.5000 
      3 O           2.3532  -12.8968  -44.2825 O.2       0 UNK        -0.5000 
      4 N           3.2290  -14.9713  -44.1829 N.am      1 UNK        -0.5000 
      5 CA          3.5584  -15.1010  -45.6106 C.3       1 UNK         0.1400 
      6 C6          3.5236  -16.5748  -46.0790 C.3       23 UNK        -0.0398 
      7 S7          1.7995  -17.1247  -46.3107 S.3       23 UNK        -0.2404 
      8 C8          1.7979  -17.4950  -48.0980 C.3       23 UNK        -0.0205 
      9 C9          0.4239  -17.6307  -48.7544 C.ar      23 UNK        -0.0193 
     10 C10         0.3685  -17.6356  -50.1513 C.ar      23 UNK        -0.1150 
     11 C11        -0.8513  -17.7330  -50.8243 C.ar      23 UNK        -0.0193 
     12 C12        -2.0341  -17.8188  -50.0859 C.ar      23 UNK        -0.1150 
     13 C13        -2.0010  -17.8276  -48.6891 C.ar      23 UNK        -0.0193 
     14 C14        -0.7708  -17.7395  -48.0289 C.ar      23 UNK        -0.1150 
     15 C15        -3.3006  -17.8943  -47.8995 C.3       23 UNK        -0.0205 
     16 S16        -3.8399  -19.6068  -47.5995 S.3       23 UNK        -0.2404 
     17 C17        -2.6726  -20.1342  -46.3009 C.3       23 UNK        -0.0398 
     18 CA         -1.5587  -21.0749  -46.8217 C.3       11 UNK         0.1400 
     19 N          -0.3879  -21.0652  -45.9346 N.am      11 UNK        -0.5000 
     20 C           0.7428  -21.7659  -46.1128 C.2       10 UNK         0.5000 
     21 O           0.9512  -22.4948  -47.0816 O.2       10 UNK        -0.5000 
     22 CA          1.7852  -21.7054  -44.9853 C.3       10 UNK         0.1400 
     23 CB          2.6477  -20.4425  -45.0862 C.3       10 UNK        -0.1800 
     24 N           1.1417  -21.7589  -43.6744 N.am      10 UNK        -0.5000 
     25 C           0.7155  -22.8896  -43.0952 C.2       9 UNK         0.5000 
     26 O           0.9073  -24.0117  -43.5634 O.2       9 UNK        -0.5000 
     27 CA         -0.0800  -22.7416  -41.7840 C.3       9 UNK         0.1400 
     28 CB          0.8667  -22.7582  -40.5746 C.3       9 UNK        -0.1800 
     29 N          -0.8962  -21.5261  -41.7387 N.am      9 UNK        -0.5000 
     30 C          -1.9506  -21.2868  -42.5313 C.2       8 UNK         0.5000 
     31 O          -2.3589  -22.0768  -43.3817 O.2       8 UNK        -0.5000 
     32 CA         -2.6332  -19.9134  -42.3814 C.3       8 UNK         0.1400 
     33 CB         -3.7184  -19.9680  -41.2965 C.3       8 UNK        -0.1800 
     34 N          -1.7029  -18.8204  -42.0828 N.am      8 UNK        -0.5000 
     35 C          -0.6820  -18.4444  -42.8637 C.2       7 UNK         0.5000 
     36 O          -0.3950  -18.9977  -43.9267 O.2       7 UNK        -0.5000 
     37 CA          0.1692  -17.2691  -42.3602 C.3       7 UNK         0.1400 
     38 CB          1.6715  -17.5784  -42.4567 C.3       7 UNK        -0.1800 
     39 N          -0.1439  -16.0483  -43.1038 N.am      7 UNK        -0.5000 
     40 C          -1.1858  -15.2549  -42.8165 C.2       6 UNK         0.5000 
     41 O          -1.9784  -15.4929  -41.9038 O.2       6 UNK        -0.5000 
     42 CA         -1.3805  -13.9698  -43.6452 C.3       6 UNK         0.1400 
     43 CB         -1.0864  -12.7206  -42.7978 C.3       6 UNK        -0.1800 
     44 N          -0.5725  -13.9012  -44.8645 N.am      6 UNK        -0.5000 
     45 C          -0.9685  -14.3797  -46.0522 C.2       5 UNK         0.5000 
     46 O          -1.9849  -15.0582  -46.1985 O.2       5 UNK        -0.5000 
     47 CA         -0.1252  -13.9711  -47.2762 C.3       5 UNK         0.1400 
     48 CB         -0.9174  -14.0142  -48.5976 C.3       5 UNK        -0.1800 
     49 N           0.4239  -12.6291  -47.0805 N.am      5 UNK        -0.5000 
     50 C           1.5867  -12.1829  -47.5658 C.2       4 UNK         0.5000 
     51 O           2.3513  -12.8657  -48.2463 O.2       4 UNK        -0.5000 
     52 CA          1.9700  -10.7344  -47.2290 C.3       4 UNK         0.1400 
     53 CB          0.7683   -9.8317  -46.8719 C.3       4 UNK        -0.1800 
     54 N           2.9256  -10.7511  -46.1278 N.am      4 UNK        -0.5000 
     55 C           3.8313   -9.7967  -45.8836 C.2       3 UNK         0.5000 
     56 O           3.9842   -8.7981  -46.5885 O.2       3 UNK        -0.5000 
     57 CA          4.7178   -9.9899  -44.6427 C.3       3 UNK         0.1400 
     58 CB          3.9182   -9.7371  -43.3538 C.3       3 UNK        -0.1800 
     59 N           5.2954  -11.3313  -44.5991 N.am      3 UNK        -0.5000 
     60 C           6.4260  -11.6975  -45.2209 C.2       2 UNK         0.5000 
     61 O           7.1239  -10.9293  -45.8836 O.2       2 UNK        -0.5000 
     62 CA          6.8510  -13.1730  -45.0746 C.3       2 UNK         0.1400 
     63 CB          7.7672  -13.3519  -43.8543 C.3       2 UNK        -0.1800 
     64 N           5.6953  -14.0604  -44.9406 N.am      2 UNK        -0.5000 
     65 C           4.8957  -14.4098  -45.9591 C.2       1 UNK         0.5000 
     66 O           5.1648  -14.1729  -47.1363 O.2       1 UNK        -0.5000 
     67 C          -2.1091  -22.4973  -47.0600 C.2       11 UNK         0.5000 
     68 O          -2.4717  -22.8325  -48.1879 O.2       11 UNK        -0.5000 
     69 N          -2.1173  -23.3256  -46.0066 N.am      12 UNK        -0.5000 
     70 CA         -2.5024  -24.7375  -46.0371 C.3       12 UNK         0.1400 
     71 CB         -2.4573  -25.3003  -44.6093 C.3       12 UNK        -0.1800 
     72 C          -1.6549  -25.6070  -46.9880 C.2       12 UNK         0.5000 
     73 O          -2.1676  -26.6017  -47.5007 O.2       12 UNK        -0.5000 
     74 N          -0.3934  -25.2189  -47.2151 N.am      13 UNK        -0.5000 
     75 CA          0.5350  -25.9031  -48.1110 C.3       13 UNK         0.1400 
     76 CB          1.9282  -25.9366  -47.4617 C.3       13 UNK        -0.1800 
     77 C           0.5918  -25.2205  -49.4873 C.2       13 UNK         0.5000 
     78 O           0.4803  -25.9015  -50.5068 O.2       13 UNK        -0.5000 
     79 N           0.7792  -23.8941  -49.4951 N.am      14 UNK        -0.5000 
     80 CA          1.0152  -23.0926  -50.6969 C.3       14 UNK         0.1400 
     81 CB          1.5782  -21.7230  -50.2806 C.3       14 UNK        -0.1800 
     82 C          -0.2377  -22.9029  -51.5668 C.2       14 UNK         0.5000 
     83 O          -0.1344  -22.9184  -52.7938 O.2       14 UNK        -0.5000 
     84 N          -1.3857  -22.7106  -50.9106 N.am      15 UNK        -0.5000 
     85 CA         -2.6481  -22.3004  -51.5223 C.3       15 UNK         0.1400 
     86 CB         -3.0033  -20.9052  -50.9724 C.3       15 UNK        -0.1800 
     87 C          -3.7815  -23.3085  -51.2749 C.2       15 UNK         0.5000 
     88 O          -4.9249  -23.0223  -51.6345 O.2       15 UNK        -0.5000 
     89 N          -3.4639  -24.4400  -50.6270 N.am      16 UNK        -0.5000 
     90 CA         -4.3880  -25.4891  -50.1827 C.3       16 UNK         0.1400 
     91 CB         -4.9330  -26.2707  -51.3957 C.3       16 UNK        -0.1800 
     92 C          -5.4976  -24.9501  -49.2509 C.2       16 UNK         0.5000 
     93 O          -6.6468  -25.3808  -49.3441 O.2       16 UNK        -0.5000 
     94 N          -5.1273  -23.9869  -48.3919 N.am      17 UNK        -0.5000 
     95 CA         -5.9923  -23.2201  -47.4873 C.3       17 UNK         0.1400 
     96 CB         -6.6458  -24.1281  -46.4240 C.3       17 UNK        -0.1800 
     97 C          -7.0039  -22.3442  -48.2565 C.2       17 UNK         0.5000 
     98 O          -8.1770  -22.2713  -47.8873 O.2       17 UNK        -0.5000 
     99 N          -6.5070  -21.6997  -49.3221 N.am      18 UNK        -0.5000 
    100 CA        -7.2142  -20.8072  -50.2457 C.3       18 UNK         0.1400 
    101 CB        -7.7644  -19.5644  -49.5161 C.3       18 UNK        -0.1800 
    102 C         -8.2679  -21.5198  -51.1202 C.2       18 UNK         0.5000 
    103 O         -9.2116  -20.8796  -51.5871 O.2       18 UNK        -0.5000 
    104 N         -8.0703  -22.8198  -51.3777 N.am      19 UNK        -0.5000 
    105 CA        -8.8628  -23.6152  -52.3144 C.3       19 UNK         0.1400 
    106 CB        -8.8309  -25.0912  -51.8855 C.3       19 UNK        -0.1800 
    107 C         -8.3066  -23.3983  -53.7324 C.2       19 UNK         0.5000 
    108 O         -7.4245  -24.1380  -54.1680 O.2       19 UNK        -0.5000 
    109 N         -8.7769  -22.3202  -54.3763 N.am      20 UNK        -0.5000 
    110 CA        -8.3114  -21.7282  -55.6424 C.3       20 UNK         0.1400 
    111 CB        -8.2743  -22.7560  -56.7920 C.3       20 UNK        -0.1800 
    112 C         -6.9859  -20.9424  -55.5177 C.2       20 UNK         0.5000 
    113 O         -6.5766  -20.2938  -56.4822 O.2       20 UNK        -0.5000 
    114 N         -6.3765  -20.9660  -54.3246 N.am      21 UNK        -0.5000 
    115 CA        -5.1679  -20.2536  -53.9134 C.3       21 UNK         0.1400 
    116 CB        -5.4175  -18.7294  -53.8801 C.3       21 UNK        -0.1800 
    117 C         -3.9074  -20.6704  -54.7018 C.2       21 UNK         0.5000 
    118 O         -3.8358  -21.7946  -55.2022 O.2       21 UNK        -0.5000 
    119 N         -2.9141  -19.7752  -54.7507 N.am      22 UNK        -0.5000 
    120 CA        -1.6088  -19.9886  -55.4003 C.3       22 UNK         0.1400 
    121 C         -1.6369  -19.9156  -56.9577 C.2       22 UNK         0.5000 
    122 N         -2.7521  -19.5823  -57.5964 N.am      22 UNK        -0.7600 
    123 O         -0.6246  -20.1740  -57.6032 O.2       22 UNK        -0.5000 
    124 C124       -0.5211  -19.0446  -54.8209 C.3       23 UNK        -0.0398 
    125 S125       -0.2488  -19.2877  -53.0319 S.3       23 UNK        -0.2404 
    126 C126       -0.8853  -17.7265  -52.3460 C.3       23 UNK        -0.0205 
    127 H127        3.3466  -14.4860  -41.6422 H         1 UNK         0.0600 
    128 H128        1.6079  -14.2187  -41.7957 H         1 UNK         0.0600 
    129 H129        2.7132  -12.8432  -41.7288 H         1 UNK         0.0600 
    130 H130        3.4930  -15.7518  -43.5989 H         1 UNK         0.3000 
    131 H131        2.8066  -14.5574  -46.1838 H         1 UNK         0.0600 
    132 H132        4.0656  -16.7065  -47.0172 H         1 UNK         0.0800 
    133 H133        4.0154  -17.2293  -45.3579 H         1 UNK         0.0800 
    134 H134        2.3583  -18.4162  -48.2637 H         1 UNK         0.0800 
    135 H135        2.3390  -16.6987  -48.6119 H         1 UNK         0.0800 
    136 H136        1.2824  -17.5611  -50.7241 H         1 UNK         0.1150 
    137 H137       -2.9846  -17.8823  -50.5963 H         1 UNK         0.1150 
    138 H138       -0.7584  -17.7382  -46.9492 H         1 UNK         0.1150 
    139 H139       -3.2000  -17.3650  -46.9510 H         1 UNK         0.0800 
    140 H140       -4.0866  -17.3738  -48.4484 H         1 UNK         0.0800 
    141 H141       -3.2446  -20.6090  -45.5030 H         1 UNK         0.0800 
    142 H142       -2.2346  -19.2434  -45.8512 H         1 UNK         0.0800 
    143 H143       -1.2083  -20.6977  -47.7847 H         1 UNK         0.0600 
    144 H144       -0.4410  -20.4445  -45.1312 H         1 UNK         0.3000 
    145 H145        2.4456  -22.5681  -45.0979 H         1 UNK         0.0600 
    146 H146        3.4668  -20.4657  -44.3676 H         1 UNK         0.0600 
    147 H147        3.0847  -20.3391  -46.0803 H         1 UNK         0.0600 
    148 H148        2.0586  -19.5501  -44.8893 H         1 UNK         0.0600 
    149 H149        0.8998  -20.8740  -43.2522 H         1 UNK         0.3000 
    150 H150       -0.7501  -23.6006  -41.7066 H         1 UNK         0.0600 
    151 H151        1.4744  -23.6641  -40.5673 H         1 UNK         0.0600 
    152 H152        0.3103  -22.7345  -39.6375 H         1 UNK         0.0600 
    153 H153        1.5476  -21.9061  -40.5836 H         1 UNK         0.0600 
    154 H154       -0.6300  -20.8217  -41.0667 H         1 UNK         0.3000 
    155 H155       -3.1178  -19.6790  -43.3301 H         1 UNK         0.0600 
    156 H156       -3.2942  -20.1626  -40.3107 H         1 UNK         0.0600 
    157 H157       -4.4402  -20.7588  -41.5056 H         1 UNK         0.0600 
    158 H158       -4.2723  -19.0304  -41.2450 H         1 UNK         0.0600 
    159 H159       -1.8887  -18.2908  -41.2427 H         1 UNK         0.3000 
    160 H160       -0.0511  -17.1119  -41.3019 H         1 UNK         0.0600 
    161 H161        2.0091  -17.6443  -43.4886 H         1 UNK         0.0600 
    162 H162        1.9070  -18.5285  -41.9756 H         1 UNK         0.0600 
    163 H163        2.2615  -16.8122  -41.9560 H         1 UNK         0.0600 
    164 H164        0.4194  -15.8465  -43.9167 H         1 UNK         0.3000 
    165 H165       -2.4378  -13.9336  -43.9169 H         1 UNK         0.0600 
    166 H166       -1.3490  -11.8110  -43.3381 H         1 UNK         0.0600 
    167 H167       -1.6665  -12.7241  -41.8740 H         1 UNK         0.0600 
    168 H168       -0.0344  -12.6502  -42.5245 H         1 UNK         0.0600 
    169 H169        0.2977  -13.3852  -44.8064 H         1 UNK         0.3000 
    170 H170        0.6911  -14.6890  -47.3474 H         1 UNK         0.0600 
    171 H171       -1.3290  -15.0060  -48.7819 H         1 UNK         0.0600 
    172 H172       -1.7495  -13.3097  -48.5878 H         1 UNK         0.0600 
    173 H173       -0.2803  -13.7710  -49.4478 H         1 UNK         0.0600 
    174 H174       -0.1434  -11.9996  -46.5298 H         1 UNK         0.3000 
    175 H175        2.4530  -10.3272  -48.1199 H         1 UNK         0.0600 
    176 H176        0.3097  -10.1161  -45.9240 H         1 UNK         0.0600 
    177 H177        1.0764   -8.7897  -46.7849 H         1 UNK         0.0600 
    178 H178        0.0001   -9.8724  -47.6453 H         1 UNK         0.0600 
    179 H179        2.8522  -11.5454  -45.4962 H         1 UNK         0.3000 
    180 H180        5.5227   -9.2527  -44.6847 H         1 UNK         0.0600 
    181 H181        3.0991  -10.4470  -43.2345 H         1 UNK         0.0600 
    182 H182        3.4855   -8.7358  -43.3549 H         1 UNK         0.0600 
    183 H183        4.5570   -9.8133  -42.4738 H         1 UNK         0.0600 
    184 H184        4.7679  -12.0314  -44.1013 H         1 UNK         0.3000 
    185 H185        7.4141  -13.4524  -45.9678 H         1 UNK         0.0600 
    186 H186        8.6509  -12.7175  -43.9345 H         1 UNK         0.0600 
    187 H187        7.2592  -13.0909  -42.9250 H         1 UNK         0.0600 
    188 H188        8.1145  -14.3818  -43.7700 H         1 UNK         0.0600 
    189 H189        5.4292  -14.3233  -44.0036 H         1 UNK         0.3000 
    190 H190       -1.8770  -22.9465  -45.0955 H         1 UNK         0.3000 
    191 H191       -3.5339  -24.7924  -46.3819 H         1 UNK         0.0600 
    192 H192       -1.4525  -25.2492  -44.1895 H         1 UNK         0.0600 
    193 H193       -2.7694  -26.3452  -44.5898 H         1 UNK         0.0600 
    194 H194       -3.1259  -24.7499  -43.9471 H         1 UNK         0.0600 
    195 H195       -0.0634  -24.3594  -46.7940 H         1 UNK         0.3000 
    196 H196        0.2184  -26.9371  -48.2637 H         1 UNK         0.0600 
    197 H197        2.6483  -26.4401  -48.1079 H         1 UNK         0.0600 
    198 H198        1.9062  -26.4779  -46.5157 H         1 UNK         0.0600 
    199 H199        2.3099  -24.9347  -47.2618 H         1 UNK         0.0600 
    200 H200        0.8574  -23.4023  -48.6061 H         1 UNK         0.3000 
    201 H201        1.7689  -23.6000  -51.3029 H         1 UNK         0.0600 
    202 H202        2.5042  -21.8308  -49.7156 H         1 UNK         0.0600 
    203 H203        0.8720  -21.1675  -49.6613 H         1 UNK         0.0600 
    204 H204        1.7983  -21.1081  -51.1543 H         1 UNK         0.0600 
    205 H205       -1.3885  -22.7482  -49.8968 H         1 UNK         0.3000 
    206 H206       -2.5483  -22.2297  -52.6063 H         1 UNK         0.0600 
    207 H207       -2.6384  -20.1324  -51.6447 H         1 UNK         0.0600 
    208 H208       -4.0721  -20.7408  -50.8516 H         1 UNK         0.0600 
    209 H209       -2.5522  -20.7263  -49.9972 H         1 UNK         0.0600 
    210 H210       -2.4967  -24.5641  -50.3647 H         1 UNK         0.3000 
    211 H211       -3.8036  -26.1858  -49.5818 H         1 UNK         0.0600 
    212 H212       -5.5060  -25.6307  -52.0666 H         1 UNK         0.0600 
    213 H213       -5.5836  -27.0876  -51.0815 H         1 UNK         0.0600 
    214 H214       -4.1201  -26.7103  -51.9733 H         1 UNK         0.0600 
    215 H215       -4.1584  -23.6790  -48.4250 H         1 UNK         0.3000 
    216 H216       -5.3362  -22.5263  -46.9594 H         1 UNK         0.0600 
    217 H217       -7.1708  -23.5328  -45.6762 H         1 UNK         0.0600 
    218 H218       -5.9011  -24.7234  -45.8967 H         1 UNK         0.0600 
    219 H219       -7.3731  -24.8119  -46.8621 H         1 UNK         0.0600 
    220 H220       -5.5422  -21.8805  -49.5593 H         1 UNK         0.3000 
    221 H221       -6.4579  -20.4504  -50.9442 H         1 UNK         0.0600 
    222 H222       -8.5912  -19.8155  -48.8515 H         1 UNK         0.0600 
    223 H223       -6.9885  -19.0817  -48.9215 H         1 UNK         0.0600 
    224 H224       -8.1325  -18.8245  -50.2277 H         1 UNK         0.0600 
    225 H225       -7.2365  -23.2603  -51.0100 H         1 UNK         0.3000 
    226 H226       -9.9047  -23.2881  -52.2912 H         1 UNK         0.0600 
    227 H227       -9.2453  -25.2180  -50.8852 H         1 UNK         0.0600 
    228 H228       -9.4212  -25.7067  -52.5650 H         1 UNK         0.0600 
    229 H229       -7.8182  -25.4917  -51.8763 H         1 UNK         0.0600 
    230 H230       -9.4604  -21.7595  -53.8824 H         1 UNK         0.3000 
    231 H231       -9.0668  -20.9857  -55.9038 H         1 UNK         0.0600 
    232 H232       -9.2101  -23.3109  -56.8588 H         1 UNK         0.0600 
    233 H233       -7.4622  -23.4735  -56.6738 H         1 UNK         0.0600 
    234 H234       -8.1234  -22.2580  -57.7504 H         1 UNK         0.0600 
    235 H235       -6.7558  -21.6016  -53.6388 H         1 UNK         0.3000 
    236 H236       -4.9928  -20.5740  -52.8904 H         1 UNK         0.0600 
    237 H237       -4.6179  -18.2034  -53.3577 H         1 UNK         0.0600 
    238 H238       -5.4950  -18.3088  -54.8834 H         1 UNK         0.0600 
    239 H239       -6.3423  -18.4969  -53.3515 H         1 UNK         0.0600 
    240 H240       -3.0519  -18.8712  -54.3260 H         1 UNK         0.3000 
    241 H241       -1.2988  -21.0098  -55.1685 H         1 UNK         0.0600 
    242 H242       -2.7540  -19.5446  -58.6037 H         1 UNK         0.3800 
    243 H243       -3.6019  -19.3980  -57.0871 H         1 UNK         0.3800 
    244 H244       -0.7716  -18.0020  -55.0227 H         1 UNK         0.0800 
    245 H245        0.4377  -19.2227  -55.3110 H         1 UNK         0.0800 
    246 H246       -1.9024  -17.5606  -52.7030 H         1 UNK         0.0800 
    247 H247       -0.2847  -16.8952  -52.7180 H         1 UNK         0.0800 
@<TRIPOS>BOND
     1    1    2 1    
     2    1  127 1    
     3    1  128 1    
     4    1  129 1    
     5    2    3 2    
     6    2    4 am   BACKBONE|DICT|INTERRES
     7    4    5 1    
     8    4  130 1    
     9    5    6 1    
    10    5   65 1    
    11    5  131 1    
    12    6    7 1    
    13    6  132 1    
    14    6  133 1    
    15    7    8 1    
    16    8    9 1    
    17    8  134 1    
    18    8  135 1    
    19    9   10 ar   
    20    9   14 ar   
    21   10   11 ar   
    22   10  136 1    
    23   11   12 ar   
    24   11  126 1    
    25   12   13 ar   
    26   12  137 1    
    27   13   14 ar   
    28   13   15 1    
    29   14  138 1    
    30   15   16 1    
    31   15  139 1    
    32   15  140 1    
    33   16   17 1    
    34   17   18 1    
    35   17  141 1    
    36   17  142 1    
    37   18   19 1    
    38   18   67 1    
    39   18  143 1    
    40   19   20 am   BACKBONE|DICT|INTERRES
    41   19  144 1    
    42   20   21 2    
    43   20   22 1    
    44   22   23 1    
    45   22   24 1    
    46   22  145 1    
    47   23  146 1    
    48   23  147 1    
    49   23  148 1    
    50   24   25 am   BACKBONE|DICT|INTERRES
    51   24  149 1    
    52   25   26 2    
    53   25   27 1    
    54   27   28 1    
    55   27   29 1    
    56   27  150 1    
    57   28  151 1    
    58   28  152 1    
    59   28  153 1    
    60   29   30 am   BACKBONE|DICT|INTERRES
    61   29  154 1    
    62   30   31 2    
    63   30   32 1    
    64   32   33 1    
    65   32   34 1    
    66   32  155 1    
    67   33  156 1    
    68   33  157 1    
    69   33  158 1    
    70   34   35 am   BACKBONE|DICT|INTERRES
    71   34  159 1    
    72   35   36 2    
    73   35   37 1    
    74   37   38 1    
    75   37   39 1    
    76   37  160 1    
    77   38  161 1    
    78   38  162 1    
    79   38  163 1    
    80   39   40 am   BACKBONE|DICT|INTERRES
    81   39  164 1    
    82   40   41 2    
    83   40   42 1    
    84   42   43 1    
    85   42   44 1    
    86   42  165 1    
    87   43  166 1    
    88   43  167 1    
    89   43  168 1    
    90   44   45 am   BACKBONE|DICT|INTERRES
    91   44  169 1    
    92   45   46 2    
    93   45   47 1    
    94   47   48 1    
    95   47   49 1    
    96   47  170 1    
    97   48  171 1    
    98   48  172 1    
    99   48  173 1    
   100   49   50 am   BACKBONE|DICT|INTERRES
   101   49  174 1    
   102   50   51 2    
   103   50   52 1    
   104   52   53 1    
   105   52   54 1    
   106   52  175 1    
   107   53  176 1    
   108   53  177 1    
   109   53  178 1    
   110   54   55 am   BACKBONE|DICT|INTERRES
   111   54  179 1    
   112   55   56 2    
   113   55   57 1    
   114   57   58 1    
   115   57   59 1    
   116   57  180 1    
   117   58  181 1    
   118   58  182 1    
   119   58  183 1    
   120   59   60 am   BACKBONE|DICT|INTERRES
   121   59  184 1    
   122   60   61 2    
   123   60   62 1    
   124   62   63 1    
   125   62   64 1    
   126   62  185 1    
   127   63  186 1    
   128   63  187 1    
   129   63  188 1    
   130   64   65 am   BACKBONE|DICT|INTERRES
   131   64  189 1    
   132   65   66 2    
   133   67   68 2    
   134   67   69 am   BACKBONE|DICT|INTERRES
   135   69   70 1    
   136   69  190 1    
   137   70   71 1    
   138   70   72 1    
   139   70  191 1    
   140   71  192 1    
   141   71  193 1    
   142   71  194 1    
   143   72   73 2    
   144   72   74 am   BACKBONE|DICT|INTERRES
   145   74   75 1    
   146   74  195 1    
   147   75   76 1    
   148   75   77 1    
   149   75  196 1    
   150   76  197 1    
   151   76  198 1    
   152   76  199 1    
   153   77   78 2    
   154   77   79 am   BACKBONE|DICT|INTERRES
   155   79   80 1    
   156   79  200 1    
   157   80   81 1    
   158   80   82 1    
   159   80  201 1    
   160   81  202 1    
   161   81  203 1    
   162   81  204 1    
   163   82   83 2    
   164   82   84 am   BACKBONE|DICT|INTERRES
   165   84   85 1    
   166   84  205 1    
   167   85   86 1    
   168   85   87 1    
   169   85  206 1    
   170   86  207 1    
   171   86  208 1    
   172   86  209 1    
   173   87   88 2    
   174   87   89 am   BACKBONE|DICT|INTERRES
   175   89   90 1    
   176   89  210 1    
   177   90   91 1    
   178   90   92 1    
   179   90  211 1    
   180   91  212 1    
   181   91  213 1    
   182   91  214 1    
   183   92   93 2    
   184   92   94 am   BACKBONE|DICT|INTERRES
   185   94   95 1    
   186   94  215 1    
   187   95   96 1    
   188   95   97 1    
   189   95  216 1    
   190   96  217 1    
   191   96  218 1    
   192   96  219 1    
   193   97   98 2    
   194   97   99 am   BACKBONE|DICT|INTERRES
   195   99  100 1    
   196   99  220 1    
   197  100  101 1    
   198  100  102 1    
   199  100  221 1    
   200  101  222 1    
   201  101  223 1    
   202  101  224 1    
   203  102  103 2    
   204  102  104 am   BACKBONE|DICT|INTERRES
   205  104  105 1    
   206  104  225 1    
   207  105  106 1    
   208  105  107 1    
   209  105  226 1    
   210  106  227 1    
   211  106  228 1    
   212  106  229 1    
   213  107  108 2    
   214  107  109 am   BACKBONE|DICT|INTERRES
   215  109  110 1    
   216  109  230 1    
   217  110  111 1    
   218  110  112 1    
   219  110  231 1    
   220  111  232 1    
   221  111  233 1    
   222  111  234 1    
   223  112  113 2    
   224  112  114 am   BACKBONE|DICT|INTERRES
   225  114  115 1    
   226  114  235 1    
   227  115  116 1    
   228  115  117 1    
   229  115  236 1    
   230  116  237 1    
   231  116  238 1    
   232  116  239 1    
   233  117  118 2    
   234  117  119 am   BACKBONE|DICT|INTERRES
   235  119  120 1    
   236  119  240 1    
   237  120  121 1    
   238  120  124 1    
   239  120  241 1    
   240  121  122 am   BACKBONE|DICT|INTERRES
   241  121  123 2    
   242  122  242 1    
   243  122  243 1    
   244  124  125 1    
   245  124  244 1    
   246  124  245 1    
   247  125  126 1    
   248  126  246 1    
   249  126  247 1    
@<TRIPOS>SUBSTRUCTURE
     1 UNK         1 GROUP             0       ****    0 ROOT    
