@<TRIPOS>MOLECULE
3R540
247   249    1
SMALL
USER_CHARGES


@<TRIPOS>ATOM
      1 CA         -0.8811  -17.3829  -51.7817 C.3       0 UNK        -0.1800 
      2 C          -0.0928  -16.1462  -51.3778 C.2       0 UNK         0.5000 
      3 O          -0.0208  -15.1826  -52.1412 O.2       0 UNK        -0.5000 
      4 N           0.4977  -16.1656  -50.1770 N.am      1 UNK        -0.5000 
      5 CA          1.3545  -15.1090  -49.6196 C.3       1 UNK         0.1400 
      6 C6          2.3348  -15.6630  -48.5535 C.3       23 UNK        -0.0398 
      7 S7          3.5221  -16.8557  -49.2543 S.3       23 UNK        -0.2404 
      8 C8          2.7988  -18.4182  -48.6796 C.3       23 UNK        -0.0205 
      9 C9          3.5680  -19.6163  -49.2041 C.ar      23 UNK        -0.0193 
     10 C10         3.4444  -19.9956  -50.5431 C.ar      23 UNK        -0.1150 
     11 C11         4.1159  -21.1212  -51.0283 C.ar      23 UNK        -0.0193 
     12 C12         4.9181  -21.8669  -50.1578 C.ar      23 UNK        -0.1150 
     13 C13         5.0650  -21.4866  -48.8197 C.ar      23 UNK        -0.0193 
     14 C14         4.3892  -20.3563  -48.3505 C.ar      23 UNK        -0.1150 
     15 C15         5.9690  -22.2871  -47.8890 C.3       23 UNK        -0.0205 
     16 S16         5.1079  -22.8728  -46.3933 S.3       23 UNK        -0.2404 
     17 C17         3.7515  -23.8456  -47.1269 C.3       23 UNK        -0.0398 
     18 CA          3.2607  -24.9911  -46.2075 C.3       11 UNK         0.1400 
     19 N           2.8235  -24.4830  -44.9033 N.am      11 UNK        -0.5000 
     20 C           2.8629  -25.1643  -43.7516 C.2       10 UNK         0.5000 
     21 O           3.3417  -26.2928  -43.6383 O.2       10 UNK        -0.5000 
     22 CA          2.2201  -24.4811  -42.5280 C.3       10 UNK         0.1400 
     23 CB          3.2738  -23.7127  -41.7169 C.3       10 UNK        -0.1800 
     24 N           1.1282  -23.5744  -42.8981 N.am      10 UNK        -0.5000 
     25 C          -0.0505  -23.9811  -43.3931 C.2       9 UNK         0.5000 
     26 O          -0.3474  -25.1645  -43.5529 O.2       9 UNK        -0.5000 
     27 CA         -1.0477  -22.8968  -43.8378 C.3       9 UNK         0.1400 
     28 CB         -2.0078  -22.5547  -42.6892 C.3       9 UNK        -0.1800 
     29 N          -0.4064  -21.6750  -44.3285 N.am      9 UNK        -0.5000 
     30 C           0.3758  -21.6001  -45.4136 C.2       8 UNK         0.5000 
     31 O           0.6057  -22.5621  -46.1464 O.2       8 UNK        -0.5000 
     32 CA          1.0188  -20.2383  -45.7344 C.3       8 UNK         0.1400 
     33 CB          0.0991  -19.4078  -46.6349 C.3       8 UNK        -0.1800 
     34 N           1.3492  -19.4515  -44.5486 N.am      8 UNK        -0.5000 
     35 C           2.2574  -19.8041  -43.6290 C.2       7 UNK         0.5000 
     36 O           2.8887  -20.8597  -43.6593 O.2       7 UNK        -0.5000 
     37 CA          2.4680  -18.8202  -42.4680 C.3       7 UNK         0.1400 
     38 CB          3.3243  -17.6242  -42.9134 C.3       7 UNK        -0.1800 
     39 N           1.1883  -18.3412  -41.9488 N.am      7 UNK        -0.5000 
     40 C           0.3961  -19.0499  -41.1322 C.2       6 UNK         0.5000 
     41 O           0.6969  -20.1512  -40.6710 O.2       6 UNK        -0.5000 
     42 CA         -0.9760  -18.4348  -40.7945 C.3       6 UNK         0.1400 
     43 CB         -0.8671  -17.5051  -39.5767 C.3       6 UNK        -0.1800 
     44 N          -1.5674  -17.6972  -41.9136 N.am      6 UNK        -0.5000 
     45 C          -1.9497  -18.2572  -43.0696 C.2       5 UNK         0.5000 
     46 O          -1.8526  -19.4571  -43.3115 O.2       5 UNK        -0.5000 
     47 CA         -2.4844  -17.3193  -44.1621 C.3       5 UNK         0.1400 
     48 CB         -4.0013  -17.1368  -44.0291 C.3       5 UNK        -0.1800 
     49 N          -1.8325  -16.0099  -44.1812 N.am      5 UNK        -0.5000 
     50 C          -0.5307  -15.7925  -44.4051 C.2       4 UNK         0.5000 
     51 O           0.2857  -16.7011  -44.5752 O.2       4 UNK        -0.5000 
     52 CA         -0.0818  -14.3161  -44.4342 C.3       4 UNK         0.1400 
     53 CB          1.4162  -14.1630  -44.7524 C.3       4 UNK        -0.1800 
     54 N          -0.8665  -13.5029  -45.3727 N.am      4 UNK        -0.5000 
     55 C          -2.0938  -13.0153  -45.1295 C.2       3 UNK         0.5000 
     56 O          -2.7205  -13.2777  -44.1017 O.2       3 UNK        -0.5000 
     57 CA         -2.7469  -12.0879  -46.1738 C.3       3 UNK         0.1400 
     58 CB         -3.0227  -10.7029  -45.5658 C.3       3 UNK        -0.1800 
     59 N          -1.9312  -11.9085  -47.3737 N.am      3 UNK        -0.5000 
     60 C          -2.1687  -12.4728  -48.5635 C.2       2 UNK         0.5000 
     61 O          -3.1174  -13.2242  -48.7906 O.2       2 UNK        -0.5000 
     62 CA         -1.1689  -12.1708  -49.6979 C.3       2 UNK         0.1400 
     63 CB         -0.3418  -10.8840  -49.4787 C.3       2 UNK        -0.1800 
     64 N          -0.2843  -13.3099  -49.9539 N.am      2 UNK        -0.5000 
     65 C           0.5193  -13.9273  -49.0773 C.2       1 UNK         0.5000 
     66 O           0.6057  -13.6016  -47.8923 O.2       1 UNK        -0.5000 
     67 C           2.1351  -25.7747  -46.9204 C.2       11 UNK         0.5000 
     68 O           2.3982  -26.3893  -47.9544 O.2       11 UNK        -0.5000 
     69 N           0.9024  -25.6959  -46.3910 N.am      12 UNK        -0.5000 
     70 CA         -0.3654  -26.1281  -46.9920 C.3       12 UNK         0.1400 
     71 CB         -0.4070  -27.6599  -47.1697 C.3       12 UNK        -0.1800 
     72 C          -0.7034  -25.3554  -48.2881 C.2       12 UNK         0.5000 
     73 O          -1.3920  -25.8838  -49.1624 O.2       12 UNK        -0.5000 
     74 N          -0.2043  -24.1164  -48.3879 N.am      13 UNK        -0.5000 
     75 CA         -0.3640  -23.2363  -49.5402 C.3       13 UNK         0.1400 
     76 CB          0.8496  -22.2977  -49.6221 C.3       13 UNK        -0.1800 
     77 C          -1.6656  -22.4250  -49.4690 C.2       13 UNK         0.5000 
     78 O          -2.3338  -22.2810  -50.4926 O.2       13 UNK        -0.5000 
     79 N          -1.9811  -21.9259  -48.2625 N.am      14 UNK        -0.5000 
     80 CA         -3.0472  -20.9737  -47.9146 C.3       14 UNK         0.1400 
     81 CB         -4.4399  -21.5434  -48.2491 C.3       14 UNK        -0.1800 
     82 C          -2.8396  -19.5637  -48.5160 C.2       14 UNK         0.5000 
     83 O          -1.9646  -19.3590  -49.3583 O.2       14 UNK        -0.5000 
     84 N          -3.6242  -18.5951  -48.0313 N.am      15 UNK        -0.5000 
     85 CA         -3.6050  -17.1867  -48.4286 C.3       15 UNK         0.1400 
     86 CB         -2.3182  -16.4886  -47.9302 C.3       15 UNK        -0.1800 
     87 C          -4.8847  -16.5196  -47.8859 C.2       15 UNK         0.5000 
     88 O          -5.8060  -17.2299  -47.4774 O.2       15 UNK        -0.5000 
     89 N          -4.9223  -15.1790  -47.8748 N.am      16 UNK        -0.5000 
     90 CA         -5.9987  -14.3269  -47.3505 C.3       16 UNK         0.1400 
     91 CB         -6.1368  -14.4799  -45.8214 C.3       16 UNK        -0.1800 
     92 C          -7.3293  -14.5102  -48.1060 C.2       16 UNK         0.5000 
     93 O          -8.3793  -14.7027  -47.4910 O.2       16 UNK        -0.5000 
     94 N          -7.2389  -14.4508  -49.4425 N.am      17 UNK        -0.5000 
     95 CA         -8.3305  -14.5578  -50.4211 C.3       17 UNK         0.1400 
     96 CB         -9.3711  -13.4344  -50.2259 C.3       17 UNK        -0.1800 
     97 C          -8.9794  -15.9565  -50.5134 C.2       17 UNK         0.5000 
     98 O         -10.0306  -16.0977  -51.1414 O.2       17 UNK        -0.5000 
     99 N          -8.3318  -16.9744  -49.9311 N.am      18 UNK        -0.5000 
    100 CA        -8.6634  -18.3864  -50.1142 C.3       18 UNK         0.1400 
    101 CB        -7.9356  -19.2047  -49.0347 C.3       18 UNK        -0.1800 
    102 C         -8.2556  -18.8786  -51.5163 C.2       18 UNK         0.5000 
    103 O         -7.4564  -18.2278  -52.1974 O.2       18 UNK        -0.5000 
    104 N         -8.7611  -20.0564  -51.9029 N.am      19 UNK        -0.5000 
    105 CA        -8.3709  -20.7856  -53.1134 C.3       19 UNK         0.1400 
    106 CB        -9.4762  -21.7995  -53.4598 C.3       19 UNK        -0.1800 
    107 C         -6.9874  -21.4484  -52.9321 C.2       19 UNK         0.5000 
    108 O         -6.8842  -22.6749  -52.8666 O.2       19 UNK        -0.5000 
    109 N         -5.9591  -20.6057  -52.7848 N.am      20 UNK        -0.5000 
    110 CA        -4.5799  -20.9750  -52.4882 C.3       20 UNK         0.1400 
    111 CB        -3.7767  -19.6957  -52.2063 C.3       20 UNK        -0.1800 
    112 C         -3.9216  -21.7861  -53.6146 C.2       20 UNK         0.5000 
    113 O         -4.1076  -21.4698  -54.7922 O.2       20 UNK        -0.5000 
    114 N         -3.1148  -22.7797  -53.2260 N.am      21 UNK        -0.5000 
    115 CA        -2.3328  -23.6196  -54.1367 C.3       21 UNK         0.1400 
    116 CB        -1.8193  -24.8500  -53.3741 C.3       21 UNK        -0.1800 
    117 C         -1.1626  -22.8512  -54.7787 C.2       21 UNK         0.5000 
    118 O         -0.7854  -23.1477  -55.9128 O.2       21 UNK        -0.5000 
    119 N         -0.6378  -21.8641  -54.0445 N.am      22 UNK        -0.5000 
    120 CA         0.4070  -20.9283  -54.4858 C.3       22 UNK         0.1400 
    121 C         -0.1649  -19.6049  -55.0786 C.2       22 UNK         0.5000 
    122 N         -1.4719  -19.4619  -55.2703 N.am      22 UNK        -0.7600 
    123 O          0.5928  -18.6905  -55.3893 O.2       22 UNK        -0.5000 
    124 C124        1.4288  -20.6637  -53.3499 C.3       23 UNK        -0.0398 
    125 S125        2.3515  -22.1790  -52.9047 S.3       23 UNK        -0.2404 
    126 C126        3.9996  -21.5191  -52.4941 C.3       23 UNK        -0.0205 
    127 H127       -0.4750  -18.2809  -51.3159 H         1 UNK         0.0600 
    128 H128       -0.8464  -17.5215  -52.8621 H         1 UNK         0.0600 
    129 H129       -1.9240  -17.2805  -51.4829 H         1 UNK         0.0600 
    130 H130        0.3631  -16.9727  -49.5872 H         1 UNK         0.3000 
    131 H131        1.9609  -14.7008  -50.4312 H         1 UNK         0.0600 
    132 H132        1.7911  -16.1167  -47.7226 H         1 UNK         0.0800 
    133 H133        2.9243  -14.8526  -48.1207 H         1 UNK         0.0800 
    134 H134        2.7864  -18.4210  -47.5888 H         1 UNK         0.0800 
    135 H135        1.7622  -18.4906  -49.0094 H         1 UNK         0.0800 
    136 H136        2.8238  -19.4101  -51.2054 H         1 UNK         0.1150 
    137 H137        5.4416  -22.7376  -50.5272 H         1 UNK         0.1150 
    138 H138        4.4970  -20.0612  -47.3161 H         1 UNK         0.1150 
    139 H139        6.3987  -23.1460  -48.4069 H         1 UNK         0.0800 
    140 H140        6.8083  -21.6587  -47.5883 H         1 UNK         0.0800 
    141 H141        2.9373  -23.1593  -47.3655 H         1 UNK         0.0800 
    142 H142        4.0960  -24.2514  -48.0801 H         1 UNK         0.0800 
    143 H143        4.0913  -25.6844  -46.0592 H         1 UNK         0.0600 
    144 H144        2.4246  -23.5540  -44.9024 H         1 UNK         0.3000 
    145 H145        1.8066  -25.2647  -41.8893 H         1 UNK         0.0600 
    146 H146        4.0467  -24.3879  -41.3478 H         1 UNK         0.0600 
    147 H147        2.8285  -23.2226  -40.8509 H         1 UNK         0.0600 
    148 H148        3.7692  -22.9500  -42.3178 H         1 UNK         0.0600 
    149 H149        1.3140  -22.5829  -42.8260 H         1 UNK         0.3000 
    150 H150       -1.6362  -23.3144  -44.6575 H         1 UNK         0.0600 
    151 H151       -2.4581  -23.4553  -42.2695 H         1 UNK         0.0600 
    152 H152       -2.8239  -21.9206  -43.0351 H         1 UNK         0.0600 
    153 H153       -1.4955  -22.0330  -41.8796 H         1 UNK         0.0600 
    154 H154       -0.6317  -20.8199  -43.8268 H         1 UNK         0.3000 
    155 H155        1.9486  -20.4311  -46.2735 H         1 UNK         0.0600 
    156 H156        0.0012  -19.8715  -47.6153 H         1 UNK         0.0600 
    157 H157        0.4869  -18.4016  -46.7904 H         1 UNK         0.0600 
    158 H158       -0.8980  -19.3120  -46.2070 H         1 UNK         0.0600 
    159 H159        0.8947  -18.5467  -44.4628 H         1 UNK         0.3000 
    160 H160        3.0032  -19.3426  -41.6720 H         1 UNK         0.0600 
    161 H161        2.8523  -17.0627  -43.7201 H         1 UNK         0.0600 
    162 H162        4.2982  -17.9574  -43.2741 H         1 UNK         0.0600 
    163 H163        3.5017  -16.9369  -42.0862 H         1 UNK         0.0600 
    164 H164        0.8439  -17.4689  -42.3233 H         1 UNK         0.3000 
    165 H165       -1.6507  -19.2549  -40.5395 H         1 UNK         0.0600 
    166 H166       -1.8460  -17.1288  -39.2789 H         1 UNK         0.0600 
    167 H167       -0.4487  -18.0333  -38.7188 H         1 UNK         0.0600 
    168 H168       -0.2243  -16.6476  -39.7797 H         1 UNK         0.0600 
    169 H169       -1.6788  -16.7005  -41.8002 H         1 UNK         0.3000 
    170 H170       -2.2892  -17.7998  -45.1215 H         1 UNK         0.0600 
    171 H171       -4.5125  -18.1001  -44.0024 H         1 UNK         0.0600 
    172 H172       -4.2660  -16.5957  -43.1200 H         1 UNK         0.0600 
    173 H173       -4.4005  -16.5854  -44.8781 H         1 UNK         0.0600 
    174 H174       -2.4215  -15.1941  -44.0416 H         1 UNK         0.3000 
    175 H175       -0.2360  -13.9219  -43.4277 H         1 UNK         0.0600 
    176 H176        1.6744  -14.6129  -45.7105 H         1 UNK         0.0600 
    177 H177        1.7098  -13.1138  -44.7841 H         1 UNK         0.0600 
    178 H178        2.0276  -14.6479  -43.9906 H         1 UNK         0.0600 
    179 H179       -0.4311  -13.3293  -46.2748 H         1 UNK         0.3000 
    180 H180       -3.7071  -12.5341  -46.4340 H         1 UNK         0.0600 
    181 H181       -3.5279  -10.0534  -46.2809 H         1 UNK         0.0600 
    182 H182       -2.1013  -10.2083  -45.2561 H         1 UNK         0.0600 
    183 H183       -3.6668  -10.7782  -44.6886 H         1 UNK         0.0600 
    184 H184       -1.1044  -11.3370  -47.2736 H         1 UNK         0.3000 
    185 H185       -1.7648  -12.0295  -50.6007 H         1 UNK         0.0600 
    186 H186        0.2563  -10.6552  -50.3608 H         1 UNK         0.0600 
    187 H187       -0.9906  -10.0252  -49.3013 H         1 UNK         0.0600 
    188 H188        0.3425  -10.9654  -48.6336 H         1 UNK         0.0600 
    189 H189       -0.3204  -13.7008  -50.8911 H         1 UNK         0.3000 
    190 H190        0.8074  -25.1920  -45.5196 H         1 UNK         0.3000 
    191 H191       -1.1426  -25.8614  -46.2746 H         1 UNK         0.0600 
    192 H192       -1.4046  -27.9917  -47.4595 H         1 UNK         0.0600 
    193 H193       -0.1537  -28.1708  -46.2408 H         1 UNK         0.0600 
    194 H194        0.2849  -27.9998  -47.9405 H         1 UNK         0.0600 
    195 H195        0.2999  -23.7327  -47.5936 H         1 UNK         0.3000 
    196 H196       -0.3872  -23.8344  -50.4526 H         1 UNK         0.0600 
    197 H197        0.7243  -21.5663  -50.4201 H         1 UNK         0.0600 
    198 H198        1.7635  -22.8544  -49.8299 H         1 UNK         0.0600 
    199 H199        1.0051  -21.7419  -48.6985 H         1 UNK         0.0600 
    200 H200       -1.3393  -22.1401  -47.5133 H         1 UNK         0.3000 
    201 H201       -2.9889  -20.8584  -46.8311 H         1 UNK         0.0600 
    202 H202       -4.6112  -21.5984  -49.3223 H         1 UNK         0.0600 
    203 H203       -5.2319  -20.9231  -47.8285 H         1 UNK         0.0600 
    204 H204       -4.5641  -22.5456  -47.8391 H         1 UNK         0.0600 
    205 H205       -4.3721  -18.8167  -47.3851 H         1 UNK         0.3000 
    206 H206       -3.6405  -17.1418  -49.5188 H         1 UNK         0.0600 
    207 H207       -1.4347  -17.1170  -48.0295 H         1 UNK         0.0600 
    208 H208       -2.1204  -15.5883  -48.5084 H         1 UNK         0.0600 
    209 H209       -2.3948  -16.1932  -46.8856 H         1 UNK         0.0600 
    210 H210       -4.1338  -14.6598  -48.2579 H         1 UNK         0.3000 
    211 H211       -5.6921  -13.2982  -47.5436 H         1 UNK         0.0600 
    212 H212       -6.4935  -15.4715  -45.5421 H         1 UNK         0.0600 
    213 H213       -6.8466  -13.7554  -45.4208 H         1 UNK         0.0600 
    214 H214       -5.1851  -14.3090  -45.3190 H         1 UNK         0.0600 
    215 H215       -6.3196  -14.3100  -49.8386 H         1 UNK         0.3000 
    216 H216       -7.8639  -14.3944  -51.3935 H         1 UNK         0.0600 
    217 H217       -8.8925  -12.4563  -50.1778 H         1 UNK         0.0600 
    218 H218       -9.9513  -13.5707  -49.3131 H         1 UNK         0.0600 
    219 H219      -10.0772  -13.4065  -51.0566 H         1 UNK         0.0600 
    220 H220       -7.4803  -16.7750  -49.4269 H         1 UNK         0.3000 
    221 H221       -9.7411  -18.5153  -49.9941 H         1 UNK         0.0600 
    222 H222       -8.2209  -20.2565  -49.0752 H         1 UNK         0.0600 
    223 H223       -6.8524  -19.1559  -49.1559 H         1 UNK         0.0600 
    224 H224       -8.1763  -18.8432  -48.0346 H         1 UNK         0.0600 
    225 H225       -9.3849  -20.5452  -51.2769 H         1 UNK         0.3000 
    226 H226       -8.2933  -20.0816  -53.9448 H         1 UNK         0.0600 
    227 H227      -10.4276  -21.2985  -53.6394 H         1 UNK         0.0600 
    228 H228       -9.2267  -22.3543  -54.3653 H         1 UNK         0.0600 
    229 H229       -9.6254  -22.5254  -52.6595 H         1 UNK         0.0600 
    230 H230       -6.1665  -19.6130  -52.8128 H         1 UNK         0.3000 
    231 H231       -4.5988  -21.5870  -51.5868 H         1 UNK         0.0600 
    232 H232       -2.7397  -19.9299  -51.9622 H         1 UNK         0.0600 
    233 H233       -4.1911  -19.1479  -51.3599 H         1 UNK         0.0600 
    234 H234       -3.7668  -19.0267  -53.0675 H         1 UNK         0.0600 
    235 H235       -2.9538  -22.9037  -52.2297 H         1 UNK         0.3000 
    236 H236       -2.9899  -23.9620  -54.9389 H         1 UNK         0.0600 
    237 H237       -1.1464  -24.5695  -52.5639 H         1 UNK         0.0600 
    238 H238       -2.6424  -25.4210  -52.9441 H         1 UNK         0.0600 
    239 H239       -1.2708  -25.5190  -54.0383 H         1 UNK         0.0600 
    240 H240       -1.0247  -21.6972  -53.1275 H         1 UNK         0.3000 
    241 H241        0.9582  -21.3833  -55.3108 H         1 UNK         0.0600 
    242 H242       -1.8168  -18.6023  -55.6669 H         1 UNK         0.3800 
    243 H243       -2.1143  -20.2162  -55.0791 H         1 UNK         0.3800 
    244 H244        0.9245  -20.2764  -52.4639 H         1 UNK         0.0800 
    245 H245        2.1443  -19.8984  -53.6538 H         1 UNK         0.0800 
    246 H246        4.7377  -22.2865  -52.7320 H         1 UNK         0.0800 
    247 H247        4.2438  -20.6674  -53.1299 H         1 UNK         0.0800 
@<TRIPOS>BOND
     1    1    2 1    
     2    1  127 1    
     3    1  128 1    
     4    1  129 1    
     5    2    3 2    
     6    2    4 am   BACKBONE|DICT|INTERRES
     7    4    5 1    
     8    4  130 1    
     9    5    6 1    
    10    5   65 1    
    11    5  131 1    
    12    6    7 1    
    13    6  132 1    
    14    6  133 1    
    15    7    8 1    
    16    8    9 1    
    17    8  134 1    
    18    8  135 1    
    19    9   10 ar   
    20    9   14 ar   
    21   10   11 ar   
    22   10  136 1    
    23   11   12 ar   
    24   11  126 1    
    25   12   13 ar   
    26   12  137 1    
    27   13   14 ar   
    28   13   15 1    
    29   14  138 1    
    30   15   16 1    
    31   15  139 1    
    32   15  140 1    
    33   16   17 1    
    34   17   18 1    
    35   17  141 1    
    36   17  142 1    
    37   18   19 1    
    38   18   67 1    
    39   18  143 1    
    40   19   20 am   BACKBONE|DICT|INTERRES
    41   19  144 1    
    42   20   21 2    
    43   20   22 1    
    44   22   23 1    
    45   22   24 1    
    46   22  145 1    
    47   23  146 1    
    48   23  147 1    
    49   23  148 1    
    50   24   25 am   BACKBONE|DICT|INTERRES
    51   24  149 1    
    52   25   26 2    
    53   25   27 1    
    54   27   28 1    
    55   27   29 1    
    56   27  150 1    
    57   28  151 1    
    58   28  152 1    
    59   28  153 1    
    60   29   30 am   BACKBONE|DICT|INTERRES
    61   29  154 1    
    62   30   31 2    
    63   30   32 1    
    64   32   33 1    
    65   32   34 1    
    66   32  155 1    
    67   33  156 1    
    68   33  157 1    
    69   33  158 1    
    70   34   35 am   BACKBONE|DICT|INTERRES
    71   34  159 1    
    72   35   36 2    
    73   35   37 1    
    74   37   38 1    
    75   37   39 1    
    76   37  160 1    
    77   38  161 1    
    78   38  162 1    
    79   38  163 1    
    80   39   40 am   BACKBONE|DICT|INTERRES
    81   39  164 1    
    82   40   41 2    
    83   40   42 1    
    84   42   43 1    
    85   42   44 1    
    86   42  165 1    
    87   43  166 1    
    88   43  167 1    
    89   43  168 1    
    90   44   45 am   BACKBONE|DICT|INTERRES
    91   44  169 1    
    92   45   46 2    
    93   45   47 1    
    94   47   48 1    
    95   47   49 1    
    96   47  170 1    
    97   48  171 1    
    98   48  172 1    
    99   48  173 1    
   100   49   50 am   BACKBONE|DICT|INTERRES
   101   49  174 1    
   102   50   51 2    
   103   50   52 1    
   104   52   53 1    
   105   52   54 1    
   106   52  175 1    
   107   53  176 1    
   108   53  177 1    
   109   53  178 1    
   110   54   55 am   BACKBONE|DICT|INTERRES
   111   54  179 1    
   112   55   56 2    
   113   55   57 1    
   114   57   58 1    
   115   57   59 1    
   116   57  180 1    
   117   58  181 1    
   118   58  182 1    
   119   58  183 1    
   120   59   60 am   BACKBONE|DICT|INTERRES
   121   59  184 1    
   122   60   61 2    
   123   60   62 1    
   124   62   63 1    
   125   62   64 1    
   126   62  185 1    
   127   63  186 1    
   128   63  187 1    
   129   63  188 1    
   130   64   65 am   BACKBONE|DICT|INTERRES
   131   64  189 1    
   132   65   66 2    
   133   67   68 2    
   134   67   69 am   BACKBONE|DICT|INTERRES
   135   69   70 1    
   136   69  190 1    
   137   70   71 1    
   138   70   72 1    
   139   70  191 1    
   140   71  192 1    
   141   71  193 1    
   142   71  194 1    
   143   72   73 2    
   144   72   74 am   BACKBONE|DICT|INTERRES
   145   74   75 1    
   146   74  195 1    
   147   75   76 1    
   148   75   77 1    
   149   75  196 1    
   150   76  197 1    
   151   76  198 1    
   152   76  199 1    
   153   77   78 2    
   154   77   79 am   BACKBONE|DICT|INTERRES
   155   79   80 1    
   156   79  200 1    
   157   80   81 1    
   158   80   82 1    
   159   80  201 1    
   160   81  202 1    
   161   81  203 1    
   162   81  204 1    
   163   82   83 2    
   164   82   84 am   BACKBONE|DICT|INTERRES
   165   84   85 1    
   166   84  205 1    
   167   85   86 1    
   168   85   87 1    
   169   85  206 1    
   170   86  207 1    
   171   86  208 1    
   172   86  209 1    
   173   87   88 2    
   174   87   89 am   BACKBONE|DICT|INTERRES
   175   89   90 1    
   176   89  210 1    
   177   90   91 1    
   178   90   92 1    
   179   90  211 1    
   180   91  212 1    
   181   91  213 1    
   182   91  214 1    
   183   92   93 2    
   184   92   94 am   BACKBONE|DICT|INTERRES
   185   94   95 1    
   186   94  215 1    
   187   95   96 1    
   188   95   97 1    
   189   95  216 1    
   190   96  217 1    
   191   96  218 1    
   192   96  219 1    
   193   97   98 2    
   194   97   99 am   BACKBONE|DICT|INTERRES
   195   99  100 1    
   196   99  220 1    
   197  100  101 1    
   198  100  102 1    
   199  100  221 1    
   200  101  222 1    
   201  101  223 1    
   202  101  224 1    
   203  102  103 2    
   204  102  104 am   BACKBONE|DICT|INTERRES
   205  104  105 1    
   206  104  225 1    
   207  105  106 1    
   208  105  107 1    
   209  105  226 1    
   210  106  227 1    
   211  106  228 1    
   212  106  229 1    
   213  107  108 2    
   214  107  109 am   BACKBONE|DICT|INTERRES
   215  109  110 1    
   216  109  230 1    
   217  110  111 1    
   218  110  112 1    
   219  110  231 1    
   220  111  232 1    
   221  111  233 1    
   222  111  234 1    
   223  112  113 2    
   224  112  114 am   BACKBONE|DICT|INTERRES
   225  114  115 1    
   226  114  235 1    
   227  115  116 1    
   228  115  117 1    
   229  115  236 1    
   230  116  237 1    
   231  116  238 1    
   232  116  239 1    
   233  117  118 2    
   234  117  119 am   BACKBONE|DICT|INTERRES
   235  119  120 1    
   236  119  240 1    
   237  120  121 1    
   238  120  124 1    
   239  120  241 1    
   240  121  122 am   BACKBONE|DICT|INTERRES
   241  121  123 2    
   242  122  242 1    
   243  122  243 1    
   244  124  125 1    
   245  124  244 1    
   246  124  245 1    
   247  125  126 1    
   248  126  246 1    
   249  126  247 1    
@<TRIPOS>SUBSTRUCTURE
     1 UNK         1 GROUP             0       ****    0 ROOT    
