@<TRIPOS>MOLECULE
3R540
247   249    1
SMALL
USER_CHARGES


@<TRIPOS>ATOM
      1 CA          4.4496  -16.9939  -47.2764 C.3       0 UNK        -0.1800 
      2 C           3.5617  -15.7639  -47.1653 C.2       0 UNK         0.5000 
      3 O           2.9694  -15.5275  -46.1145 O.2       0 UNK        -0.5000 
      4 N           3.4637  -14.9736  -48.2408 N.am      1 UNK        -0.5000 
      5 CA          2.6097  -13.7819  -48.3459 C.3       1 UNK         0.1400 
      6 C6          2.1250  -13.5362  -49.8033 C.3       23 UNK        -0.0398 
      7 S7          1.4518  -14.9916  -50.6868 S.3       23 UNK        -0.2404 
      8 C8          0.3504  -15.7776  -49.4667 C.3       23 UNK        -0.0205 
      9 C9         -0.0267  -17.1846  -49.8972 C.ar      23 UNK        -0.0193 
     10 C10        -1.3344  -17.4896  -50.2819 C.ar      23 UNK        -0.1150 
     11 C11        -1.6845  -18.7969  -50.6403 C.ar      23 UNK        -0.0193 
     12 C12        -0.7036  -19.7941  -50.6235 C.ar      23 UNK        -0.1150 
     13 C13         0.6121  -19.5021  -50.2494 C.ar      23 UNK        -0.0193 
     14 C14         0.9420  -18.1910  -49.8928 C.ar      23 UNK        -0.1150 
     15 C15         1.6621  -20.6111  -50.2683 C.3       23 UNK        -0.0205 
     16 S16         2.8950  -20.5507  -48.9162 S.3       23 UNK        -0.2404 
     17 C17         1.8744  -20.3757  -47.4125 C.3       23 UNK        -0.0398 
     18 CA          1.4064  -21.7163  -46.8011 C.3       11 UNK         0.1400 
     19 N           1.0552  -21.5708  -45.3876 N.am      11 UNK        -0.5000 
     20 C           0.7107  -22.5755  -44.5698 C.2       10 UNK         0.5000 
     21 O           0.7284  -23.7633  -44.8947 O.2       10 UNK        -0.5000 
     22 CA          0.2094  -22.1782  -43.1698 C.3       10 UNK         0.1400 
     23 CB          1.3887  -21.9081  -42.2239 C.3       10 UNK        -0.1800 
     24 N          -0.6772  -21.0123  -43.2034 N.am      10 UNK        -0.5000 
     25 C          -1.8712  -20.9886  -43.8148 C.2       9 UNK         0.5000 
     26 O          -2.3726  -21.9677  -44.3662 O.2       9 UNK        -0.5000 
     27 CA         -2.6106  -19.6388  -43.8610 C.3       9 UNK         0.1400 
     28 CB         -3.3111  -19.3519  -42.5253 C.3       9 UNK        -0.1800 
     29 N          -1.7293  -18.5234  -44.2077 N.am      9 UNK        -0.5000 
     30 C          -1.0830  -18.3993  -45.3760 C.2       8 UNK         0.5000 
     31 O          -1.1961  -19.1950  -46.3057 O.2       8 UNK        -0.5000 
     32 CA         -0.0998  -17.2241  -45.5077 C.3       8 UNK         0.1400 
     33 CB         -0.8270  -15.9292  -45.8987 C.3       8 UNK        -0.1800 
     34 N           0.6639  -17.0135  -44.2794 N.am      8 UNK        -0.5000 
     35 C           1.5752  -17.8723  -43.8018 C.2       7 UNK         0.5000 
     36 O           1.8815  -18.9274  -44.3573 O.2       7 UNK        -0.5000 
     37 CA          2.1999  -17.5209  -42.4414 C.3       7 UNK         0.1400 
     38 CB          3.3073  -16.4690  -42.6025 C.3       7 UNK        -0.1800 
     39 N           1.1944  -17.0462  -41.4886 N.am      7 UNK        -0.5000 
     40 C           0.2390  -17.8281  -40.9605 C.2       6 UNK         0.5000 
     41 O           0.1399  -19.0316  -41.1963 O.2       6 UNK        -0.5000 
     42 CA         -0.8083  -17.1580  -40.0486 C.3       6 UNK         0.1400 
     43 CB         -0.3369  -17.1774  -38.5871 C.3       6 UNK        -0.1800 
     44 N          -1.1198  -15.7819  -40.4312 N.am      6 UNK        -0.5000 
     45 C          -1.6068  -15.3962  -41.6190 C.2       5 UNK         0.5000 
     46 O          -1.9370  -16.1820  -42.5067 O.2       5 UNK        -0.5000 
     47 CA         -1.6911  -13.8784  -41.8798 C.3       5 UNK         0.1400 
     48 CB         -3.1340  -13.3843  -41.6999 C.3       5 UNK        -0.1800 
     49 N          -0.7975  -13.0677  -41.0415 N.am      5 UNK        -0.5000 
     50 C           0.5389  -13.1669  -41.0122 C.2       4 UNK         0.5000 
     51 O           1.1758  -14.0025  -41.6574 O.2       4 UNK        -0.5000 
     52 CA          1.2709  -12.2293  -40.0354 C.3       4 UNK         0.1400 
     53 CB          1.3928  -12.8954  -38.6556 C.3       4 UNK        -0.1800 
     54 N           2.6096  -11.8831  -40.5104 N.am      4 UNK        -0.5000 
     55 C           2.8666  -11.0912  -41.5589 C.2       3 UNK         0.5000 
     56 O           1.9890  -10.4998  -42.1933 O.2       3 UNK        -0.5000 
     57 CA          4.3471  -10.8847  -41.9518 C.3       3 UNK         0.1400 
     58 CB          5.3354  -11.8531  -41.2600 C.3       3 UNK        -0.1800 
     59 N           4.5277  -10.8984  -43.4076 N.am      3 UNK        -0.5000 
     60 C           4.2883  -11.9257  -44.2340 C.2       2 UNK         0.5000 
     61 O           3.9506  -13.0521  -43.8636 O.2       2 UNK        -0.5000 
     62 CA          4.4797  -11.6454  -45.7309 C.3       2 UNK         0.1400 
     63 CB          5.9717  -11.6439  -46.1111 C.3       2 UNK        -0.1800 
     64 N           3.7792  -12.6699  -46.4964 N.am      2 UNK        -0.5000 
     65 C           3.3083  -12.5417  -47.7400 C.2       1 UNK         0.5000 
     66 O           3.4275  -11.5084  -48.4017 O.2       1 UNK        -0.5000 
     67 C           0.2438  -22.3318  -47.6039 C.2       11 UNK         0.5000 
     68 O           0.4496  -23.3299  -48.2913 O.2       11 UNK        -0.5000 
     69 N          -0.9608  -21.7600  -47.4680 N.am      12 UNK        -0.5000 
     70 CA         -2.1843  -22.2249  -48.1197 C.3       12 UNK         0.1400 
     71 CB         -3.3253  -21.2402  -47.8328 C.3       12 UNK        -0.1800 
     72 C          -2.5829  -23.6529  -47.7125 C.2       12 UNK         0.5000 
     73 O          -3.0170  -24.4199  -48.5702 O.2       12 UNK        -0.5000 
     74 N          -2.4004  -24.0032  -46.4327 N.am      13 UNK        -0.5000 
     75 CA         -2.6197  -25.3527  -45.9121 C.3       13 UNK         0.1400 
     76 CB         -2.5227  -25.3384  -44.3791 C.3       13 UNK        -0.1800 
     77 C          -1.6501  -26.3864  -46.5158 C.2       13 UNK         0.5000 
     78 O          -2.0793  -27.4873  -46.8624 O.2       13 UNK        -0.5000 
     79 N          -0.3719  -26.0082  -46.6538 N.am      14 UNK        -0.5000 
     80 CA          0.6743  -26.8350  -47.2559 C.3       14 UNK         0.1400 
     81 CB          2.0507  -26.2523  -46.8991 C.3       14 UNK        -0.1800 
     82 C           0.5190  -26.9772  -48.7821 C.2       14 UNK         0.5000 
     83 O           0.6721  -28.0794  -49.3097 O.2       14 UNK        -0.5000 
     84 N           0.2196  -25.8629  -49.4616 N.am      15 UNK        -0.5000 
     85 CA          0.0826  -25.7759  -50.9172 C.3       15 UNK         0.1400 
     86 CB          0.2650  -24.3100  -51.3419 C.3       15 UNK        -0.1800 
     87 C          -1.2521  -26.3235  -51.4580 C.2       15 UNK         0.5000 
     88 O          -1.3528  -26.5478  -52.6648 O.2       15 UNK        -0.5000 
     89 N          -2.2421  -26.5121  -50.5724 N.am      16 UNK        -0.5000 
     90 CA         -3.6392  -26.8547  -50.8575 C.3       16 UNK         0.1400 
     91 CB         -3.7630  -28.2375  -51.5320 C.3       16 UNK        -0.1800 
     92 C          -4.3313  -25.7178  -51.6361 C.2       16 UNK         0.5000 
     93 O          -4.8054  -25.9154  -52.7566 O.2       16 UNK        -0.5000 
     94 N          -4.3392  -24.5356  -51.0067 N.am      17 UNK        -0.5000 
     95 CA         -4.7928  -23.2427  -51.5163 C.3       17 UNK         0.1400 
     96 CB         -6.3070  -23.2576  -51.8292 C.3       17 UNK        -0.1800 
     97 C          -3.8934  -22.7533  -52.6692 C.2       17 UNK         0.5000 
     98 O          -2.6732  -22.7197  -52.5031 O.2       17 UNK        -0.5000 
     99 N          -4.4986  -22.3531  -53.7901 N.am      18 UNK        -0.5000 
    100 CA        -3.8549  -21.8437  -54.9950 C.3       18 UNK         0.1400 
    101 CB        -3.3612  -20.4019  -54.7596 C.3       18 UNK        -0.1800 
    102 C         -4.8790  -21.9029  -56.1387 C.2       18 UNK         0.5000 
    103 O         -6.0543  -22.1895  -55.8918 O.2       18 UNK        -0.5000 
    104 N         -4.4403  -21.5854  -57.3642 N.am      19 UNK        -0.5000 
    105 CA        -5.2836  -21.5277  -58.5669 C.3       19 UNK         0.1400 
    106 CB        -4.3930  -21.2789  -59.7936 C.3       19 UNK        -0.1800 
    107 C         -6.4069  -20.4706  -58.4921 C.2       19 UNK         0.5000 
    108 O         -7.4605  -20.6557  -59.1014 O.2       19 UNK        -0.5000 
    109 N         -6.1733  -19.4053  -57.7139 N.am      20 UNK        -0.5000 
    110 CA        -7.1387  -18.3506  -57.3931 C.3       20 UNK         0.1400 
    111 CB        -6.3708  -17.0253  -57.2447 C.3       20 UNK        -0.1800 
    112 C         -7.9614  -18.6632  -56.1217 C.2       20 UNK         0.5000 
    113 O         -8.5916  -17.7576  -55.5721 O.2       20 UNK        -0.5000 
    114 N         -7.8969  -19.9129  -55.6317 N.am      21 UNK        -0.5000 
    115 CA        -8.5302  -20.4390  -54.4130 C.3       21 UNK         0.1400 
    116 CB       -10.0672  -20.4144  -54.5405 C.3       21 UNK        -0.1800 
    117 C         -8.0348  -19.7651  -53.1143 C.2       21 UNK         0.5000 
    118 O         -8.6990  -19.8608  -52.0817 O.2       21 UNK        -0.5000 
    119 N         -6.8767  -19.0946  -53.1929 N.am      22 UNK        -0.5000 
    120 CA        -6.3034  -18.2291  -52.1513 C.3       22 UNK         0.1400 
    121 C         -7.1374  -16.9379  -51.8670 C.2       22 UNK         0.5000 
    122 N         -8.0027  -16.4999  -52.7766 N.am      22 UNK        -0.7600 
    123 O         -6.9890  -16.3048  -50.8259 O.2       22 UNK        -0.5000 
    124 C124       -5.9022  -19.0305  -50.8781 C.3       23 UNK        -0.0398 
    125 S125       -4.4027  -18.3856  -50.0637 S.3       23 UNK        -0.2404 
    126 C126       -3.1001  -19.1406  -51.0938 C.3       23 UNK        -0.0205 
    127 H127        3.8918  -17.8833  -46.9851 H         1 UNK         0.0600 
    128 H128        5.3087  -16.8971  -46.6127 H         1 UNK         0.0600 
    129 H129        4.8144  -17.1405  -48.2933 H         1 UNK         0.0600 
    130 H130        3.9914  -15.2000  -49.0716 H         1 UNK         0.3000 
    131 H131        1.7193  -13.9331  -47.7332 H         1 UNK         0.0600 
    132 H132        1.3622  -12.7559  -49.8144 H         1 UNK         0.0800 
    133 H133        2.9473  -13.1590  -50.4140 H         1 UNK         0.0800 
    134 H134       -0.5358  -15.1571  -49.3257 H         1 UNK         0.0800 
    135 H135        0.8350  -15.8552  -48.4953 H         1 UNK         0.0800 
    136 H136       -2.0815  -16.7089  -50.2998 H         1 UNK         0.1150 
    137 H137       -0.9626  -20.8020  -50.9177 H         1 UNK         0.1150 
    138 H138        1.9559  -17.9473  -49.6084 H         1 UNK         0.1150 
    139 H139        1.1778  -21.5870  -50.2505 H         1 UNK         0.0800 
    140 H140        2.1943  -20.5594  -51.2187 H         1 UNK         0.0800 
    141 H141        1.0386  -19.6991  -47.5849 H         1 UNK         0.0800 
    142 H142        2.5123  -19.8624  -46.6937 H         1 UNK         0.0800 
    143 H143        2.2418  -22.4188  -46.8407 H         1 UNK         0.0600 
    144 H144        1.0594  -20.6256  -45.0170 H         1 UNK         0.3000 
    145 H145       -0.3600  -23.0200  -42.7705 H         1 UNK         0.0600 
    146 H146        1.0419  -21.7171  -41.2083 H         1 UNK         0.0600 
    147 H147        2.0611  -22.7658  -42.1822 H         1 UNK         0.0600 
    148 H148        1.9738  -21.0455  -42.5444 H         1 UNK         0.0600 
    149 H149       -0.3505  -20.1797  -42.7223 H         1 UNK         0.3000 
    150 H150       -3.3762  -19.7058  -44.6367 H         1 UNK         0.0600 
    151 H151       -4.0259  -20.1396  -42.2843 H         1 UNK         0.0600 
    152 H152       -3.8613  -18.4113  -42.5609 H         1 UNK         0.0600 
    153 H153       -2.5995  -19.2934  -41.7025 H         1 UNK         0.0600 
    154 H154       -1.6253  -17.7875  -43.5146 H         1 UNK         0.3000 
    155 H155        0.6062  -17.4671  -46.3049 H         1 UNK         0.0600 
    156 H156       -1.5376  -15.6153  -45.1339 H         1 UNK         0.0600 
    157 H157       -0.1196  -15.1146  -46.0558 H         1 UNK         0.0600 
    158 H158       -1.3827  -16.0627  -46.8278 H         1 UNK         0.0600 
    159 H159        0.4578  -16.1815  -43.7468 H         1 UNK         0.3000 
    160 H160        2.6523  -18.4283  -42.0355 H         1 UNK         0.0600 
    161 H161        2.9239  -15.5408  -43.0282 H         1 UNK         0.0600 
    162 H162        4.0916  -16.8292  -43.2693 H         1 UNK         0.0600 
    163 H163        3.7728  -16.2315  -41.6460 H         1 UNK         0.0600 
    164 H164        1.1843  -16.0492  -41.3010 H         1 UNK         0.3000 
    165 H165       -1.7303  -17.7375  -40.1181 H         1 UNK         0.0600 
    166 H166       -1.1039  -16.7846  -37.9193 H         1 UNK         0.0600 
    167 H167       -0.1149  -18.1949  -38.2621 H         1 UNK         0.0600 
    168 H168        0.5673  -16.5832  -38.4478 H         1 UNK         0.0600 
    169 H169       -0.8800  -15.0634  -39.7653 H         1 UNK         0.3000 
    170 H170       -1.4014  -13.7169  -42.9202 H         1 UNK         0.0600 
    171 H171       -3.8222  -13.9485  -42.3310 H         1 UNK         0.0600 
    172 H172       -3.4707  -13.4934  -40.6681 H         1 UNK         0.0600 
    173 H173       -3.2298  -12.3343  -41.9766 H         1 UNK         0.0600 
    174 H174       -1.2452  -12.3715  -40.4624 H         1 UNK         0.3000 
    175 H175        0.6938  -11.3080  -39.9306 H         1 UNK         0.0600 
    176 H176        1.9634  -13.8240  -38.7055 H         1 UNK         0.0600 
    177 H177        1.8866  -12.2362  -37.9414 H         1 UNK         0.0600 
    178 H178        0.4106  -13.1357  -38.2468 H         1 UNK         0.0600 
    179 H179        3.3809  -12.3608  -40.0687 H         1 UNK         0.3000 
    180 H180        4.6022   -9.8751  -41.6271 H         1 UNK         0.0600 
    181 H181        5.0959  -12.8983  -41.4594 H         1 UNK         0.0600 
    182 H182        5.3360  -11.7120  -40.1786 H         1 UNK         0.0600 
    183 H183        6.3555  -11.6779  -41.6020 H         1 UNK         0.0600 
    184 H184        4.7810  -10.0092  -43.8149 H         1 UNK         0.3000 
    185 H185        4.0435  -10.6689  -45.9518 H         1 UNK         0.0600 
    186 H186        6.5218  -10.8903  -45.5465 H         1 UNK         0.0600 
    187 H187        6.4359  -12.6102  -45.9096 H         1 UNK         0.0600 
    188 H188        6.1112  -11.4200  -47.1688 H         1 UNK         0.0600 
    189 H189        3.6062  -13.5348  -45.9890 H         1 UNK         0.3000 
    190 H190       -1.0446  -20.9123  -46.9096 H         1 UNK         0.3000 
    191 H191       -2.0014  -22.2292  -49.1959 H         1 UNK         0.0600 
    192 H192       -3.5689  -21.2043  -46.7708 H         1 UNK         0.0600 
    193 H193       -4.2316  -21.5189  -48.3713 H         1 UNK         0.0600 
    194 H194       -3.0566  -20.2312  -48.1442 H         1 UNK         0.0600 
    195 H195       -2.1079  -23.2942  -45.7662 H         1 UNK         0.3000 
    196 H196       -3.6342  -25.6528  -46.1827 H         1 UNK         0.0600 
    197 H197       -2.7062  -26.3313  -43.9668 H         1 UNK         0.0600 
    198 H198       -3.2606  -24.6639  -43.9445 H         1 UNK         0.0600 
    199 H199       -1.5375  -25.0184  -44.0397 H         1 UNK         0.0600 
    200 H200       -0.0930  -25.0921  -46.3187 H         1 UNK         0.3000 
    201 H201        0.6105  -27.8346  -46.8208 H         1 UNK         0.0600 
    202 H202        2.1963  -26.2214  -45.8191 H         1 UNK         0.0600 
    203 H203        2.1711  -25.2373  -47.2795 H         1 UNK         0.0600 
    204 H204        2.8535  -26.8591  -47.3195 H         1 UNK         0.0600 
    205 H205        0.1671  -24.9811  -48.9530 H         1 UNK         0.3000 
    206 H206        0.8827  -26.3616  -51.3744 H         1 UNK         0.0600 
    207 H207        1.2414  -23.9318  -51.0393 H         1 UNK         0.0600 
    208 H208        0.1949  -24.2004  -52.4248 H         1 UNK         0.0600 
    209 H209       -0.4978  -23.6678  -50.8995 H         1 UNK         0.0600 
    210 H210       -2.0549  -26.2411  -49.6156 H         1 UNK         0.3000 
    211 H211       -4.1400  -26.9204  -49.8902 H         1 UNK         0.0600 
    212 H212       -3.3356  -28.2487  -52.5347 H         1 UNK         0.0600 
    213 H213       -4.8100  -28.5282  -51.6243 H         1 UNK         0.0600 
    214 H214       -3.2621  -29.0073  -50.9451 H         1 UNK         0.0600 
    215 H215       -3.8685  -24.4965  -50.1027 H         1 UNK         0.3000 
    216 H216       -4.6396  -22.5339  -50.7017 H         1 UNK         0.0600 
    217 H217       -6.6701  -22.2573  -52.0642 H         1 UNK         0.0600 
    218 H218       -6.8776  -23.6064  -50.9683 H         1 UNK         0.0600 
    219 H219       -6.5516  -23.9063  -52.6708 H         1 UNK         0.0600 
    220 H220       -5.4984  -22.4766  -53.8925 H         1 UNK         0.3000 
    221 H221       -3.0136  -22.4895  -55.2542 H         1 UNK         0.0600 
    222 H222       -4.1768  -19.7394  -54.4692 H         1 UNK         0.0600 
    223 H223       -2.6066  -20.3666  -53.9740 H         1 UNK         0.0600 
    224 H224       -2.9006  -19.9855  -55.6559 H         1 UNK         0.0600 
    225 H225       -3.4636  -21.3620  -57.4926 H         1 UNK         0.3000 
    226 H226       -5.7620  -22.5024  -58.6843 H         1 UNK         0.0600 
    227 H227       -3.6505  -22.0687  -59.9094 H         1 UNK         0.0600 
    228 H228       -4.9858  -21.2562  -60.7091 H         1 UNK         0.0600 
    229 H229       -3.8645  -20.3275  -59.7212 H         1 UNK         0.0600 
    230 H230       -5.2721  -19.3392  -57.2645 H         1 UNK         0.3000 
    231 H231       -7.8477  -18.2408  -58.2161 H         1 UNK         0.0600 
    232 H232       -7.0525  -16.1896  -57.0810 H         1 UNK         0.0600 
    233 H233       -5.7983  -16.7992  -58.1445 H         1 UNK         0.0600 
    234 H234       -5.6770  -17.0532  -56.4035 H         1 UNK         0.0600 
    235 H235       -7.3236  -20.5884  -56.1250 H         1 UNK         0.3000 
    236 H236       -8.2257  -21.4839  -54.3407 H         1 UNK         0.0600 
    237 H237      -10.3937  -20.8974  -55.4615 H         1 UNK         0.0600 
    238 H238      -10.5378  -20.9469  -53.7132 H         1 UNK         0.0600 
    239 H239      -10.4590  -19.3970  -54.5373 H         1 UNK         0.0600 
    240 H240       -6.4185  -19.0650  -54.0905 H         1 UNK         0.3000 
    241 H241       -5.3870  -17.8522  -52.6054 H         1 UNK         0.0600 
    242 H242       -8.1498  -16.9945  -53.6487 H         1 UNK         0.3800 
    243 H243       -8.5301  -15.6620  -52.5882 H         1 UNK         0.3800 
    244 H244       -6.7205  -19.0488  -50.1565 H         1 UNK         0.0800 
    245 H245       -5.7129  -20.0749  -51.1275 H         1 UNK         0.0800 
    246 H246       -3.2411  -20.2218  -51.0913 H         1 UNK         0.0800 
    247 H247       -3.2185  -18.8095  -52.1253 H         1 UNK         0.0800 
@<TRIPOS>BOND
     1    1    2 1    
     2    1  127 1    
     3    1  128 1    
     4    1  129 1    
     5    2    3 2    
     6    2    4 am   BACKBONE|DICT|INTERRES
     7    4    5 1    
     8    4  130 1    
     9    5    6 1    
    10    5   65 1    
    11    5  131 1    
    12    6    7 1    
    13    6  132 1    
    14    6  133 1    
    15    7    8 1    
    16    8    9 1    
    17    8  134 1    
    18    8  135 1    
    19    9   10 ar   
    20    9   14 ar   
    21   10   11 ar   
    22   10  136 1    
    23   11   12 ar   
    24   11  126 1    
    25   12   13 ar   
    26   12  137 1    
    27   13   14 ar   
    28   13   15 1    
    29   14  138 1    
    30   15   16 1    
    31   15  139 1    
    32   15  140 1    
    33   16   17 1    
    34   17   18 1    
    35   17  141 1    
    36   17  142 1    
    37   18   19 1    
    38   18   67 1    
    39   18  143 1    
    40   19   20 am   BACKBONE|DICT|INTERRES
    41   19  144 1    
    42   20   21 2    
    43   20   22 1    
    44   22   23 1    
    45   22   24 1    
    46   22  145 1    
    47   23  146 1    
    48   23  147 1    
    49   23  148 1    
    50   24   25 am   BACKBONE|DICT|INTERRES
    51   24  149 1    
    52   25   26 2    
    53   25   27 1    
    54   27   28 1    
    55   27   29 1    
    56   27  150 1    
    57   28  151 1    
    58   28  152 1    
    59   28  153 1    
    60   29   30 am   BACKBONE|DICT|INTERRES
    61   29  154 1    
    62   30   31 2    
    63   30   32 1    
    64   32   33 1    
    65   32   34 1    
    66   32  155 1    
    67   33  156 1    
    68   33  157 1    
    69   33  158 1    
    70   34   35 am   BACKBONE|DICT|INTERRES
    71   34  159 1    
    72   35   36 2    
    73   35   37 1    
    74   37   38 1    
    75   37   39 1    
    76   37  160 1    
    77   38  161 1    
    78   38  162 1    
    79   38  163 1    
    80   39   40 am   BACKBONE|DICT|INTERRES
    81   39  164 1    
    82   40   41 2    
    83   40   42 1    
    84   42   43 1    
    85   42   44 1    
    86   42  165 1    
    87   43  166 1    
    88   43  167 1    
    89   43  168 1    
    90   44   45 am   BACKBONE|DICT|INTERRES
    91   44  169 1    
    92   45   46 2    
    93   45   47 1    
    94   47   48 1    
    95   47   49 1    
    96   47  170 1    
    97   48  171 1    
    98   48  172 1    
    99   48  173 1    
   100   49   50 am   BACKBONE|DICT|INTERRES
   101   49  174 1    
   102   50   51 2    
   103   50   52 1    
   104   52   53 1    
   105   52   54 1    
   106   52  175 1    
   107   53  176 1    
   108   53  177 1    
   109   53  178 1    
   110   54   55 am   BACKBONE|DICT|INTERRES
   111   54  179 1    
   112   55   56 2    
   113   55   57 1    
   114   57   58 1    
   115   57   59 1    
   116   57  180 1    
   117   58  181 1    
   118   58  182 1    
   119   58  183 1    
   120   59   60 am   BACKBONE|DICT|INTERRES
   121   59  184 1    
   122   60   61 2    
   123   60   62 1    
   124   62   63 1    
   125   62   64 1    
   126   62  185 1    
   127   63  186 1    
   128   63  187 1    
   129   63  188 1    
   130   64   65 am   BACKBONE|DICT|INTERRES
   131   64  189 1    
   132   65   66 2    
   133   67   68 2    
   134   67   69 am   BACKBONE|DICT|INTERRES
   135   69   70 1    
   136   69  190 1    
   137   70   71 1    
   138   70   72 1    
   139   70  191 1    
   140   71  192 1    
   141   71  193 1    
   142   71  194 1    
   143   72   73 2    
   144   72   74 am   BACKBONE|DICT|INTERRES
   145   74   75 1    
   146   74  195 1    
   147   75   76 1    
   148   75   77 1    
   149   75  196 1    
   150   76  197 1    
   151   76  198 1    
   152   76  199 1    
   153   77   78 2    
   154   77   79 am   BACKBONE|DICT|INTERRES
   155   79   80 1    
   156   79  200 1    
   157   80   81 1    
   158   80   82 1    
   159   80  201 1    
   160   81  202 1    
   161   81  203 1    
   162   81  204 1    
   163   82   83 2    
   164   82   84 am   BACKBONE|DICT|INTERRES
   165   84   85 1    
   166   84  205 1    
   167   85   86 1    
   168   85   87 1    
   169   85  206 1    
   170   86  207 1    
   171   86  208 1    
   172   86  209 1    
   173   87   88 2    
   174   87   89 am   BACKBONE|DICT|INTERRES
   175   89   90 1    
   176   89  210 1    
   177   90   91 1    
   178   90   92 1    
   179   90  211 1    
   180   91  212 1    
   181   91  213 1    
   182   91  214 1    
   183   92   93 2    
   184   92   94 am   BACKBONE|DICT|INTERRES
   185   94   95 1    
   186   94  215 1    
   187   95   96 1    
   188   95   97 1    
   189   95  216 1    
   190   96  217 1    
   191   96  218 1    
   192   96  219 1    
   193   97   98 2    
   194   97   99 am   BACKBONE|DICT|INTERRES
   195   99  100 1    
   196   99  220 1    
   197  100  101 1    
   198  100  102 1    
   199  100  221 1    
   200  101  222 1    
   201  101  223 1    
   202  101  224 1    
   203  102  103 2    
   204  102  104 am   BACKBONE|DICT|INTERRES
   205  104  105 1    
   206  104  225 1    
   207  105  106 1    
   208  105  107 1    
   209  105  226 1    
   210  106  227 1    
   211  106  228 1    
   212  106  229 1    
   213  107  108 2    
   214  107  109 am   BACKBONE|DICT|INTERRES
   215  109  110 1    
   216  109  230 1    
   217  110  111 1    
   218  110  112 1    
   219  110  231 1    
   220  111  232 1    
   221  111  233 1    
   222  111  234 1    
   223  112  113 2    
   224  112  114 am   BACKBONE|DICT|INTERRES
   225  114  115 1    
   226  114  235 1    
   227  115  116 1    
   228  115  117 1    
   229  115  236 1    
   230  116  237 1    
   231  116  238 1    
   232  116  239 1    
   233  117  118 2    
   234  117  119 am   BACKBONE|DICT|INTERRES
   235  119  120 1    
   236  119  240 1    
   237  120  121 1    
   238  120  124 1    
   239  120  241 1    
   240  121  122 am   BACKBONE|DICT|INTERRES
   241  121  123 2    
   242  122  242 1    
   243  122  243 1    
   244  124  125 1    
   245  124  244 1    
   246  124  245 1    
   247  125  126 1    
   248  126  246 1    
   249  126  247 1    
@<TRIPOS>SUBSTRUCTURE
     1 UNK         1 GROUP             0       ****    0 ROOT    
