@<TRIPOS>MOLECULE
3R540
247   249    1
SMALL
USER_CHARGES


@<TRIPOS>ATOM
      1 CA         -5.0632  -18.5240  -47.1494 C.3       0 UNK        -0.1800 
      2 C          -4.6180  -17.1057  -47.4724 C.2       0 UNK         0.5000 
      3 O          -5.4521  -16.2562  -47.7888 O.2       0 UNK        -0.5000 
      4 N          -3.3077  -16.8414  -47.3894 N.am      1 UNK        -0.5000 
      5 CA         -2.6948  -15.5313  -47.6370 C.3       1 UNK         0.1400 
      6 C6         -1.1899  -15.6292  -48.0056 C.3       23 UNK        -0.0398 
      7 S7         -0.8400  -16.7345  -49.4150 S.3       23 UNK        -0.2404 
      8 C8         -0.0118  -18.0923  -48.5266 C.3       23 UNK        -0.0205 
      9 C9          0.4375  -19.2362  -49.4234 C.ar      23 UNK        -0.0193 
     10 C10        -0.4297  -19.8086  -50.3573 C.ar      23 UNK        -0.1150 
     11 C11        -0.0289  -20.9067  -51.1229 C.ar      23 UNK        -0.0193 
     12 C12         1.2433  -21.4533  -50.9291 C.ar      23 UNK        -0.1150 
     13 C13         2.1148  -20.8996  -49.9873 C.ar      23 UNK        -0.0193 
     14 C14         1.7143  -19.7761  -49.2594 C.ar      23 UNK        -0.1150 
     15 C15         3.4826  -21.5207  -49.7408 C.3       23 UNK        -0.0205 
     16 S16         3.4020  -22.9727  -48.6361 S.3       23 UNK        -0.2404 
     17 C17         2.8062  -22.2443  -47.0651 C.3       23 UNK        -0.0398 
     18 CA          1.5522  -22.9007  -46.4268 C.3       11 UNK         0.1400 
     19 N           1.1628  -22.1765  -45.2092 N.am      11 UNK        -0.5000 
     20 C           0.2798  -22.6128  -44.2988 C.2       10 UNK         0.5000 
     21 O          -0.2803  -23.7066  -44.3716 O.2       10 UNK        -0.5000 
     22 CA         -0.0739  -21.6650  -43.1343 C.3       10 UNK         0.1400 
     23 CB          0.7437  -22.0334  -41.8870 C.3       10 UNK        -0.1800 
     24 N           0.1053  -20.2377  -43.4207 N.am      10 UNK        -0.5000 
     25 C          -0.4981  -19.5530  -44.4041 C.2       9 UNK         0.5000 
     26 O          -1.2748  -20.0580  -45.2126 O.2       9 UNK        -0.5000 
     27 CA         -0.1352  -18.0637  -44.5458 C.3       9 UNK         0.1400 
     28 CB         -1.0490  -17.1926  -43.6734 C.3       9 UNK        -0.1800 
     29 N           1.2636  -17.7743  -44.2328 N.am      9 UNK        -0.5000 
     30 C           2.3215  -18.2801  -44.8825 C.2       8 UNK         0.5000 
     31 O           2.2342  -19.0654  -45.8254 O.2       8 UNK        -0.5000 
     32 CA          3.7076  -17.8653  -44.3664 C.3       8 UNK         0.1400 
     33 CB          4.0903  -16.4687  -44.8795 C.3       8 UNK        -0.1800 
     34 N           3.7471  -17.8793  -42.9053 N.am      8 UNK        -0.5000 
     35 C           3.9457  -18.9799  -42.1673 C.2       7 UNK         0.5000 
     36 O           4.1916  -20.0881  -42.6445 O.2       7 UNK        -0.5000 
     37 CA          3.8404  -18.8230  -40.6375 C.3       7 UNK         0.1400 
     38 CB          5.2145  -18.4930  -40.0351 C.3       7 UNK        -0.1800 
     39 N           2.8777  -17.8009  -40.2215 N.am      7 UNK        -0.5000 
     40 C           1.5520  -17.8907  -40.3955 C.2       6 UNK         0.5000 
     41 O           0.9948  -18.8500  -40.9280 O.2       6 UNK        -0.5000 
     42 CA          0.7120  -16.6808  -39.9422 C.3       6 UNK         0.1400 
     43 CB          0.3844  -16.7856  -38.4452 C.3       6 UNK        -0.1800 
     44 N           1.3252  -15.3748  -40.2148 N.am      6 UNK        -0.5000 
     45 C           1.7336  -14.9510  -41.4182 C.2       5 UNK         0.5000 
     46 O           1.7529  -15.6645  -42.4235 O.2       5 UNK        -0.5000 
     47 CA          2.2457  -13.5017  -41.5093 C.3       5 UNK         0.1400 
     48 CB          3.7438  -13.4483  -41.1725 C.3       5 UNK        -0.1800 
     49 N           2.0447  -12.9561  -42.8529 N.am      5 UNK        -0.5000 
     50 C           0.8478  -12.6985  -43.3959 C.2       4 UNK         0.5000 
     51 O          -0.2119  -12.7406  -42.7645 O.2       4 UNK        -0.5000 
     52 CA          0.8546  -12.3705  -44.9004 C.3       4 UNK         0.1400 
     53 CB          1.2446  -13.6120  -45.7238 C.3       4 UNK        -0.1800 
     54 N          -0.4567  -11.9035  -45.3491 N.am      4 UNK        -0.5000 
     55 C          -0.8516  -10.6228  -45.3483 C.2       3 UNK         0.5000 
     56 O          -0.1296   -9.6922  -44.9860 O.2       3 UNK        -0.5000 
     57 CA         -2.2733  -10.3056  -45.8606 C.3       3 UNK         0.1400 
     58 CB         -2.2079   -9.6852  -47.2656 C.3       3 UNK        -0.1800 
     59 N          -3.1517  -11.4747  -45.9104 N.am      3 UNK        -0.5000 
     60 C          -3.7820  -12.0044  -44.8538 C.2       2 UNK         0.5000 
     61 O          -3.7521  -11.5125  -43.7252 O.2       2 UNK        -0.5000 
     62 CA         -4.5772  -13.3068  -45.0920 C.3       2 UNK         0.1400 
     63 CB         -6.0747  -13.0002  -45.2481 C.3       2 UNK        -0.1800 
     64 N          -4.1369  -14.1059  -46.2432 N.am      2 UNK        -0.5000 
     65 C          -2.9111  -14.6187  -46.4107 C.2       1 UNK         0.5000 
     66 O          -1.9841  -14.4113  -45.6291 O.2       1 UNK        -0.5000 
     67 C           0.3603  -23.0980  -47.4010 C.2       11 UNK         0.5000 
     68 O           0.3457  -24.0780  -48.1479 O.2       11 UNK        -0.5000 
     69 N          -0.6628  -22.2312  -47.3196 N.am      12 UNK        -0.5000 
     70 CA         -1.9011  -22.3299  -48.0945 C.3       12 UNK         0.1400 
     71 CB         -2.7645  -21.0930  -47.8318 C.3       12 UNK        -0.1800 
     72 C          -2.7326  -23.5912  -47.8027 C.2       12 UNK         0.5000 
     73 O          -3.5109  -24.0024  -48.6634 O.2       12 UNK        -0.5000 
     74 N          -2.5655  -24.1960  -46.6163 N.am      13 UNK        -0.5000 
     75 CA         -3.2800  -25.4041  -46.1921 C.3       13 UNK         0.1400 
     76 CB         -2.9322  -25.7168  -44.7300 C.3       13 UNK        -0.1800 
     77 C          -3.0003  -26.6260  -47.0883 C.2       13 UNK         0.5000 
     78 O          -3.8942  -27.4482  -47.2898 O.2       13 UNK        -0.5000 
     79 N          -1.7886  -26.6908  -47.6584 N.am      14 UNK        -0.5000 
     80 CA         -1.3728  -27.7079  -48.6267 C.3       14 UNK         0.1400 
     81 CB          0.1575  -27.6663  -48.7578 C.3       14 UNK        -0.1800 
     82 C          -2.0370  -27.5434  -50.0101 C.2       14 UNK         0.5000 
     83 O          -2.0476  -28.4961  -50.7900 O.2       14 UNK        -0.5000 
     84 N          -2.5771  -26.3498  -50.2868 N.am      15 UNK        -0.5000 
     85 CA         -3.2466  -25.9754  -51.5313 C.3       15 UNK         0.1400 
     86 CB         -2.5693  -24.7066  -52.0700 C.3       15 UNK        -0.1800 
     87 C          -4.7591  -25.7555  -51.3241 C.2       15 UNK         0.5000 
     88 O          -5.4037  -25.1623  -52.1889 O.2       15 UNK        -0.5000 
     89 N          -5.2976  -26.2209  -50.1858 N.am      16 UNK        -0.5000 
     90 CA         -6.7004  -26.1252  -49.7663 C.3       16 UNK         0.1400 
     91 CB         -7.6076  -26.9677  -50.6881 C.3       16 UNK        -0.1800 
     92 C          -7.1901  -24.6699  -49.5932 C.2       16 UNK         0.5000 
     93 O          -8.3083  -24.3398  -49.9922 O.2       16 UNK        -0.5000 
     94 N          -6.3383  -23.8362  -48.9792 N.am      17 UNK        -0.5000 
     95 CA         -6.5612  -22.4296  -48.6264 C.3       17 UNK         0.1400 
     96 CB         -7.7653  -22.2638  -47.6747 C.3       17 UNK        -0.1800 
     97 C          -6.6055  -21.4812  -49.8430 C.2       17 UNK         0.5000 
     98 O          -7.2768  -20.4486  -49.7944 O.2       17 UNK        -0.5000 
     99 N          -5.8658  -21.8289  -50.9044 N.am      18 UNK        -0.5000 
    100 CA        -5.5996  -20.9572  -52.0509 C.3       18 UNK         0.1400 
    101 CB        -5.0254  -21.8078  -53.1944 C.3       18 UNK        -0.1800 
    102 C         -4.6237  -19.8202  -51.6844 C.2       18 UNK         0.5000 
    103 O         -3.9040  -19.9233  -50.6909 O.2       18 UNK        -0.5000 
    104 N         -4.5888  -18.7708  -52.5096 N.am      19 UNK        -0.5000 
    105 CA        -3.6679  -17.6442  -52.3894 C.3       19 UNK         0.1400 
    106 CB        -4.1886  -16.6451  -51.3414 C.3       19 UNK        -0.1800 
    107 C         -3.5147  -16.9773  -53.7627 C.2       19 UNK         0.5000 
    108 O         -4.3600  -17.1839  -54.6387 O.2       19 UNK        -0.5000 
    109 N         -2.4425  -16.1874  -53.9189 N.am      20 UNK        -0.5000 
    110 CA        -2.0509  -15.3682  -55.0786 C.3       20 UNK         0.1400 
    111 CB        -3.1206  -14.3087  -55.4052 C.3       20 UNK        -0.1800 
    112 C         -1.6574  -16.1673  -56.3379 C.2       20 UNK         0.5000 
    113 O         -0.6115  -15.8945  -56.9279 O.2       20 UNK        -0.5000 
    114 N         -2.4744  -17.1585  -56.7102 N.am      21 UNK        -0.5000 
    115 CA        -2.2586  -18.0784  -57.8308 C.3       21 UNK         0.1400 
    116 CB        -3.5918  -18.7740  -58.1490 C.3       21 UNK        -0.1800 
    117 C         -1.1529  -19.1233  -57.5681 C.2       21 UNK         0.5000 
    118 O         -0.7471  -19.8238  -58.4963 O.2       21 UNK        -0.5000 
    119 N         -0.7009  -19.2183  -56.3123 N.am      22 UNK        -0.5000 
    120 CA         0.3118  -20.1617  -55.8134 C.3       22 UNK         0.1400 
    121 C          1.7535  -19.9344  -56.3580 C.2       22 UNK         0.5000 
    122 N          2.0664  -18.7942  -56.9626 N.am      22 UNK        -0.7600 
    123 O          2.6032  -20.8115  -56.2298 O.2       22 UNK        -0.5000 
    124 C124        0.3275  -20.2000  -54.2628 C.3       23 UNK        -0.0398 
    125 S125       -1.3324  -20.4242  -53.5333 S.3       23 UNK        -0.2404 
    126 C126       -0.9881  -21.5249  -52.1276 C.3       23 UNK        -0.0205 
    127 H127       -5.1618  -19.1026  -48.0685 H         1 UNK         0.0600 
    128 H128       -6.0302  -18.5145  -46.6457 H         1 UNK         0.0600 
    129 H129       -4.3490  -19.0232  -46.4947 H         1 UNK         0.0600 
    130 H130       -2.6744  -17.5782  -47.1197 H         1 UNK         0.3000 
    131 H131       -3.2029  -15.0683  -48.4860 H         1 UNK         0.0600 
    132 H132       -0.5997  -15.9510  -47.1464 H         1 UNK         0.0800 
    133 H133       -0.8095  -14.6402  -48.2670 H         1 UNK         0.0800 
    134 H134        0.8430  -17.6823  -47.9860 H         1 UNK         0.0800 
    135 H135       -0.6885  -18.4966  -47.7755 H         1 UNK         0.0800 
    136 H136       -1.4239  -19.4058  -50.4814 H         1 UNK         0.1150 
    137 H137        1.5511  -22.3208  -51.4957 H         1 UNK         0.1150 
    138 H138        2.3860  -19.3423  -48.5321 H         1 UNK         0.1150 
    139 H139        3.9180  -21.8269  -50.6931 H         1 UNK         0.0800 
    140 H140        4.1672  -20.7839  -49.3178 H         1 UNK         0.0800 
    141 H141        2.6275  -21.1829  -47.2074 H         1 UNK         0.0800 
    142 H142        3.6328  -22.2966  -46.3554 H         1 UNK         0.0800 
    143 H143        1.8466  -23.9046  -46.1135 H         1 UNK         0.0600 
    144 H144        1.5493  -21.2483  -45.0954 H         1 UNK         0.3000 
    145 H145       -1.1304  -21.8201  -42.9074 H         1 UNK         0.0600 
    146 H146        0.3942  -21.4866  -41.0113 H         1 UNK         0.0600 
    147 H147        0.6564  -23.0962  -41.6574 H         1 UNK         0.0600 
    148 H148        1.8031  -21.8103  -42.0217 H         1 UNK         0.0600 
    149 H149        0.6827  -19.7211  -42.7654 H         1 UNK         0.3000 
    150 H150       -0.2979  -17.7806  -45.5851 H         1 UNK         0.0600 
    151 H151       -0.9626  -17.4538  -42.6191 H         1 UNK         0.0600 
    152 H152       -0.8059  -16.1346  -43.7779 H         1 UNK         0.0600 
    153 H153       -2.0944  -17.3154  -43.9595 H         1 UNK         0.0600 
    154 H154        1.4303  -17.0979  -43.4903 H         1 UNK         0.3000 
    155 H155        4.4386  -18.5776  -44.7553 H         1 UNK         0.0600 
    156 H156        4.0556  -16.4298  -45.9691 H         1 UNK         0.0600 
    157 H157        3.4170  -15.6997  -44.5019 H         1 UNK         0.0600 
    158 H158        5.1029  -16.2031  -44.5759 H         1 UNK         0.0600 
    159 H159        3.4730  -17.0243  -42.4396 H         1 UNK         0.3000 
    160 H160        3.5106  -19.7817  -40.2312 H         1 UNK         0.0600 
    161 H161        5.5874  -17.5300  -40.3862 H         1 UNK         0.0600 
    162 H162        5.9519  -19.2496  -40.3068 H         1 UNK         0.0600 
    163 H163        5.1706  -18.4604  -38.9463 H         1 UNK         0.0600 
    164 H164        3.2506  -16.9704  -39.7857 H         1 UNK         0.3000 
    165 H165       -0.2290  -16.7145  -40.4936 H         1 UNK         0.0600 
    166 H166       -0.3042  -15.9992  -38.1354 H         1 UNK         0.0600 
    167 H167       -0.0913  -17.7401  -38.2150 H         1 UNK         0.0600 
    168 H168        1.2816  -16.7090  -37.8298 H         1 UNK         0.0600 
    169 H169        1.3661  -14.7333  -39.4359 H         1 UNK         0.3000 
    170 H170        1.6960  -12.8844  -40.7958 H         1 UNK         0.0600 
    171 H171        4.3337  -14.0549  -41.8612 H         1 UNK         0.0600 
    172 H172        4.1219  -12.4267  -41.2168 H         1 UNK         0.0600 
    173 H173        3.9331  -13.8191  -40.1642 H         1 UNK         0.0600 
    174 H174        2.8617  -12.9251  -43.4441 H         1 UNK         0.3000 
    175 H175        1.5989  -11.5921  -45.0813 H         1 UNK         0.0600 
    176 H176        1.1119  -13.4404  -46.7921 H         1 UNK         0.0600 
    177 H177        0.6534  -14.4856  -45.4461 H         1 UNK         0.0600 
    178 H178        2.2924  -13.8687  -45.5691 H         1 UNK         0.0600 
    179 H179       -1.1338  -12.6323  -45.5496 H         1 UNK         0.3000 
    180 H180       -2.7078   -9.5666  -45.1839 H         1 UNK         0.0600 
    181 H181       -3.1991   -9.3966  -47.6162 H         1 UNK         0.0600 
    182 H182       -1.7819  -10.3783  -47.9922 H         1 UNK         0.0600 
    183 H183       -1.5900   -8.7861  -47.2685 H         1 UNK         0.0600 
    184 H184       -3.2425  -11.9383  -46.8020 H         1 UNK         0.3000 
    185 H185       -4.4476  -13.9253  -44.2015 H         1 UNK         0.0600 
    186 H186       -6.4514  -12.4365  -44.3934 H         1 UNK         0.0600 
    187 H187       -6.2716  -12.4099  -46.1440 H         1 UNK         0.0600 
    188 H188       -6.6607  -13.9173  -45.3142 H         1 UNK         0.0600 
    189 H189       -4.8565  -14.3944  -46.8963 H         1 UNK         0.3000 
    190 H190       -0.6186  -21.4765  -46.6442 H         1 UNK         0.3000 
    191 H191       -1.6340  -22.3499  -49.1520 H         1 UNK         0.0600 
    192 H192       -3.0915  -21.0469  -46.7932 H         1 UNK         0.0600 
    193 H193       -2.2336  -20.1730  -48.0660 H         1 UNK         0.0600 
    194 H194       -3.6588  -21.1106  -48.4511 H         1 UNK         0.0600 
    195 H195       -1.8867  -23.8194  -45.9661 H         1 UNK         0.3000 
    196 H196       -4.3496  -25.1919  -46.2503 H         1 UNK         0.0600 
    197 H197       -3.4976  -26.5771  -44.3695 H         1 UNK         0.0600 
    198 H198       -3.1686  -24.8756  -44.0782 H         1 UNK         0.0600 
    199 H199       -1.8728  -25.9467  -44.6096 H         1 UNK         0.0600 
    200 H200       -1.1256  -25.9500  -47.4709 H         1 UNK         0.3000 
    201 H201       -1.6575  -28.6884  -48.2395 H         1 UNK         0.0600 
    202 H202        0.6414  -27.8352  -47.7957 H         1 UNK         0.0600 
    203 H203        0.5015  -26.7052  -49.1424 H         1 UNK         0.0600 
    204 H204        0.5133  -28.4393  -49.4401 H         1 UNK         0.0600 
    205 H205       -2.5623  -25.6314  -49.5724 H         1 UNK         0.3000 
    206 H206       -3.1380  -26.7642  -52.2780 H         1 UNK         0.0600 
    207 H207       -2.9663  -24.4293  -53.0471 H         1 UNK         0.0600 
    208 H208       -2.7256  -23.8665  -51.3940 H         1 UNK         0.0600 
    209 H209       -1.4952  -24.8513  -52.1866 H         1 UNK         0.0600 
    210 H210       -4.6784  -26.6799  -49.5315 H         1 UNK         0.3000 
    211 H211       -6.7455  -26.5730  -48.7724 H         1 UNK         0.0600 
    212 H212       -7.6617  -26.5531  -51.6951 H         1 UNK         0.0600 
    213 H213       -8.6254  -27.0126  -50.2992 H         1 UNK         0.0600 
    214 H214       -7.2463  -27.9931  -50.7664 H         1 UNK         0.0600 
    215 H215       -5.4026  -24.1777  -48.7746 H         1 UNK         0.3000 
    216 H216       -5.6795  -22.1340  -48.0589 H         1 UNK         0.0600 
    217 H217       -7.8069  -21.2505  -47.2734 H         1 UNK         0.0600 
    218 H218       -7.6945  -22.9438  -46.8259 H         1 UNK         0.0600 
    219 H219       -8.7132  -22.4512  -48.1794 H         1 UNK         0.0600 
    220 H220       -5.3452  -22.6926  -50.8630 H         1 UNK         0.3000 
    221 H221       -6.5419  -20.5145  -52.3801 H         1 UNK         0.0600 
    222 H222       -4.0689  -22.2521  -52.9200 H         1 UNK         0.0600 
    223 H223       -5.7048  -22.6157  -53.4669 H         1 UNK         0.0600 
    224 H224       -4.8598  -21.2065  -54.0891 H         1 UNK         0.0600 
    225 H225       -5.1605  -18.7491  -53.3449 H         1 UNK         0.3000 
    226 H226       -2.6869  -18.0128  -52.0823 H         1 UNK         0.0600 
    227 H227       -4.2653  -17.1137  -50.3614 H         1 UNK         0.0600 
    228 H228       -3.5157  -15.7934  -51.2370 H         1 UNK         0.0600 
    229 H229       -5.1737  -16.2599  -51.6065 H         1 UNK         0.0600 
    230 H230       -1.8069  -16.1189  -53.1358 H         1 UNK         0.3000 
    231 H231       -1.1544  -14.8316  -54.7637 H         1 UNK         0.0600 
    232 H232       -4.0537  -14.7587  -55.7451 H         1 UNK         0.0600 
    233 H233       -2.7764  -13.6405  -56.1957 H         1 UNK         0.0600 
    234 H234       -3.3436  -13.6928  -54.5339 H         1 UNK         0.0600 
    235 H235       -3.3074  -17.3073  -56.1448 H         1 UNK         0.3000 
    236 H236       -1.9566  -17.4952  -58.7031 H         1 UNK         0.0600 
    237 H237       -4.3657  -18.0478  -58.3983 H         1 UNK         0.0600 
    238 H238       -3.4913  -19.4459  -59.0024 H         1 UNK         0.0600 
    239 H239       -3.9466  -19.3655  -57.3037 H         1 UNK         0.0600 
    240 H240       -1.1134  -18.6135  -55.6190 H         1 UNK         0.3000 
    241 H241        0.0124  -21.1518  -56.1621 H         1 UNK         0.0600 
    242 H242        1.3761  -18.0676  -57.0757 H         1 UNK         0.3800 
    243 H243        3.0010  -18.6580  -57.3149 H         1 UNK         0.3800 
    244 H244        0.9786  -21.0055  -53.9190 H         1 UNK         0.0800 
    245 H245        0.7458  -19.2762  -53.8590 H         1 UNK         0.0800 
    246 H246       -0.6089  -22.4778  -52.4986 H         1 UNK         0.0800 
    247 H247       -1.9298  -21.7351  -51.6213 H         1 UNK         0.0800 
@<TRIPOS>BOND
     1    1    2 1    
     2    1  127 1    
     3    1  128 1    
     4    1  129 1    
     5    2    3 2    
     6    2    4 am   BACKBONE|DICT|INTERRES
     7    4    5 1    
     8    4  130 1    
     9    5    6 1    
    10    5   65 1    
    11    5  131 1    
    12    6    7 1    
    13    6  132 1    
    14    6  133 1    
    15    7    8 1    
    16    8    9 1    
    17    8  134 1    
    18    8  135 1    
    19    9   10 ar   
    20    9   14 ar   
    21   10   11 ar   
    22   10  136 1    
    23   11   12 ar   
    24   11  126 1    
    25   12   13 ar   
    26   12  137 1    
    27   13   14 ar   
    28   13   15 1    
    29   14  138 1    
    30   15   16 1    
    31   15  139 1    
    32   15  140 1    
    33   16   17 1    
    34   17   18 1    
    35   17  141 1    
    36   17  142 1    
    37   18   19 1    
    38   18   67 1    
    39   18  143 1    
    40   19   20 am   BACKBONE|DICT|INTERRES
    41   19  144 1    
    42   20   21 2    
    43   20   22 1    
    44   22   23 1    
    45   22   24 1    
    46   22  145 1    
    47   23  146 1    
    48   23  147 1    
    49   23  148 1    
    50   24   25 am   BACKBONE|DICT|INTERRES
    51   24  149 1    
    52   25   26 2    
    53   25   27 1    
    54   27   28 1    
    55   27   29 1    
    56   27  150 1    
    57   28  151 1    
    58   28  152 1    
    59   28  153 1    
    60   29   30 am   BACKBONE|DICT|INTERRES
    61   29  154 1    
    62   30   31 2    
    63   30   32 1    
    64   32   33 1    
    65   32   34 1    
    66   32  155 1    
    67   33  156 1    
    68   33  157 1    
    69   33  158 1    
    70   34   35 am   BACKBONE|DICT|INTERRES
    71   34  159 1    
    72   35   36 2    
    73   35   37 1    
    74   37   38 1    
    75   37   39 1    
    76   37  160 1    
    77   38  161 1    
    78   38  162 1    
    79   38  163 1    
    80   39   40 am   BACKBONE|DICT|INTERRES
    81   39  164 1    
    82   40   41 2    
    83   40   42 1    
    84   42   43 1    
    85   42   44 1    
    86   42  165 1    
    87   43  166 1    
    88   43  167 1    
    89   43  168 1    
    90   44   45 am   BACKBONE|DICT|INTERRES
    91   44  169 1    
    92   45   46 2    
    93   45   47 1    
    94   47   48 1    
    95   47   49 1    
    96   47  170 1    
    97   48  171 1    
    98   48  172 1    
    99   48  173 1    
   100   49   50 am   BACKBONE|DICT|INTERRES
   101   49  174 1    
   102   50   51 2    
   103   50   52 1    
   104   52   53 1    
   105   52   54 1    
   106   52  175 1    
   107   53  176 1    
   108   53  177 1    
   109   53  178 1    
   110   54   55 am   BACKBONE|DICT|INTERRES
   111   54  179 1    
   112   55   56 2    
   113   55   57 1    
   114   57   58 1    
   115   57   59 1    
   116   57  180 1    
   117   58  181 1    
   118   58  182 1    
   119   58  183 1    
   120   59   60 am   BACKBONE|DICT|INTERRES
   121   59  184 1    
   122   60   61 2    
   123   60   62 1    
   124   62   63 1    
   125   62   64 1    
   126   62  185 1    
   127   63  186 1    
   128   63  187 1    
   129   63  188 1    
   130   64   65 am   BACKBONE|DICT|INTERRES
   131   64  189 1    
   132   65   66 2    
   133   67   68 2    
   134   67   69 am   BACKBONE|DICT|INTERRES
   135   69   70 1    
   136   69  190 1    
   137   70   71 1    
   138   70   72 1    
   139   70  191 1    
   140   71  192 1    
   141   71  193 1    
   142   71  194 1    
   143   72   73 2    
   144   72   74 am   BACKBONE|DICT|INTERRES
   145   74   75 1    
   146   74  195 1    
   147   75   76 1    
   148   75   77 1    
   149   75  196 1    
   150   76  197 1    
   151   76  198 1    
   152   76  199 1    
   153   77   78 2    
   154   77   79 am   BACKBONE|DICT|INTERRES
   155   79   80 1    
   156   79  200 1    
   157   80   81 1    
   158   80   82 1    
   159   80  201 1    
   160   81  202 1    
   161   81  203 1    
   162   81  204 1    
   163   82   83 2    
   164   82   84 am   BACKBONE|DICT|INTERRES
   165   84   85 1    
   166   84  205 1    
   167   85   86 1    
   168   85   87 1    
   169   85  206 1    
   170   86  207 1    
   171   86  208 1    
   172   86  209 1    
   173   87   88 2    
   174   87   89 am   BACKBONE|DICT|INTERRES
   175   89   90 1    
   176   89  210 1    
   177   90   91 1    
   178   90   92 1    
   179   90  211 1    
   180   91  212 1    
   181   91  213 1    
   182   91  214 1    
   183   92   93 2    
   184   92   94 am   BACKBONE|DICT|INTERRES
   185   94   95 1    
   186   94  215 1    
   187   95   96 1    
   188   95   97 1    
   189   95  216 1    
   190   96  217 1    
   191   96  218 1    
   192   96  219 1    
   193   97   98 2    
   194   97   99 am   BACKBONE|DICT|INTERRES
   195   99  100 1    
   196   99  220 1    
   197  100  101 1    
   198  100  102 1    
   199  100  221 1    
   200  101  222 1    
   201  101  223 1    
   202  101  224 1    
   203  102  103 2    
   204  102  104 am   BACKBONE|DICT|INTERRES
   205  104  105 1    
   206  104  225 1    
   207  105  106 1    
   208  105  107 1    
   209  105  226 1    
   210  106  227 1    
   211  106  228 1    
   212  106  229 1    
   213  107  108 2    
   214  107  109 am   BACKBONE|DICT|INTERRES
   215  109  110 1    
   216  109  230 1    
   217  110  111 1    
   218  110  112 1    
   219  110  231 1    
   220  111  232 1    
   221  111  233 1    
   222  111  234 1    
   223  112  113 2    
   224  112  114 am   BACKBONE|DICT|INTERRES
   225  114  115 1    
   226  114  235 1    
   227  115  116 1    
   228  115  117 1    
   229  115  236 1    
   230  116  237 1    
   231  116  238 1    
   232  116  239 1    
   233  117  118 2    
   234  117  119 am   BACKBONE|DICT|INTERRES
   235  119  120 1    
   236  119  240 1    
   237  120  121 1    
   238  120  124 1    
   239  120  241 1    
   240  121  122 am   BACKBONE|DICT|INTERRES
   241  121  123 2    
   242  122  242 1    
   243  122  243 1    
   244  124  125 1    
   245  124  244 1    
   246  124  245 1    
   247  125  126 1    
   248  126  246 1    
   249  126  247 1    
@<TRIPOS>SUBSTRUCTURE
     1 UNK         1 GROUP             0       ****    0 ROOT    
