@<TRIPOS>MOLECULE
3R540
247   249    1
SMALL
USER_CHARGES


@<TRIPOS>ATOM
      1 CA         -6.1197   -9.4784  -46.4393 C.3       0 UNK        -0.1800 
      2 C          -4.7399   -9.6553  -47.0577 C.2       0 UNK         0.5000 
      3 O          -4.1740   -8.6941  -47.5799 O.2       0 UNK        -0.5000 
      4 N          -4.2032  -10.8798  -47.0097 N.am      1 UNK        -0.5000 
      5 CA         -2.8587  -11.2319  -47.4751 C.3       1 UNK         0.1400 
      6 C6         -2.6945  -12.7588  -47.6868 C.3       23 UNK        -0.0398 
      7 S7         -3.2618  -13.7968  -46.2907 S.3       23 UNK        -0.2404 
      8 C8         -3.9963  -15.2134  -47.1675 C.3       23 UNK        -0.0205 
      9 C9         -2.9284  -16.0791  -47.8180 C.ar      23 UNK        -0.0193 
     10 C10        -2.5556  -15.8622  -49.1471 C.ar      23 UNK        -0.1150 
     11 C11        -1.5595  -16.6418  -49.7369 C.ar      23 UNK        -0.0193 
     12 C12        -0.9459  -17.6524  -48.9935 C.ar      23 UNK        -0.1150 
     13 C13        -1.3169  -17.8955  -47.6681 C.ar      23 UNK        -0.0193 
     14 C14        -2.3126  -17.0988  -47.0867 C.ar      23 UNK        -0.1150 
     15 C15        -0.6181  -19.0347  -46.9285 C.3       23 UNK        -0.0205 
     16 S16        -0.7746  -19.0184  -45.1072 S.3       23 UNK        -0.2404 
     17 C17        -2.2789  -19.9856  -44.7147 C.3       23 UNK        -0.0398 
     18 CA         -2.5437  -21.2585  -45.5603 C.3       11 UNK         0.1400 
     19 N          -1.3492  -22.0915  -45.7305 N.am      11 UNK        -0.5000 
     20 C          -1.2502  -23.0818  -46.6281 C.2       10 UNK         0.5000 
     21 O          -2.1559  -23.3757  -47.4077 O.2       10 UNK        -0.5000 
     22 CA          0.0504  -23.9062  -46.6500 C.3       10 UNK         0.1400 
     23 CB          0.9607  -23.4178  -47.7863 C.3       10 UNK        -0.1800 
     24 N           0.7989  -23.8830  -45.3918 N.am      10 UNK        -0.5000 
     25 C           0.3534  -24.3225  -44.2053 C.2       9 UNK         0.5000 
     26 O          -0.7669  -24.8023  -44.0286 O.2       9 UNK        -0.5000 
     27 CA          1.2958  -24.1167  -43.0038 C.3       9 UNK         0.1400 
     28 CB          2.2614  -25.3027  -42.8671 C.3       9 UNK        -0.1800 
     29 N           2.0605  -22.8660  -43.0858 N.am      9 UNK        -0.5000 
     30 C           1.5016  -21.6486  -43.1154 C.2       8 UNK         0.5000 
     31 O           0.2827  -21.4655  -43.0607 O.2       8 UNK        -0.5000 
     32 CA          2.4542  -20.4527  -43.2963 C.3       8 UNK         0.1400 
     33 CB          2.8575  -20.3078  -44.7728 C.3       8 UNK        -0.1800 
     34 N           1.8027  -19.2184  -42.8653 N.am      8 UNK        -0.5000 
     35 C           1.7045  -18.8157  -41.5931 C.2       7 UNK         0.5000 
     36 O           2.3028  -19.3634  -40.6649 O.2       7 UNK        -0.5000 
     37 CA          0.7470  -17.6414  -41.2926 C.3       7 UNK         0.1400 
     38 CB          1.2790  -16.7112  -40.1815 C.3       7 UNK        -0.1800 
     39 N           0.3212  -16.8720  -42.4700 N.am      7 UNK        -0.5000 
     40 C           1.0714  -16.0770  -43.2463 C.2       6 UNK         0.5000 
     41 O           2.2801  -15.8936  -43.0879 O.2       6 UNK        -0.5000 
     42 CA          0.3008  -15.3233  -44.3488 C.3       6 UNK         0.1400 
     43 CB         -0.4218  -14.1073  -43.7466 C.3       6 UNK        -0.1800 
     44 N           1.1436  -14.8587  -45.4479 N.am      6 UNK        -0.5000 
     45 C           1.8149  -15.6408  -46.3038 C.2       5 UNK         0.5000 
     46 O           1.8566  -16.8684  -46.2355 O.2       5 UNK        -0.5000 
     47 CA          2.5634  -14.9238  -47.4375 C.3       5 UNK         0.1400 
     48 CB          1.5756  -14.4403  -48.5132 C.3       5 UNK        -0.1800 
     49 N           3.3169  -13.7799  -46.9265 N.am      5 UNK        -0.5000 
     50 C           4.6370  -13.7758  -46.6949 C.2       4 UNK         0.5000 
     51 O           5.3760  -14.7338  -46.9256 O.2       4 UNK        -0.5000 
     52 CA          5.2484  -12.4815  -46.1186 C.3       4 UNK         0.1400 
     53 CB          5.8131  -11.6068  -47.2487 C.3       4 UNK        -0.1800 
     54 N           4.2921  -11.6912  -45.3439 N.am      4 UNK        -0.5000 
     55 C           3.8242  -12.0298  -44.1349 C.2       3 UNK         0.5000 
     56 O           4.2434  -12.9893  -43.4886 O.2       3 UNK        -0.5000 
     57 CA          2.6918  -11.1595  -43.5498 C.3       3 UNK         0.1400 
     58 CB          3.2436  -10.2205  -42.4658 C.3       3 UNK        -0.1800 
     59 N           1.9555  -10.3591  -44.5368 N.am      3 UNK        -0.5000 
     60 C           1.2493  -10.8423  -45.5673 C.2       2 UNK         0.5000 
     61 O           1.1871  -12.0400  -45.8552 O.2       2 UNK        -0.5000 
     62 CA          0.5702   -9.7992  -46.4708 C.3       2 UNK         0.1400 
     63 CB          1.5640   -9.2960  -47.5297 C.3       2 UNK        -0.1800 
     64 N          -0.6042  -10.3406  -47.1530 N.am      2 UNK        -0.5000 
     65 C          -1.7621  -10.6504  -46.5558 C.2       1 UNK         0.5000 
     66 O          -1.9783  -10.4870  -45.3514 O.2       1 UNK        -0.5000 
     67 C          -3.7212  -22.0602  -44.9628 C.2       11 UNK         0.5000 
     68 O          -4.8742  -21.7067  -45.2090 O.2       11 UNK        -0.5000 
     69 N          -3.4097  -23.1197  -44.2022 N.am      12 UNK        -0.5000 
     70 CA         -4.3777  -24.0004  -43.5555 C.3       12 UNK         0.1400 
     71 CB         -3.9957  -24.1628  -42.0752 C.3       12 UNK        -0.1800 
     72 C          -4.4385  -25.3694  -44.2499 C.2       12 UNK         0.5000 
     73 O          -5.5334  -25.8407  -44.5565 O.2       12 UNK        -0.5000 
     74 N          -3.2718  -25.9904  -44.4764 N.am      13 UNK        -0.5000 
     75 CA         -3.1518  -27.3613  -44.9762 C.3       13 UNK         0.1400 
     76 CB         -1.7302  -27.8798  -44.7063 C.3       13 UNK        -0.1800 
     77 C          -3.4990  -27.4930  -46.4672 C.2       13 UNK         0.5000 
     78 O          -4.1930  -28.4365  -46.8478 O.2       13 UNK        -0.5000 
     79 N          -3.0114  -26.5452  -47.2771 N.am      14 UNK        -0.5000 
     80 CA         -3.2441  -26.4944  -48.7229 C.3       14 UNK         0.1400 
     81 CB         -1.9261  -26.1135  -49.4185 C.3       14 UNK        -0.1800 
     82 C          -4.3738  -25.5121  -49.0902 C.2       14 UNK         0.5000 
     83 O          -4.8163  -25.5051  -50.2378 O.2       14 UNK        -0.5000 
     84 N          -4.8143  -24.7022  -48.1153 N.am      15 UNK        -0.5000 
     85 CA         -5.8120  -23.6356  -48.2263 C.3       15 UNK         0.1400 
     86 CB         -7.2208  -24.2191  -48.4587 C.3       15 UNK        -0.1800 
     87 C          -5.4086  -22.5325  -49.2300 C.2       15 UNK         0.5000 
     88 O          -6.2598  -22.0025  -49.9481 O.2       15 UNK        -0.5000 
     89 N          -4.1080  -22.1980  -49.2373 N.am      16 UNK        -0.5000 
     90 CA         -3.4718  -21.1188  -49.9948 C.3       16 UNK         0.1400 
     91 CB         -3.8697  -19.7549  -49.3844 C.3       16 UNK        -0.1800 
     92 C          -3.7377  -21.2177  -51.5136 C.2       16 UNK         0.5000 
     93 O          -3.2509  -22.1442  -52.1681 O.2       16 UNK        -0.5000 
     94 N          -4.5133  -20.2647  -52.0461 N.am      17 UNK        -0.5000 
     95 CA         -4.8794  -20.1312  -53.4542 C.3       17 UNK         0.1400 
     96 CB         -5.6483  -18.8156  -53.6440 C.3       17 UNK        -0.1800 
     97 C          -5.6845  -21.3164  -54.0198 C.2       17 UNK         0.5000 
     98 O          -5.6704  -21.5108  -55.2348 O.2       17 UNK        -0.5000 
     99 N          -6.3273  -22.1147  -53.1535 N.am      18 UNK        -0.5000 
    100 CA        -7.0506  -23.3343  -53.5289 C.3       18 UNK         0.1400 
    101 CB        -7.7835  -23.8857  -52.3000 C.3       18 UNK        -0.1800 
    102 C         -6.1410  -24.4212  -54.1384 C.2       18 UNK         0.5000 
    103 O         -6.5872  -25.1617  -55.0152 O.2       18 UNK        -0.5000 
    104 N         -4.8800  -24.4705  -53.6894 N.am      19 UNK        -0.5000 
    105 CA        -3.8263  -25.3352  -54.2254 C.3       19 UNK         0.1400 
    106 CB        -3.0443  -25.9306  -53.0461 C.3       19 UNK        -0.1800 
    107 C         -2.8740  -24.5702  -55.1653 C.2       19 UNK         0.5000 
    108 O         -1.8822  -25.1458  -55.6145 O.2       19 UNK        -0.5000 
    109 N         -3.1676  -23.2853  -55.4180 N.am      20 UNK        -0.5000 
    110 CA        -2.3560  -22.3094  -56.1506 C.3       20 UNK         0.1400 
    111 CB        -2.2321  -22.6962  -57.6388 C.3       20 UNK        -0.1800 
    112 C         -0.9912  -22.0313  -55.4832 C.2       20 UNK         0.5000 
    113 O         -0.0350  -21.6692  -56.1722 O.2       20 UNK        -0.5000 
    114 N         -0.9228  -22.1652  -54.1472 N.am      21 UNK        -0.5000 
    115 CA         0.2940  -21.9650  -53.3487 C.3       21 UNK         0.1400 
    116 CB         0.0427  -22.4324  -51.9064 C.3       21 UNK        -0.1800 
    117 C          0.8074  -20.5110  -53.3667 C.2       21 UNK         0.5000 
    118 O          1.9893  -20.2784  -53.1112 O.2       21 UNK        -0.5000 
    119 N         -0.0857  -19.5703  -53.6953 N.am      22 UNK        -0.5000 
    120 CA         0.2128  -18.1521  -53.9355 C.3       22 UNK         0.1400 
    121 C          0.9658  -17.8716  -55.2710 C.2       22 UNK         0.5000 
    122 N          1.1044  -18.8290  -56.1826 N.am      22 UNK        -0.7600 
    123 O          1.4394  -16.7588  -55.4829 O.2       22 UNK        -0.5000 
    124 C124       -1.0618  -17.2723  -53.8348 C.3       23 UNK        -0.0398 
    125 S125       -2.0016  -17.5450  -52.2954 S.3       23 UNK        -0.2404 
    126 C126       -1.1430  -16.4007  -51.1764 C.3       23 UNK        -0.0205 
    127 H127       -6.5015  -10.4125  -46.0264 H         1 UNK         0.0600 
    128 H128       -6.8258   -9.1252  -47.1908 H         1 UNK         0.0600 
    129 H129       -6.0788   -8.7432  -45.6356 H         1 UNK         0.0600 
    130 H130       -4.6956  -11.6229  -46.5344 H         1 UNK         0.3000 
    131 H131       -2.7303  -10.7618  -48.4529 H         1 UNK         0.0600 
    132 H132       -3.2656  -13.0342  -48.5733 H         1 UNK         0.0800 
    133 H133       -1.6592  -13.0184  -47.9157 H         1 UNK         0.0800 
    134 H134       -4.7138  -14.8620  -47.9105 H         1 UNK         0.0800 
    135 H135       -4.5676  -15.8097  -46.4546 H         1 UNK         0.0800 
    136 H136       -3.0367  -15.0854  -49.7236 H         1 UNK         0.1150 
    137 H137       -0.1809  -18.2604  -49.4560 H         1 UNK         0.1150 
    138 H138       -2.6175  -17.2583  -46.0639 H         1 UNK         0.1150 
    139 H139        0.4487  -18.9727  -47.1470 H         1 UNK         0.0800 
    140 H140       -0.9432  -19.9834  -47.3498 H         1 UNK         0.0800 
    141 H141       -2.1986  -20.2509  -43.6586 H         1 UNK         0.0800 
    142 H142       -3.1350  -19.3129  -44.7860 H         1 UNK         0.0800 
    143 H143       -2.8665  -20.9390  -46.5514 H         1 UNK         0.0600 
    144 H144       -0.5856  -21.9106  -45.0907 H         1 UNK         0.3000 
    145 H145       -0.2251  -24.9431  -46.8519 H         1 UNK         0.0600 
    146 H146        0.4411  -23.4476  -48.7454 H         1 UNK         0.0600 
    147 H147        1.8467  -24.0458  -47.8804 H         1 UNK         0.0600 
    148 H148        1.2910  -22.3909  -47.6239 H         1 UNK         0.0600 
    149 H149        1.7273  -23.4895  -45.4300 H         1 UNK         0.3000 
    150 H150        0.6768  -24.0736  -42.1052 H         1 UNK         0.0600 
    151 H151        2.9292  -25.3814  -43.7259 H         1 UNK         0.0600 
    152 H152        1.7146  -26.2436  -42.7890 H         1 UNK         0.0600 
    153 H153        2.8753  -25.2102  -41.9710 H         1 UNK         0.0600 
    154 H154        3.0657  -22.9510  -43.1372 H         1 UNK         0.3000 
    155 H155        3.3532  -20.6193  -42.6992 H         1 UNK         0.0600 
    156 H156        3.4940  -19.4354  -44.9232 H         1 UNK         0.0600 
    157 H157        1.9885  -20.1991  -45.4222 H         1 UNK         0.0600 
    158 H158        3.4156  -21.1794  -45.1160 H         1 UNK         0.0600 
    159 H159        1.2347  -18.7503  -43.5581 H         1 UNK         0.3000 
    160 H160       -0.1623  -18.1069  -40.9098 H         1 UNK         0.0600 
    161 H161        2.2380  -16.2666  -40.4485 H         1 UNK         0.0600 
    162 H162        1.4237  -17.2575  -39.2488 H         1 UNK         0.0600 
    163 H163        0.5788  -15.9018  -39.9751 H         1 UNK         0.0600 
    164 H164       -0.6592  -16.9611  -42.6986 H         1 UNK         0.3000 
    165 H165       -0.4455  -15.9955  -44.7766 H         1 UNK         0.0600 
    166 H166       -0.9299  -13.5238  -44.5138 H         1 UNK         0.0600 
    167 H167       -1.1751  -14.4157  -43.0210 H         1 UNK         0.0600 
    168 H168        0.2735  -13.4424  -43.2350 H         1 UNK         0.0600 
    169 H169        1.1759  -13.8520  -45.5840 H         1 UNK         0.3000 
    170 H170        3.2364  -15.6461  -47.9043 H         1 UNK         0.0600 
    171 H171        2.1003  -13.9819  -49.3513 H         1 UNK         0.0600 
    172 H172        0.8706  -13.7077  -48.1186 H         1 UNK         0.0600 
    173 H173        0.9943  -15.2735  -48.9091 H         1 UNK         0.0600 
    174 H174        2.7685  -12.9729  -46.6516 H         1 UNK         0.3000 
    175 H175        6.0733  -12.7673  -45.4623 H         1 UNK         0.0600 
    176 H176        6.5514  -12.1553  -47.8351 H         1 UNK         0.0600 
    177 H177        5.0298  -11.2772  -47.9326 H         1 UNK         0.0600 
    178 H178        6.3086  -10.7205  -46.8520 H         1 UNK         0.0600 
    179 H179        3.9086  -10.8729  -45.7920 H         1 UNK         0.3000 
    180 H180        1.9794  -11.8382  -43.0787 H         1 UNK         0.0600 
    181 H181        3.9449   -9.4958  -42.8813 H         1 UNK         0.0600 
    182 H182        3.7708  -10.7813  -41.6927 H         1 UNK         0.0600 
    183 H183        2.4416   -9.6699  -41.9738 H         1 UNK         0.0600 
    184 H184        1.9752   -9.3596  -44.3927 H         1 UNK         0.3000 
    185 H185        0.2518   -8.9551  -45.8554 H         1 UNK         0.0600 
    186 H186        2.4409   -8.8440  -47.0643 H         1 UNK         0.0600 
    187 H187        1.9140  -10.1060  -48.1714 H         1 UNK         0.0600 
    188 H188        1.1108   -8.5358  -48.1664 H         1 UNK         0.0600 
    189 H189       -0.4951  -10.5257  -48.1390 H         1 UNK         0.3000 
    190 H190       -2.4330  -23.3578  -44.0818 H         1 UNK         0.3000 
    191 H191       -5.3783  -23.5645  -43.5944 H         1 UNK         0.0600 
    192 H192       -4.0235  -23.2043  -41.5567 H         1 UNK         0.0600 
    193 H193       -4.6901  -24.8298  -41.5626 H         1 UNK         0.0600 
    194 H194       -2.9931  -24.5761  -41.9567 H         1 UNK         0.0600 
    195 H195       -2.4007  -25.5364  -44.2086 H         1 UNK         0.3000 
    196 H196       -3.8485  -27.9887  -44.4158 H         1 UNK         0.0600 
    197 H197       -1.6269  -28.9184  -45.0228 H         1 UNK         0.0600 
    198 H198       -1.4906  -27.8381  -43.6437 H         1 UNK         0.0600 
    199 H199       -0.9785  -27.2979  -45.2409 H         1 UNK         0.0600 
    200 H200       -2.4655  -25.7951  -46.8797 H         1 UNK         0.3000 
    201 H201       -3.5376  -27.4805  -49.0888 H         1 UNK         0.0600 
    202 H202       -1.9907  -26.2964  -50.4892 H         1 UNK         0.0600 
    203 H203       -1.0924  -26.7089  -49.0460 H         1 UNK         0.0600 
    204 H204       -1.6750  -25.0621  -49.2843 H         1 UNK         0.0600 
    205 H205       -4.3650  -24.7849  -47.2160 H         1 UNK         0.3000 
    206 H206       -5.8333  -23.1431  -47.2543 H         1 UNK         0.0600 
    207 H207       -7.5091  -24.8713  -47.6343 H         1 UNK         0.0600 
    208 H208       -7.9717  -23.4308  -48.5225 H         1 UNK         0.0600 
    209 H209       -7.2779  -24.8047  -49.3743 H         1 UNK         0.0600 
    210 H210       -3.4824  -22.7294  -48.6370 H         1 UNK         0.3000 
    211 H211       -2.3965  -21.2383  -49.8602 H         1 UNK         0.0600 
    212 H212       -4.9466  -19.5859  -49.4090 H         1 UNK         0.0600 
    213 H213       -3.3925  -18.9301  -49.9132 H         1 UNK         0.0600 
    214 H214       -3.5569  -19.6839  -48.3444 H         1 UNK         0.0600 
    215 H215       -4.8828  -19.5611  -51.4238 H         1 UNK         0.3000 
    216 H216       -3.9519  -20.0682  -54.0266 H         1 UNK         0.0600 
    217 H217       -5.9110  -18.6627  -54.6917 H         1 UNK         0.0600 
    218 H218       -6.5743  -18.8051  -53.0677 H         1 UNK         0.0600 
    219 H219       -5.0486  -17.9596  -53.3336 H         1 UNK         0.0600 
    220 H220       -6.2771  -21.9029  -52.1629 H         1 UNK         0.3000 
    221 H221       -7.7954  -23.0624  -54.2796 H         1 UNK         0.0600 
    222 H222       -7.0740  -24.2084  -51.5391 H         1 UNK         0.0600 
    223 H223       -8.4396  -23.1373  -51.8552 H         1 UNK         0.0600 
    224 H224       -8.3979  -24.7476  -52.5632 H         1 UNK         0.0600 
    225 H225       -4.5961  -23.8240  -52.9625 H         1 UNK         0.3000 
    226 H226       -4.2583  -26.1573  -54.7991 H         1 UNK         0.0600 
    227 H227       -2.2346  -26.5770  -53.3867 H         1 UNK         0.0600 
    228 H228       -2.6055  -25.1455  -52.4288 H         1 UNK         0.0600 
    229 H229       -3.6930  -26.5372  -52.4149 H         1 UNK         0.0600 
    230 H230       -4.0370  -22.9263  -55.0451 H         1 UNK         0.3000 
    231 H231       -2.9055  -21.3684  -56.1056 H         1 UNK         0.0600 
    232 H232       -1.6229  -23.5895  -57.7780 H         1 UNK         0.0600 
    233 H233       -1.7688  -21.8938  -58.2141 H         1 UNK         0.0600 
    234 H234       -3.2112  -22.8848  -58.0794 H         1 UNK         0.0600 
    235 H235       -1.7589  -22.4212  -53.6334 H         1 UNK         0.3000 
    236 H236        1.0763  -22.5940  -53.7783 H         1 UNK         0.0600 
    237 H237       -0.6664  -21.7838  -51.3941 H         1 UNK         0.0600 
    238 H238       -0.3483  -23.4498  -51.8776 H         1 UNK         0.0600 
    239 H239        0.9673  -22.4219  -51.3279 H         1 UNK         0.0600 
    240 H240       -1.0368  -19.8580  -53.8645 H         1 UNK         0.3000 
    241 H241        0.8922  -17.8320  -53.1436 H         1 UNK         0.0600 
    242 H242        0.7284  -19.7590  -56.0366 H         1 UNK         0.3800 
    243 H243        1.5985  -18.6254  -57.0369 H         1 UNK         0.3800 
    244 H244       -1.7307  -17.4821  -54.6712 H         1 UNK         0.0800 
    245 H245       -0.8081  -16.2133  -53.9099 H         1 UNK         0.0800 
    246 H246       -0.0640  -16.5319  -51.2682 H         1 UNK         0.0800 
    247 H247       -1.3571  -15.3722  -51.4713 H         1 UNK         0.0800 
@<TRIPOS>BOND
     1    1    2 1    
     2    1  127 1    
     3    1  128 1    
     4    1  129 1    
     5    2    3 2    
     6    2    4 am   BACKBONE|DICT|INTERRES
     7    4    5 1    
     8    4  130 1    
     9    5    6 1    
    10    5   65 1    
    11    5  131 1    
    12    6    7 1    
    13    6  132 1    
    14    6  133 1    
    15    7    8 1    
    16    8    9 1    
    17    8  134 1    
    18    8  135 1    
    19    9   10 ar   
    20    9   14 ar   
    21   10   11 ar   
    22   10  136 1    
    23   11   12 ar   
    24   11  126 1    
    25   12   13 ar   
    26   12  137 1    
    27   13   14 ar   
    28   13   15 1    
    29   14  138 1    
    30   15   16 1    
    31   15  139 1    
    32   15  140 1    
    33   16   17 1    
    34   17   18 1    
    35   17  141 1    
    36   17  142 1    
    37   18   19 1    
    38   18   67 1    
    39   18  143 1    
    40   19   20 am   BACKBONE|DICT|INTERRES
    41   19  144 1    
    42   20   21 2    
    43   20   22 1    
    44   22   23 1    
    45   22   24 1    
    46   22  145 1    
    47   23  146 1    
    48   23  147 1    
    49   23  148 1    
    50   24   25 am   BACKBONE|DICT|INTERRES
    51   24  149 1    
    52   25   26 2    
    53   25   27 1    
    54   27   28 1    
    55   27   29 1    
    56   27  150 1    
    57   28  151 1    
    58   28  152 1    
    59   28  153 1    
    60   29   30 am   BACKBONE|DICT|INTERRES
    61   29  154 1    
    62   30   31 2    
    63   30   32 1    
    64   32   33 1    
    65   32   34 1    
    66   32  155 1    
    67   33  156 1    
    68   33  157 1    
    69   33  158 1    
    70   34   35 am   BACKBONE|DICT|INTERRES
    71   34  159 1    
    72   35   36 2    
    73   35   37 1    
    74   37   38 1    
    75   37   39 1    
    76   37  160 1    
    77   38  161 1    
    78   38  162 1    
    79   38  163 1    
    80   39   40 am   BACKBONE|DICT|INTERRES
    81   39  164 1    
    82   40   41 2    
    83   40   42 1    
    84   42   43 1    
    85   42   44 1    
    86   42  165 1    
    87   43  166 1    
    88   43  167 1    
    89   43  168 1    
    90   44   45 am   BACKBONE|DICT|INTERRES
    91   44  169 1    
    92   45   46 2    
    93   45   47 1    
    94   47   48 1    
    95   47   49 1    
    96   47  170 1    
    97   48  171 1    
    98   48  172 1    
    99   48  173 1    
   100   49   50 am   BACKBONE|DICT|INTERRES
   101   49  174 1    
   102   50   51 2    
   103   50   52 1    
   104   52   53 1    
   105   52   54 1    
   106   52  175 1    
   107   53  176 1    
   108   53  177 1    
   109   53  178 1    
   110   54   55 am   BACKBONE|DICT|INTERRES
   111   54  179 1    
   112   55   56 2    
   113   55   57 1    
   114   57   58 1    
   115   57   59 1    
   116   57  180 1    
   117   58  181 1    
   118   58  182 1    
   119   58  183 1    
   120   59   60 am   BACKBONE|DICT|INTERRES
   121   59  184 1    
   122   60   61 2    
   123   60   62 1    
   124   62   63 1    
   125   62   64 1    
   126   62  185 1    
   127   63  186 1    
   128   63  187 1    
   129   63  188 1    
   130   64   65 am   BACKBONE|DICT|INTERRES
   131   64  189 1    
   132   65   66 2    
   133   67   68 2    
   134   67   69 am   BACKBONE|DICT|INTERRES
   135   69   70 1    
   136   69  190 1    
   137   70   71 1    
   138   70   72 1    
   139   70  191 1    
   140   71  192 1    
   141   71  193 1    
   142   71  194 1    
   143   72   73 2    
   144   72   74 am   BACKBONE|DICT|INTERRES
   145   74   75 1    
   146   74  195 1    
   147   75   76 1    
   148   75   77 1    
   149   75  196 1    
   150   76  197 1    
   151   76  198 1    
   152   76  199 1    
   153   77   78 2    
   154   77   79 am   BACKBONE|DICT|INTERRES
   155   79   80 1    
   156   79  200 1    
   157   80   81 1    
   158   80   82 1    
   159   80  201 1    
   160   81  202 1    
   161   81  203 1    
   162   81  204 1    
   163   82   83 2    
   164   82   84 am   BACKBONE|DICT|INTERRES
   165   84   85 1    
   166   84  205 1    
   167   85   86 1    
   168   85   87 1    
   169   85  206 1    
   170   86  207 1    
   171   86  208 1    
   172   86  209 1    
   173   87   88 2    
   174   87   89 am   BACKBONE|DICT|INTERRES
   175   89   90 1    
   176   89  210 1    
   177   90   91 1    
   178   90   92 1    
   179   90  211 1    
   180   91  212 1    
   181   91  213 1    
   182   91  214 1    
   183   92   93 2    
   184   92   94 am   BACKBONE|DICT|INTERRES
   185   94   95 1    
   186   94  215 1    
   187   95   96 1    
   188   95   97 1    
   189   95  216 1    
   190   96  217 1    
   191   96  218 1    
   192   96  219 1    
   193   97   98 2    
   194   97   99 am   BACKBONE|DICT|INTERRES
   195   99  100 1    
   196   99  220 1    
   197  100  101 1    
   198  100  102 1    
   199  100  221 1    
   200  101  222 1    
   201  101  223 1    
   202  101  224 1    
   203  102  103 2    
   204  102  104 am   BACKBONE|DICT|INTERRES
   205  104  105 1    
   206  104  225 1    
   207  105  106 1    
   208  105  107 1    
   209  105  226 1    
   210  106  227 1    
   211  106  228 1    
   212  106  229 1    
   213  107  108 2    
   214  107  109 am   BACKBONE|DICT|INTERRES
   215  109  110 1    
   216  109  230 1    
   217  110  111 1    
   218  110  112 1    
   219  110  231 1    
   220  111  232 1    
   221  111  233 1    
   222  111  234 1    
   223  112  113 2    
   224  112  114 am   BACKBONE|DICT|INTERRES
   225  114  115 1    
   226  114  235 1    
   227  115  116 1    
   228  115  117 1    
   229  115  236 1    
   230  116  237 1    
   231  116  238 1    
   232  116  239 1    
   233  117  118 2    
   234  117  119 am   BACKBONE|DICT|INTERRES
   235  119  120 1    
   236  119  240 1    
   237  120  121 1    
   238  120  124 1    
   239  120  241 1    
   240  121  122 am   BACKBONE|DICT|INTERRES
   241  121  123 2    
   242  122  242 1    
   243  122  243 1    
   244  124  125 1    
   245  124  244 1    
   246  124  245 1    
   247  125  126 1    
   248  126  246 1    
   249  126  247 1    
@<TRIPOS>SUBSTRUCTURE
     1 UNK         1 GROUP             0       ****    0 ROOT    
