@<TRIPOS>MOLECULE
3R540
247   249    1
SMALL
USER_CHARGES


@<TRIPOS>ATOM
      1 CA         -4.0664  -14.3722  -47.7075 C.3       0 UNK        -0.1800 
      2 C          -3.3181  -13.0801  -47.9930 C.2       0 UNK         0.5000 
      3 O          -3.7125  -12.0210  -47.5054 O.2       0 UNK        -0.5000 
      4 N          -2.2424  -13.1638  -48.7862 N.am      1 UNK        -0.5000 
      5 CA         -1.4302  -12.0204  -49.2246 C.3       1 UNK         0.1400 
      6 C6         -0.5518  -12.3765  -50.4492 C.3       23 UNK        -0.0398 
      7 S7         -1.5582  -12.5509  -51.9621 S.3       23 UNK        -0.2404 
      8 C8         -1.0257  -14.1632  -52.6169 C.3       23 UNK        -0.0205 
      9 C9         -1.6814  -15.3340  -51.8999 C.ar      23 UNK        -0.0193 
     10 C10        -3.0602  -15.5410  -52.0095 C.ar      23 UNK        -0.1150 
     11 C11        -3.6667  -16.6453  -51.4027 C.ar      23 UNK        -0.0193 
     12 C12        -2.8811  -17.5465  -50.6828 C.ar      23 UNK        -0.1150 
     13 C13        -1.5022  -17.3495  -50.5654 C.ar      23 UNK        -0.0193 
     14 C14        -0.9070  -16.2404  -51.1711 C.ar      23 UNK        -0.1150 
     15 C15        -0.6578  -18.3511  -49.7984 C.3       23 UNK        -0.0205 
     16 S16        -0.2407  -17.7972  -48.1180 S.3       23 UNK        -0.2404 
     17 C17        -1.8702  -17.4045  -47.4047 C.3       23 UNK        -0.0398 
     18 CA         -2.7259  -18.6432  -47.0327 C.3       11 UNK         0.1400 
     19 N          -2.0518  -19.5430  -46.0798 N.am      11 UNK        -0.5000 
     20 C          -2.4667  -20.7797  -45.7558 C.2       10 UNK         0.5000 
     21 O          -3.5315  -21.2573  -46.1484 O.2       10 UNK        -0.5000 
     22 CA         -1.5862  -21.6027  -44.7904 C.3       10 UNK         0.1400 
     23 CB         -1.7854  -23.1243  -44.9578 C.3       10 UNK        -0.1800 
     24 N          -0.1639  -21.2596  -44.8410 N.am      10 UNK        -0.5000 
     25 C           0.6659  -21.3729  -45.8892 C.2       9 UNK         0.5000 
     26 O           0.3227  -21.8084  -46.9859 O.2       9 UNK        -0.5000 
     27 CA          2.1268  -20.9346  -45.6736 C.3       9 UNK         0.1400 
     28 CB          2.6004  -19.9691  -46.7731 C.3       9 UNK        -0.1800 
     29 N           2.3020  -20.2882  -44.3710 N.am      9 UNK        -0.5000 
     30 C           3.0524  -20.7613  -43.3706 C.2       8 UNK         0.5000 
     31 O           3.7238  -21.7911  -43.4437 O.2       8 UNK        -0.5000 
     32 CA          3.0579  -19.9541  -42.0602 C.3       8 UNK         0.1400 
     33 CB          4.1695  -18.8938  -42.0908 C.3       8 UNK        -0.1800 
     34 N           1.7840  -19.3083  -41.7272 N.am      8 UNK        -0.5000 
     35 C           0.6647  -19.9589  -41.3761 C.2       7 UNK         0.5000 
     36 O           0.5211  -21.1764  -41.4838 O.2       7 UNK        -0.5000 
     37 CA         -0.4812  -19.1122  -40.7956 C.3       7 UNK         0.1400 
     38 CB         -0.0996  -18.5450  -39.4187 C.3       7 UNK        -0.1800 
     39 N          -0.8235  -18.0119  -41.6887 N.am      7 UNK        -0.5000 
     40 C          -1.8180  -18.0408  -42.5853 C.2       6 UNK         0.5000 
     41 O          -2.6195  -18.9678  -42.7050 O.2       6 UNK        -0.5000 
     42 CA         -1.8998  -16.8546  -43.5640 C.3       6 UNK         0.1400 
     43 CB         -2.8160  -15.7490  -43.0233 C.3       6 UNK        -0.1800 
     44 N          -0.5967  -16.2889  -43.9200 N.am      6 UNK        -0.5000 
     45 C           0.4370  -16.9770  -44.4266 C.2       5 UNK         0.5000 
     46 O           0.3830  -18.1723  -44.7147 O.2       5 UNK        -0.5000 
     47 CA          1.7719  -16.2272  -44.5744 C.3       5 UNK         0.1400 
     48 CB          1.9071  -15.6223  -45.9780 C.3       5 UNK        -0.1800 
     49 N           1.9564  -15.1774  -43.5698 N.am      5 UNK        -0.5000 
     50 C           2.0561  -15.3809  -42.2474 C.2       4 UNK         0.5000 
     51 O           1.9709  -16.4872  -41.7136 O.2       4 UNK        -0.5000 
     52 CA          2.2247  -14.1235  -41.3789 C.3       4 UNK         0.1400 
     53 CB          3.6536  -13.5695  -41.4857 C.3       4 UNK        -0.1800 
     54 N           1.2646  -13.0876  -41.7590 N.am      4 UNK        -0.5000 
     55 C          -0.0494  -13.1568  -41.5034 C.2       3 UNK         0.5000 
     56 O          -0.5657  -14.0448  -40.8257 O.2       3 UNK        -0.5000 
     57 CA         -0.9400  -12.0676  -42.1299 C.3       3 UNK         0.1400 
     58 CB         -1.1332  -10.9005  -41.1501 C.3       3 UNK        -0.1800 
     59 N          -0.4231  -11.5501  -43.4009 N.am      3 UNK        -0.5000 
     60 C          -0.3474  -12.2563  -44.5361 C.2       2 UNK         0.5000 
     61 O          -0.6699  -13.4428  -44.6323 O.2       2 UNK        -0.5000 
     62 CA          0.2162  -11.5237  -45.7584 C.3       2 UNK         0.1400 
     63 CB          1.7454  -11.6724  -45.8400 C.3       2 UNK        -0.1800 
     64 N          -0.4119  -12.0593  -46.9622 N.am      2 UNK        -0.5000 
     65 C          -0.5891  -11.3739  -48.0984 C.2       1 UNK         0.5000 
     66 O          -0.1318  -10.2435  -48.2775 O.2       1 UNK        -0.5000 
     67 C          -4.1494  -18.1997  -46.6115 C.2       11 UNK         0.5000 
     68 O          -4.8403  -17.5683  -47.4107 O.2       11 UNK        -0.5000 
     69 N          -4.5791  -18.5301  -45.3836 N.am      12 UNK        -0.5000 
     70 CA         -5.9665  -18.4142  -44.9323 C.3       12 UNK         0.1400 
     71 CB         -6.0197  -18.6598  -43.4169 C.3       12 UNK        -0.1800 
     72 C          -6.9160  -19.3842  -45.6698 C.2       12 UNK         0.5000 
     73 O          -8.1052  -19.0874  -45.7929 O.2       12 UNK        -0.5000 
     74 N          -6.3758  -20.5104  -46.1533 N.am      13 UNK        -0.5000 
     75 CA         -7.0408  -21.4539  -47.0461 C.3       13 UNK         0.1400 
     76 CB         -6.6423  -22.8794  -46.6272 C.3       13 UNK        -0.1800 
     77 C          -6.6142  -21.1807  -48.4997 C.2       13 UNK         0.5000 
     78 O          -5.6635  -20.4349  -48.7444 O.2       13 UNK        -0.5000 
     79 N          -7.2964  -21.8260  -49.4531 N.am      14 UNK        -0.5000 
     80 CA         -6.9878  -21.7734  -50.8853 C.3       14 UNK         0.1400 
     81 CB         -8.2636  -22.1049  -51.6802 C.3       14 UNK        -0.1800 
     82 C          -5.7980  -22.6884  -51.2550 C.2       14 UNK         0.5000 
     83 O          -5.9247  -23.5526  -52.1227 O.2       14 UNK        -0.5000 
     84 N          -4.6675  -22.4988  -50.5717 N.am      15 UNK        -0.5000 
     85 CA         -3.4221  -23.2355  -50.7335 C.3       15 UNK         0.1400 
     86 CB         -3.4833  -24.5527  -49.9401 C.3       15 UNK        -0.1800 
     87 C          -2.2656  -22.3507  -50.2557 C.2       15 UNK         0.5000 
     88 O          -2.4923  -21.4157  -49.4875 O.2       15 UNK        -0.5000 
     89 N          -1.0539  -22.6760  -50.7113 N.am      16 UNK        -0.5000 
     90 CA          0.1887  -21.9690  -50.4013 C.3       16 UNK         0.1400 
     91 CB          0.6562  -21.2226  -51.6640 C.3       16 UNK        -0.1800 
     92 C           1.2630  -22.9348  -49.8696 C.2       16 UNK         0.5000 
     93 O           2.4529  -22.6238  -49.9478 O.2       16 UNK        -0.5000 
     94 N           0.8307  -24.1051  -49.3730 N.am      17 UNK        -0.5000 
     95 CA          1.6007  -25.2290  -48.8204 C.3       17 UNK         0.1400 
     96 CB          2.4388  -24.7992  -47.6007 C.3       17 UNK        -0.1800 
     97 C           2.4561  -25.9713  -49.8657 C.2       17 UNK         0.5000 
     98 O           2.3821  -27.1972  -49.9527 O.2       17 UNK        -0.5000 
     99 N           3.2169  -25.2178  -50.6666 N.am      18 UNK        -0.5000 
    100 CA         3.9743  -25.6959  -51.8232 C.3       18 UNK         0.1400 
    101 CB         5.0567  -24.6593  -52.1619 C.3       18 UNK        -0.1800 
    102 C          3.0805  -25.9629  -53.0520 C.2       18 UNK         0.5000 
    103 O          3.5140  -26.6552  -53.9739 O.2       18 UNK        -0.5000 
    104 N          1.8597  -25.4148  -53.0480 N.am      19 UNK        -0.5000 
    105 CA         0.8414  -25.5879  -54.0747 C.3       19 UNK         0.1400 
    106 CB         0.9492  -24.4508  -55.1044 C.3       19 UNK        -0.1800 
    107 C         -0.5368  -25.5792  -53.4042 C.2       19 UNK         0.5000 
    108 O         -0.7193  -24.9091  -52.3836 O.2       19 UNK        -0.5000 
    109 N         -1.4939  -26.2834  -54.0159 N.am      20 UNK        -0.5000 
    110 CA        -2.8922  -26.3651  -53.5885 C.3       20 UNK         0.1400 
    111 CB        -3.3980  -27.8001  -53.8227 C.3       20 UNK        -0.1800 
    112 C         -3.7571  -25.3047  -54.3025 C.2       20 UNK         0.5000 
    113 O         -4.8600  -25.6075  -54.7609 O.2       20 UNK        -0.5000 
    114 N         -3.2274  -24.0821  -54.4029 N.am      21 UNK        -0.5000 
    115 CA        -3.8803  -22.9032  -54.9550 C.3       21 UNK         0.1400 
    116 CB        -3.7427  -22.9018  -56.4883 C.3       21 UNK        -0.1800 
    117 C         -3.2282  -21.6567  -54.3402 C.2       21 UNK         0.5000 
    118 O         -2.1133  -21.7448  -53.8189 O.2       21 UNK        -0.5000 
    119 N         -3.9297  -20.5225  -54.4249 N.am      22 UNK        -0.5000 
    120 CA        -3.4238  -19.1917  -54.0542 C.3       22 UNK         0.1400 
    121 C         -2.2878  -18.6963  -54.9927 C.2       22 UNK         0.5000 
    122 N         -1.3682  -17.8890  -54.4813 N.am      22 UNK        -0.7600 
    123 O         -2.2568  -18.9979  -56.1840 O.2       22 UNK        -0.5000 
    124 C124       -4.5795  -18.1591  -54.0035 C.3       23 UNK        -0.0398 
    125 S125       -5.5824  -18.3710  -52.4938 S.3       23 UNK        -0.2404 
    126 C126       -5.1674  -16.8716  -51.5367 C.3       23 UNK        -0.0205 
    127 H127       -5.1279  -14.1743  -47.5586 H         1 UNK         0.0600 
    128 H128       -3.6779  -14.8434  -46.8046 H         1 UNK         0.0600 
    129 H129       -3.9745  -15.0729  -48.5377 H         1 UNK         0.0600 
    130 H130       -1.9826  -14.0579  -49.1776 H         1 UNK         0.3000 
    131 H131       -2.1255  -11.2383  -49.5386 H         1 UNK         0.0600 
    132 H132        0.1797  -11.5917  -50.6511 H         1 UNK         0.0800 
    133 H133        0.0225  -13.2852  -50.2616 H         1 UNK         0.0800 
    134 H134        0.0625  -14.2329  -52.5772 H         1 UNK         0.0800 
    135 H135       -1.2924  -14.2124  -53.6735 H         1 UNK         0.0800 
    136 H136       -3.6581  -14.8434  -52.5793 H         1 UNK         0.1150 
    137 H137       -3.3474  -18.4060  -50.2199 H         1 UNK         0.1150 
    138 H138        0.1608  -16.0944  -51.0848 H         1 UNK         0.1150 
    139 H139       -1.1804  -19.3017  -49.7342 H         1 UNK         0.0800 
    140 H140        0.2663  -18.5459  -50.3436 H         1 UNK         0.0800 
    141 H141       -2.3990  -16.7654  -48.1091 H         1 UNK         0.0800 
    142 H142       -1.6984  -16.7733  -46.5356 H         1 UNK         0.0800 
    143 H143       -2.8705  -19.2241  -47.9449 H         1 UNK         0.0600 
    144 H144       -1.1594  -19.2236  -45.7184 H         1 UNK         0.3000 
    145 H145       -1.9186  -21.3422  -43.7851 H         1 UNK         0.0600 
    146 H146       -1.1549  -23.6837  -44.2668 H         1 UNK         0.0600 
    147 H147       -2.8185  -23.4090  -44.7548 H         1 UNK         0.0600 
    148 H148       -1.5505  -23.4540  -45.9705 H         1 UNK         0.0600 
    149 H149        0.2267  -20.9018  -43.9809 H         1 UNK         0.3000 
    150 H150        2.7303  -21.8418  -45.7417 H         1 UNK         0.0600 
    151 H151        2.4697  -20.4021  -47.7659 H         1 UNK         0.0600 
    152 H152        3.6586  -19.7348  -46.6587 H         1 UNK         0.0600 
    153 H153        2.0479  -19.0309  -46.7464 H         1 UNK         0.0600 
    154 H154        1.7532  -19.4448  -44.2314 H         1 UNK         0.3000 
    155 H155        3.2878  -20.6532  -41.2533 H         1 UNK         0.0600 
    156 H156        5.1412  -19.3504  -42.2835 H         1 UNK         0.0600 
    157 H157        4.2407  -18.3689  -41.1379 H         1 UNK         0.0600 
    158 H158        3.9963  -18.1507  -42.8693 H         1 UNK         0.0600 
    159 H159        1.8137  -18.2946  -41.6371 H         1 UNK         0.3000 
    160 H160       -1.3448  -19.7664  -40.6570 H         1 UNK         0.0600 
    161 H161        0.7423  -17.8541  -39.4807 H         1 UNK         0.0600 
    162 H162        0.1795  -19.3438  -38.7305 H         1 UNK         0.0600 
    163 H163       -0.9366  -18.0085  -38.9715 H         1 UNK         0.0600 
    164 H164       -0.1903  -17.2226  -41.6964 H         1 UNK         0.3000 
    165 H165       -2.3496  -17.2315  -44.4769 H         1 UNK         0.0600 
    166 H166       -2.9079  -14.9275  -43.7342 H         1 UNK         0.0600 
    167 H167       -3.8202  -16.1303  -42.8383 H         1 UNK         0.0600 
    168 H168       -2.4447  -15.3426  -42.0836 H         1 UNK         0.0600 
    169 H169       -0.4884  -15.2877  -43.7982 H         1 UNK         0.3000 
    170 H170        2.5739  -16.9555  -44.4423 H         1 UNK         0.0600 
    171 H171        1.9228  -16.4059  -46.7350 H         1 UNK         0.0600 
    172 H172        1.0783  -14.9540  -46.2140 H         1 UNK         0.0600 
    173 H173        2.8369  -15.0633  -46.0818 H         1 UNK         0.0600 
    174 H174        1.9948  -14.2308  -43.9135 H         1 UNK         0.3000 
    175 H175        2.0457  -14.4051  -40.3388 H         1 UNK         0.0600 
    176 H176        4.3866  -14.3270  -41.2047 H         1 UNK         0.0600 
    177 H177        3.8903  -13.2436  -42.4993 H         1 UNK         0.0600 
    178 H178        3.7956  -12.7188  -40.8190 H         1 UNK         0.0600 
    179 H179        1.6107  -12.3115  -42.3028 H         1 UNK         0.3000 
    180 H180       -1.9170  -12.5166  -42.3224 H         1 UNK         0.0600 
    181 H181       -0.1915  -10.3937  -40.9357 H         1 UNK         0.0600 
    182 H182       -1.5410  -11.2509  -40.2009 H         1 UNK         0.0600 
    183 H183       -1.8298  -10.1624  -41.5481 H         1 UNK         0.0600 
    184 H184       -0.1313  -10.5831  -43.4041 H         1 UNK         0.3000 
    185 H185       -0.0369  -10.4655  -45.6622 H         1 UNK         0.0600 
    186 H186        2.2261  -11.3033  -44.9333 H         1 UNK         0.0600 
    187 H187        2.0436  -12.7114  -45.9724 H         1 UNK         0.0600 
    188 H188        2.1523  -11.1022  -46.6751 H         1 UNK         0.0600 
    189 H189       -0.8476  -12.9652  -46.8477 H         1 UNK         0.3000 
    190 H190       -3.9523  -19.0407  -44.7769 H         1 UNK         0.3000 
    191 H191       -6.3082  -17.3961  -45.1301 H         1 UNK         0.0600 
    192 H192       -5.6611  -19.6572  -43.1590 H         1 UNK         0.0600 
    193 H193       -7.0398  -18.5693  -43.0415 H         1 UNK         0.0600 
    194 H194       -5.4104  -17.9366  -42.8760 H         1 UNK         0.0600 
    195 H195       -5.3697  -20.6379  -46.0788 H         1 UNK         0.3000 
    196 H196       -8.1254  -21.3518  -46.9736 H         1 UNK         0.0600 
    197 H197       -7.1578  -23.6283  -47.2293 H         1 UNK         0.0600 
    198 H198       -6.8997  -23.0697  -45.5851 H         1 UNK         0.0600 
    199 H199       -5.5705  -23.0478  -46.7422 H         1 UNK         0.0600 
    200 H200       -8.0414  -22.4517  -49.1826 H         1 UNK         0.3000 
    201 H201       -6.6981  -20.7540  -51.1445 H         1 UNK         0.0600 
    202 H202       -9.0700  -21.4127  -51.4374 H         1 UNK         0.0600 
    203 H203       -8.6153  -23.1167  -51.4749 H         1 UNK         0.0600 
    204 H204       -8.0861  -22.0286  -52.7538 H         1 UNK         0.0600 
    205 H205       -4.6225  -21.7403  -49.8933 H         1 UNK         0.3000 
    206 H206       -3.2682  -23.4531  -51.7893 H         1 UNK         0.0600 
    207 H207       -3.6322  -24.3702  -48.8749 H         1 UNK         0.0600 
    208 H208       -4.2980  -25.1875  -50.2887 H         1 UNK         0.0600 
    209 H209       -2.5599  -25.1220  -50.0527 H         1 UNK         0.0600 
    210 H210       -0.9605  -23.4696  -51.3448 H         1 UNK         0.3000 
    211 H211        0.0267  -21.2411  -49.6059 H         1 UNK         0.0600 
    212 H212        1.5473  -20.6262  -51.4654 H         1 UNK         0.0600 
    213 H213       -0.1151  -20.5424  -52.0266 H         1 UNK         0.0600 
    214 H214        0.8926  -21.9156  -52.4724 H         1 UNK         0.0600 
    215 H215       -0.1698  -24.2413  -49.3764 H         1 UNK         0.3000 
    216 H216        0.8569  -25.9434  -48.4640 H         1 UNK         0.0600 
    217 H217        2.9283  -25.6599  -47.1436 H         1 UNK         0.0600 
    218 H218        1.8118  -24.3383  -46.8374 H         1 UNK         0.0600 
    219 H219        3.2190  -24.0860  -47.8673 H         1 UNK         0.0600 
    220 H220        3.1956  -24.2120  -50.5112 H         1 UNK         0.3000 
    221 H221        4.4655  -26.6347  -51.5591 H         1 UNK         0.0600 
    222 H222        4.6202  -23.6948  -52.4249 H         1 UNK         0.0600 
    223 H223        5.7306  -24.5037  -51.3192 H         1 UNK         0.0600 
    224 H224        5.6637  -24.9877  -53.0065 H         1 UNK         0.0600 
    225 H225        1.5520  -24.9080  -52.2296 H         1 UNK         0.3000 
    226 H226        0.9783  -26.5495  -54.5741 H         1 UNK         0.0600 
    227 H227        1.9248  -24.4504  -55.5907 H         1 UNK         0.0600 
    228 H228        0.1961  -24.5562  -55.8863 H         1 UNK         0.0600 
    229 H229        0.8060  -23.4739  -54.6403 H         1 UNK         0.0600 
    230 H230       -1.2692  -26.7668  -54.8741 H         1 UNK         0.3000 
    231 H231       -2.9628  -26.1633  -52.5178 H         1 UNK         0.0600 
    232 H232       -2.7802  -28.5261  -53.2937 H         1 UNK         0.0600 
    233 H233       -3.3917  -28.0618  -54.8814 H         1 UNK         0.0600 
    234 H234       -4.4191  -27.9209  -53.4585 H         1 UNK         0.0600 
    235 H235       -2.3261  -23.8910  -53.9817 H         1 UNK         0.3000 
    236 H236       -4.9367  -22.9118  -54.6782 H         1 UNK         0.0600 
    237 H237       -4.2142  -22.0209  -56.9251 H         1 UNK         0.0600 
    238 H238       -2.6959  -22.9002  -56.7949 H         1 UNK         0.0600 
    239 H239       -4.2198  -23.7765  -56.9305 H         1 UNK         0.0600 
    240 H240       -4.8288  -20.5374  -54.8825 H         1 UNK         0.3000 
    241 H241       -2.9889  -19.2796  -53.0561 H         1 UNK         0.0600 
    242 H242       -0.6329  -17.5478  -55.0801 H         1 UNK         0.3800 
    243 H243       -1.3909  -17.6093  -53.5129 H         1 UNK         0.3800 
    244 H244       -4.2065  -17.1349  -54.0415 H         1 UNK         0.0800 
    245 H245       -5.2270  -18.2603  -54.8757 H         1 UNK         0.0800 
    246 H246       -5.6462  -16.0108  -52.0057 H         1 UNK         0.0800 
    247 H247       -5.6024  -16.9591  -50.5397 H         1 UNK         0.0800 
@<TRIPOS>BOND
     1    1    2 1    
     2    1  127 1    
     3    1  128 1    
     4    1  129 1    
     5    2    3 2    
     6    2    4 am   BACKBONE|DICT|INTERRES
     7    4    5 1    
     8    4  130 1    
     9    5    6 1    
    10    5   65 1    
    11    5  131 1    
    12    6    7 1    
    13    6  132 1    
    14    6  133 1    
    15    7    8 1    
    16    8    9 1    
    17    8  134 1    
    18    8  135 1    
    19    9   10 ar   
    20    9   14 ar   
    21   10   11 ar   
    22   10  136 1    
    23   11   12 ar   
    24   11  126 1    
    25   12   13 ar   
    26   12  137 1    
    27   13   14 ar   
    28   13   15 1    
    29   14  138 1    
    30   15   16 1    
    31   15  139 1    
    32   15  140 1    
    33   16   17 1    
    34   17   18 1    
    35   17  141 1    
    36   17  142 1    
    37   18   19 1    
    38   18   67 1    
    39   18  143 1    
    40   19   20 am   BACKBONE|DICT|INTERRES
    41   19  144 1    
    42   20   21 2    
    43   20   22 1    
    44   22   23 1    
    45   22   24 1    
    46   22  145 1    
    47   23  146 1    
    48   23  147 1    
    49   23  148 1    
    50   24   25 am   BACKBONE|DICT|INTERRES
    51   24  149 1    
    52   25   26 2    
    53   25   27 1    
    54   27   28 1    
    55   27   29 1    
    56   27  150 1    
    57   28  151 1    
    58   28  152 1    
    59   28  153 1    
    60   29   30 am   BACKBONE|DICT|INTERRES
    61   29  154 1    
    62   30   31 2    
    63   30   32 1    
    64   32   33 1    
    65   32   34 1    
    66   32  155 1    
    67   33  156 1    
    68   33  157 1    
    69   33  158 1    
    70   34   35 am   BACKBONE|DICT|INTERRES
    71   34  159 1    
    72   35   36 2    
    73   35   37 1    
    74   37   38 1    
    75   37   39 1    
    76   37  160 1    
    77   38  161 1    
    78   38  162 1    
    79   38  163 1    
    80   39   40 am   BACKBONE|DICT|INTERRES
    81   39  164 1    
    82   40   41 2    
    83   40   42 1    
    84   42   43 1    
    85   42   44 1    
    86   42  165 1    
    87   43  166 1    
    88   43  167 1    
    89   43  168 1    
    90   44   45 am   BACKBONE|DICT|INTERRES
    91   44  169 1    
    92   45   46 2    
    93   45   47 1    
    94   47   48 1    
    95   47   49 1    
    96   47  170 1    
    97   48  171 1    
    98   48  172 1    
    99   48  173 1    
   100   49   50 am   BACKBONE|DICT|INTERRES
   101   49  174 1    
   102   50   51 2    
   103   50   52 1    
   104   52   53 1    
   105   52   54 1    
   106   52  175 1    
   107   53  176 1    
   108   53  177 1    
   109   53  178 1    
   110   54   55 am   BACKBONE|DICT|INTERRES
   111   54  179 1    
   112   55   56 2    
   113   55   57 1    
   114   57   58 1    
   115   57   59 1    
   116   57  180 1    
   117   58  181 1    
   118   58  182 1    
   119   58  183 1    
   120   59   60 am   BACKBONE|DICT|INTERRES
   121   59  184 1    
   122   60   61 2    
   123   60   62 1    
   124   62   63 1    
   125   62   64 1    
   126   62  185 1    
   127   63  186 1    
   128   63  187 1    
   129   63  188 1    
   130   64   65 am   BACKBONE|DICT|INTERRES
   131   64  189 1    
   132   65   66 2    
   133   67   68 2    
   134   67   69 am   BACKBONE|DICT|INTERRES
   135   69   70 1    
   136   69  190 1    
   137   70   71 1    
   138   70   72 1    
   139   70  191 1    
   140   71  192 1    
   141   71  193 1    
   142   71  194 1    
   143   72   73 2    
   144   72   74 am   BACKBONE|DICT|INTERRES
   145   74   75 1    
   146   74  195 1    
   147   75   76 1    
   148   75   77 1    
   149   75  196 1    
   150   76  197 1    
   151   76  198 1    
   152   76  199 1    
   153   77   78 2    
   154   77   79 am   BACKBONE|DICT|INTERRES
   155   79   80 1    
   156   79  200 1    
   157   80   81 1    
   158   80   82 1    
   159   80  201 1    
   160   81  202 1    
   161   81  203 1    
   162   81  204 1    
   163   82   83 2    
   164   82   84 am   BACKBONE|DICT|INTERRES
   165   84   85 1    
   166   84  205 1    
   167   85   86 1    
   168   85   87 1    
   169   85  206 1    
   170   86  207 1    
   171   86  208 1    
   172   86  209 1    
   173   87   88 2    
   174   87   89 am   BACKBONE|DICT|INTERRES
   175   89   90 1    
   176   89  210 1    
   177   90   91 1    
   178   90   92 1    
   179   90  211 1    
   180   91  212 1    
   181   91  213 1    
   182   91  214 1    
   183   92   93 2    
   184   92   94 am   BACKBONE|DICT|INTERRES
   185   94   95 1    
   186   94  215 1    
   187   95   96 1    
   188   95   97 1    
   189   95  216 1    
   190   96  217 1    
   191   96  218 1    
   192   96  219 1    
   193   97   98 2    
   194   97   99 am   BACKBONE|DICT|INTERRES
   195   99  100 1    
   196   99  220 1    
   197  100  101 1    
   198  100  102 1    
   199  100  221 1    
   200  101  222 1    
   201  101  223 1    
   202  101  224 1    
   203  102  103 2    
   204  102  104 am   BACKBONE|DICT|INTERRES
   205  104  105 1    
   206  104  225 1    
   207  105  106 1    
   208  105  107 1    
   209  105  226 1    
   210  106  227 1    
   211  106  228 1    
   212  106  229 1    
   213  107  108 2    
   214  107  109 am   BACKBONE|DICT|INTERRES
   215  109  110 1    
   216  109  230 1    
   217  110  111 1    
   218  110  112 1    
   219  110  231 1    
   220  111  232 1    
   221  111  233 1    
   222  111  234 1    
   223  112  113 2    
   224  112  114 am   BACKBONE|DICT|INTERRES
   225  114  115 1    
   226  114  235 1    
   227  115  116 1    
   228  115  117 1    
   229  115  236 1    
   230  116  237 1    
   231  116  238 1    
   232  116  239 1    
   233  117  118 2    
   234  117  119 am   BACKBONE|DICT|INTERRES
   235  119  120 1    
   236  119  240 1    
   237  120  121 1    
   238  120  124 1    
   239  120  241 1    
   240  121  122 am   BACKBONE|DICT|INTERRES
   241  121  123 2    
   242  122  242 1    
   243  122  243 1    
   244  124  125 1    
   245  124  244 1    
   246  124  245 1    
   247  125  126 1    
   248  126  246 1    
   249  126  247 1    
@<TRIPOS>SUBSTRUCTURE
     1 UNK         1 GROUP             0       ****    0 ROOT    
