@<TRIPOS>MOLECULE
3R540
247   249    1
SMALL
USER_CHARGES


@<TRIPOS>ATOM
      1 CA         -1.1447  -13.1403  -49.3249 C.3       0 UNK        -0.1800 
      2 C           0.3670  -13.0957  -49.4859 C.2       0 UNK         0.5000 
      3 O           0.8646  -12.5660  -50.4800 O.2       0 UNK        -0.5000 
      4 N           1.1055  -13.6403  -48.5116 N.am      1 UNK        -0.5000 
      5 CA          2.5691  -13.7819  -48.5208 C.3       1 UNK         0.1400 
      6 C6          3.0430  -14.9808  -47.6556 C.3       23 UNK        -0.0398 
      7 S7          2.1711  -16.5344  -48.0422 S.3       23 UNK        -0.2404 
      8 C8          3.2871  -17.2791  -49.2645 C.3       23 UNK        -0.0205 
      9 C9          2.6731  -18.5382  -49.8535 C.ar      23 UNK        -0.0193 
     10 C10         1.8984  -18.4650  -51.0141 C.ar      23 UNK        -0.1150 
     11 C11         1.3399  -19.6215  -51.5624 C.ar      23 UNK        -0.0193 
     12 C12         1.5461  -20.8522  -50.9355 C.ar      23 UNK        -0.1150 
     13 C13         2.3096  -20.9430  -49.7691 C.ar      23 UNK        -0.0193 
     14 C14         2.8802  -19.7771  -49.2396 C.ar      23 UNK        -0.1150 
     15 C15         2.5116  -22.3205  -49.1411 C.3       23 UNK        -0.0205 
     16 S16         2.8494  -22.3019  -47.3513 S.3       23 UNK        -0.2404 
     17 C17         2.8069  -24.0893  -46.9599 C.3       23 UNK        -0.0398 
     18 CA          1.6596  -24.5005  -45.9973 C.3       11 UNK         0.1400 
     19 N           1.5899  -23.6373  -44.8204 N.am      11 UNK        -0.5000 
     20 C           2.2284  -23.8186  -43.6601 C.2       10 UNK         0.5000 
     21 O           2.9551  -24.7851  -43.4272 O.2       10 UNK        -0.5000 
     22 CA          2.0240  -22.7413  -42.5707 C.3       10 UNK         0.1400 
     23 CB          3.2760  -21.8587  -42.4502 C.3       10 UNK        -0.1800 
     24 N           0.8661  -21.8753  -42.8109 N.am      10 UNK        -0.5000 
     25 C          -0.4132  -22.2738  -42.7846 C.2       9 UNK         0.5000 
     26 O          -0.7633  -23.4033  -42.4431 O.2       9 UNK        -0.5000 
     27 CA         -1.4765  -21.2686  -43.2710 C.3       9 UNK         0.1400 
     28 CB         -2.2733  -20.7064  -42.0859 C.3       9 UNK        -0.1800 
     29 N          -0.9426  -20.1651  -44.0796 N.am      9 UNK        -0.5000 
     30 C          -0.3823  -20.3105  -45.2925 C.2       8 UNK         0.5000 
     31 O          -0.2476  -21.4081  -45.8306 O.2       8 UNK        -0.5000 
     32 CA          0.1191  -19.0502  -46.0274 C.3       8 UNK         0.1400 
     33 CB         -0.6085  -18.8726  -47.3689 C.3       8 UNK        -0.1800 
     34 N          -0.0472  -17.8305  -45.2386 N.am      8 UNK        -0.5000 
     35 C           0.8292  -17.3823  -44.3279 C.2       7 UNK         0.5000 
     36 O           1.8823  -17.9593  -44.0561 O.2       7 UNK        -0.5000 
     37 CA          0.4549  -16.0938  -43.5639 C.3       7 UNK         0.1400 
     38 CB          1.1467  -14.8746  -44.1911 C.3       7 UNK        -0.1800 
     39 N          -0.9894  -15.8530  -43.5100 N.am      7 UNK        -0.5000 
     40 C          -1.8605  -16.6455  -42.8659 C.2       6 UNK         0.5000 
     41 O          -1.5109  -17.6040  -42.1791 O.2       6 UNK        -0.5000 
     42 CA         -3.3678  -16.3690  -43.0482 C.3       6 UNK         0.1400 
     43 CB         -3.9283  -15.6323  -41.8226 C.3       6 UNK        -0.1800 
     44 N          -3.7022  -15.6050  -44.2512 N.am      6 UNK        -0.5000 
     45 C          -3.4211  -15.9588  -45.5140 C.2       5 UNK         0.5000 
     46 O          -2.8661  -17.0128  -45.8216 O.2       5 UNK        -0.5000 
     47 CA         -3.7392  -14.9175  -46.6056 C.3       5 UNK         0.1400 
     48 CB         -5.1097  -15.2001  -47.2360 C.3       5 UNK        -0.1800 
     49 N          -3.6971  -13.5248  -46.1374 N.am      5 UNK        -0.5000 
     50 C          -2.6284  -12.9280  -45.5902 C.2       4 UNK         0.5000 
     51 O          -1.5533  -13.5020  -45.3982 O.2       4 UNK        -0.5000 
     52 CA         -2.8189  -11.4707  -45.1241 C.3       4 UNK         0.1400 
     53 CB         -3.5145  -11.4415  -43.7537 C.3       4 UNK        -0.1800 
     54 N          -1.5436  -10.7602  -45.0148 N.am      4 UNK        -0.5000 
     55 C          -0.7670  -10.4362  -46.0551 C.2       3 UNK         0.5000 
     56 O          -1.1148  -10.5831  -47.2304 O.2       3 UNK        -0.5000 
     57 CA          0.6323   -9.8739  -45.7409 C.3       3 UNK         0.1400 
     58 CB          1.3032  -10.5866  -44.5454 C.3       3 UNK        -0.1800 
     59 N           1.4402  -10.0421  -46.9414 N.am      3 UNK        -0.5000 
     60 C           2.6274   -9.4968  -47.2232 C.2       2 UNK         0.5000 
     61 O           3.1952   -8.6767  -46.4995 O.2       2 UNK        -0.5000 
     62 CA          3.2811   -9.9762  -48.5406 C.3       2 UNK         0.1400 
     63 CB          4.8040   -9.7319  -48.5875 C.3       2 UNK        -0.1800 
     64 N           2.9570  -11.3791  -48.8430 N.am      2 UNK        -0.5000 
     65 C           3.2496  -12.4587  -48.1005 C.2       1 UNK         0.5000 
     66 O           3.9672  -12.4248  -47.0994 O.2       1 UNK        -0.5000 
     67 C           0.2610  -24.5683  -46.6452 C.2       11 UNK         0.5000 
     68 O           0.1369  -24.5360  -47.8710 O.2       11 UNK        -0.5000 
     69 N          -0.7731  -24.6499  -45.7895 N.am      12 UNK        -0.5000 
     70 CA         -2.1948  -24.4897  -46.1084 C.3       12 UNK         0.1400 
     71 CB         -3.0419  -24.8077  -44.8674 C.3       12 UNK        -0.1800 
     72 C          -2.7041  -25.3075  -47.3058 C.2       12 UNK         0.5000 
     73 O          -3.4940  -24.7826  -48.0887 O.2       12 UNK        -0.5000 
     74 N          -2.2385  -26.5565  -47.4370 N.am      13 UNK        -0.5000 
     75 CA         -2.6133  -27.4720  -48.5168 C.3       13 UNK         0.1400 
     76 CB         -2.0716  -28.8749  -48.2041 C.3       13 UNK        -0.1800 
     77 C          -2.1386  -27.0031  -49.9051 C.2       13 UNK         0.5000 
     78 O          -2.8912  -27.1157  -50.8732 O.2       13 UNK        -0.5000 
     79 N          -0.9166  -26.4567  -49.9727 N.am      14 UNK        -0.5000 
     80 CA         -0.3391  -25.8780  -51.1888 C.3       14 UNK         0.1400 
     81 CB          1.1865  -25.7869  -51.0336 C.3       14 UNK        -0.1800 
     82 C          -0.9361  -24.4959  -51.5077 C.2       14 UNK         0.5000 
     83 O          -1.0267  -24.1242  -52.6776 O.2       14 UNK        -0.5000 
     84 N          -1.3522  -23.7818  -50.4554 N.am      15 UNK        -0.5000 
     85 CA         -1.9881  -22.4677  -50.4914 C.3       15 UNK         0.1400 
     86 CB         -1.6593  -21.7592  -49.1705 C.3       15 UNK        -0.1800 
     87 C          -3.5138  -22.5119  -50.7230 C.2       15 UNK         0.5000 
     88 O          -4.1615  -21.4753  -50.5613 O.2       15 UNK        -0.5000 
     89 N          -4.0593  -23.6888  -51.0671 N.am      16 UNK        -0.5000 
     90 CA         -5.4674  -23.9680  -51.3712 C.3       16 UNK         0.1400 
     91 CB         -5.9078  -23.2404  -52.6574 C.3       16 UNK        -0.1800 
     92 C          -6.4006  -23.6936  -50.1756 C.2       16 UNK         0.5000 
     93 O          -7.3339  -22.8970  -50.2790 O.2       16 UNK        -0.5000 
     94 N          -6.1044  -24.3625  -49.0539 N.am      17 UNK        -0.5000 
     95 CA         -6.7607  -24.2562  -47.7468 C.3       17 UNK         0.1400 
     96 CB         -8.2512  -24.6506  -47.8210 C.3       17 UNK        -0.1800 
     97 C          -6.5135  -22.8833  -47.0919 C.2       17 UNK         0.5000 
     98 O          -7.4318  -22.2890  -46.5249 O.2       17 UNK        -0.5000 
     99 N          -5.2584  -22.4173  -47.1912 N.am      18 UNK        -0.5000 
    100 CA        -4.7424  -21.1447  -46.6697 C.3       18 UNK         0.1400 
    101 CB        -4.7786  -21.1282  -45.1277 C.3       18 UNK        -0.1800 
    102 C         -5.4176  -19.9047  -47.2966 C.2       18 UNK         0.5000 
    103 O         -5.5702  -18.8799  -46.6315 O.2       18 UNK        -0.5000 
    104 N         -5.7964  -20.0137  -48.5766 N.am      19 UNK        -0.5000 
    105 CA        -6.3236  -18.9125  -49.3838 C.3       19 UNK         0.1400 
    106 CB        -7.1875  -19.4984  -50.5112 C.3       19 UNK        -0.1800 
    107 C         -5.2027  -18.0352  -49.9741 C.2       19 UNK         0.5000 
    108 O         -5.4836  -16.9255  -50.4268 O.2       19 UNK        -0.5000 
    109 N         -3.9687  -18.5634  -49.9792 N.am      20 UNK        -0.5000 
    110 CA        -2.7595  -18.0141  -50.6007 C.3       20 UNK         0.1400 
    111 CB        -2.3620  -16.6602  -49.9793 C.3       20 UNK        -0.1800 
    112 C         -2.8545  -17.9881  -52.1404 C.2       20 UNK         0.5000 
    113 O         -2.2364  -17.1418  -52.7870 O.2       20 UNK        -0.5000 
    114 N         -3.6057  -18.9460  -52.6970 N.am      21 UNK        -0.5000 
    115 CA        -3.6982  -19.2322  -54.1221 C.3       21 UNK         0.1400 
    116 CB        -5.1781  -19.3965  -54.5065 C.3       21 UNK        -0.1800 
    117 C         -2.9012  -20.5212  -54.3467 C.2       21 UNK         0.5000 
    118 O         -3.3434  -21.5854  -53.9169 O.2       21 UNK        -0.5000 
    119 N         -1.7013  -20.3914  -54.9202 N.am      22 UNK        -0.5000 
    120 CA        -0.7296  -21.4868  -55.0448 C.3       22 UNK         0.1400 
    121 C         -1.2136  -22.5969  -56.0179 C.2       22 UNK         0.5000 
    122 N         -1.3563  -23.8257  -55.5411 N.am      22 UNK        -0.7600 
    123 O         -1.4246  -22.3541  -57.2040 O.2       22 UNK        -0.5000 
    124 C124        0.6718  -20.9641  -55.4501 C.3       23 UNK        -0.0398 
    125 S125        1.5589  -19.8346  -54.3032 S.3       23 UNK        -0.2404 
    126 C126        0.5134  -19.5547  -52.8320 C.3       23 UNK        -0.0205 
    127 H127       -1.5643  -12.1393  -49.4222 H         1 UNK         0.0600 
    128 H128       -1.5863  -13.7701  -50.0963 H         1 UNK         0.0600 
    129 H129       -1.4309  -13.5345  -48.3511 H         1 UNK         0.0600 
    130 H130        0.6405  -14.0434  -47.7108 H         1 UNK         0.3000 
    131 H131        2.8861  -13.9847  -49.5461 H         1 UNK         0.0600 
    132 H132        2.8810  -14.7763  -46.5969 H         1 UNK         0.0800 
    133 H133        4.1175  -15.1346  -47.7696 H         1 UNK         0.0800 
    134 H134        4.2435  -17.5107  -48.7933 H         1 UNK         0.0800 
    135 H135        3.4952  -16.5585  -50.0569 H         1 UNK         0.0800 
    136 H136        1.7362  -17.5097  -51.4935 H         1 UNK         0.1150 
    137 H137        1.1141  -21.7464  -51.3635 H         1 UNK         0.1150 
    138 H138        3.4857  -19.8224  -48.3463 H         1 UNK         0.1150 
    139 H139        1.6177  -22.9210  -49.3106 H         1 UNK         0.0800 
    140 H140        3.3321  -22.8233  -49.6541 H         1 UNK         0.0800 
    141 H141        2.7779  -24.6798  -47.8770 H         1 UNK         0.0800 
    142 H142        3.7609  -24.3343  -46.4919 H         1 UNK         0.0800 
    143 H143        1.8619  -25.5222  -45.6701 H         1 UNK         0.0600 
    144 H144        1.0178  -22.8083  -44.9478 H         1 UNK         0.3000 
    145 H145        1.8723  -23.2588  -41.6213 H         1 UNK         0.0600 
    146 H146        3.1743  -21.1368  -41.6397 H         1 UNK         0.0600 
    147 H147        4.1610  -22.4604  -42.2388 H         1 UNK         0.0600 
    148 H148        3.4669  -21.3058  -43.3712 H         1 UNK         0.0600 
    149 H149        1.0626  -20.9291  -43.1040 H         1 UNK         0.3000 
    150 H150       -2.1652  -21.8264  -43.9056 H         1 UNK         0.0600 
    151 H151       -2.7583  -21.5076  -41.5269 H         1 UNK         0.0600 
    152 H152       -3.0560  -20.0254  -42.4203 H         1 UNK         0.0600 
    153 H153       -1.6295  -20.1666  -41.3908 H         1 UNK         0.0600 
    154 H154       -1.0118  -19.2375  -43.6807 H         1 UNK         0.3000 
    155 H155        1.1809  -19.1914  -46.2414 H         1 UNK         0.0600 
    156 H156       -1.6868  -19.0058  -47.2725 H         1 UNK         0.0600 
    157 H157       -0.2392  -19.5960  -48.0937 H         1 UNK         0.0600 
    158 H158       -0.4327  -17.8857  -47.7947 H         1 UNK         0.0600 
    159 H159       -0.9187  -17.3297  -45.3810 H         1 UNK         0.3000 
    160 H160        0.8165  -16.2010  -42.5392 H         1 UNK         0.0600 
    161 H161        0.9135  -13.9620  -43.6425 H         1 UNK         0.0600 
    162 H162        0.8399  -14.7303  -45.2274 H         1 UNK         0.0600 
    163 H163        2.2308  -14.9931  -44.1811 H         1 UNK         0.0600 
    164 H164       -1.3383  -15.0862  -44.0756 H         1 UNK         0.3000 
    165 H165       -3.8655  -17.3377  -43.1268 H         1 UNK         0.0600 
    166 H166       -5.0098  -15.5137  -41.8929 H         1 UNK         0.0600 
    167 H167       -3.7232  -16.1861  -40.9053 H         1 UNK         0.0600 
    168 H168       -3.4868  -14.6408  -41.7135 H         1 UNK         0.0600 
    169 H169       -4.1459  -14.7113  -44.1033 H         1 UNK         0.3000 
    170 H170       -2.9799  -15.0272  -47.3804 H         1 UNK         0.0600 
    171 H171       -5.1736  -16.2337  -47.5772 H         1 UNK         0.0600 
    172 H172       -5.9215  -15.0406  -46.5255 H         1 UNK         0.0600 
    173 H173       -5.2860  -14.5631  -48.1029 H         1 UNK         0.0600 
    174 H174       -4.5478  -12.9921  -46.2500 H         1 UNK         0.3000 
    175 H175       -3.4447  -10.9499  -45.8519 H         1 UNK         0.0600 
    176 H176       -2.9289  -11.9606  -42.9936 H         1 UNK         0.0600 
    177 H177       -3.6730  -10.4178  -43.4137 H         1 UNK         0.0600 
    178 H178       -4.4934  -11.9207  -43.7974 H         1 UNK         0.0600 
    179 H179       -1.1767  -10.6424  -44.0823 H         1 UNK         0.3000 
    180 H180        0.5301   -8.8086  -45.5271 H         1 UNK         0.0600 
    181 H181        1.3600  -11.6641  -44.7061 H         1 UNK         0.0600 
    182 H182        0.7571  -10.4157  -43.6175 H         1 UNK         0.0600 
    183 H183        2.3179  -10.2244  -44.3810 H         1 UNK         0.0600 
    184 H184        1.0082  -10.6468  -47.6285 H         1 UNK         0.3000 
    185 H185        2.8291   -9.3815  -49.3356 H         1 UNK         0.0600 
    186 H186        5.0301   -8.6677  -48.5128 H         1 UNK         0.0600 
    187 H187        5.3226  -10.2322  -47.7694 H         1 UNK         0.0600 
    188 H188        5.2317  -10.0884  -49.5245 H         1 UNK         0.0600 
    189 H189        2.3303  -11.5287  -49.6290 H         1 UNK         0.3000 
    190 H190       -0.5508  -24.6834  -44.8043 H         1 UNK         0.3000 
    191 H191       -2.3418  -23.4357  -46.3469 H         1 UNK         0.0600 
    192 H192       -2.8915  -25.8339  -44.5303 H         1 UNK         0.0600 
    193 H193       -4.1057  -24.6827  -45.0756 H         1 UNK         0.0600 
    194 H194       -2.8001  -24.1464  -44.0372 H         1 UNK         0.0600 
    195 H195       -1.5818  -26.8994  -46.7516 H         1 UNK         0.3000 
    196 H196       -3.7037  -27.5278  -48.5436 H         1 UNK         0.0600 
    197 H197       -2.3520  -29.5844  -48.9838 H         1 UNK         0.0600 
    198 H198       -2.4738  -29.2521  -47.2636 H         1 UNK         0.0600 
    199 H199       -0.9834  -28.8804  -48.1307 H         1 UNK         0.0600 
    200 H200       -0.3943  -26.3223  -49.1165 H         1 UNK         0.3000 
    201 H201       -0.5569  -26.5372  -52.0318 H         1 UNK         0.0600 
    202 H202        1.6260  -26.7736  -50.8874 H         1 UNK         0.0600 
    203 H203        1.4705  -25.1661  -50.1842 H         1 UNK         0.0600 
    204 H204        1.6452  -25.3552  -51.9242 H         1 UNK         0.0600 
    205 H205       -1.1920  -24.1707  -49.5334 H         1 UNK         0.3000 
    206 H206       -1.5583  -21.8879  -51.3101 H         1 UNK         0.0600 
    207 H207       -2.0473  -20.7425  -49.1553 H         1 UNK         0.0600 
    208 H208       -0.5829  -21.7039  -49.0109 H         1 UNK         0.0600 
    209 H209       -2.0864  -22.2858  -48.3196 H         1 UNK         0.0600 
    210 H210       -3.4357  -24.4806  -51.1314 H         1 UNK         0.3000 
    211 H211       -5.5300  -25.0392  -51.5683 H         1 UNK         0.0600 
    212 H212       -5.8730  -22.1574  -52.5421 H         1 UNK         0.0600 
    213 H213       -6.9293  -23.5081  -52.9292 H         1 UNK         0.0600 
    214 H214       -5.2676  -23.5076  -53.4981 H         1 UNK         0.0600 
    215 H215       -5.2407  -24.8956  -49.0446 H         1 UNK         0.3000 
    216 H216       -6.2666  -24.9864  -47.1042 H         1 UNK         0.0600 
    217 H217       -8.6844  -24.7176  -46.8224 H         1 UNK         0.0600 
    218 H218       -8.3786  -25.6236  -48.2953 H         1 UNK         0.0600 
    219 H219       -8.8402  -23.9237  -48.3805 H         1 UNK         0.0600 
    220 H220       -4.5955  -22.9993  -47.6900 H         1 UNK         0.3000 
    221 H221       -3.6946  -21.0967  -46.9670 H         1 UNK         0.0600 
    222 H222       -5.7967  -21.0379  -44.7480 H         1 UNK         0.0600 
    223 H223       -4.3495  -22.0383  -44.7112 H         1 UNK         0.0600 
    224 H224       -4.2083  -20.2852  -44.7355 H         1 UNK         0.0600 
    225 H225       -5.6248  -20.8824  -49.0692 H         1 UNK         0.3000 
    226 H226       -6.9556  -18.2756  -48.7614 H         1 UNK         0.0600 
    227 H227       -8.0110  -20.0891  -50.1096 H         1 UNK         0.0600 
    228 H228       -7.6221  -18.7082  -51.1247 H         1 UNK         0.0600 
    229 H229       -6.6051  -20.1436  -51.1703 H         1 UNK         0.0600 
    230 H230       -3.8963  -19.5194  -49.6556 H         1 UNK         0.3000 
    231 H231       -1.9563  -18.7149  -50.3710 H         1 UNK         0.0600 
    232 H232       -2.3157  -16.7295  -48.8932 H         1 UNK         0.0600 
    233 H233       -3.0659  -15.8691  -50.2374 H         1 UNK         0.0600 
    234 H234       -1.3758  -16.3481  -50.3252 H         1 UNK         0.0600 
    235 H235       -4.0297  -19.6360  -52.0891 H         1 UNK         0.3000 
    236 H236       -3.2710  -18.4248  -54.7205 H         1 UNK         0.0600 
    237 H237       -5.2796  -19.6527  -55.5616 H         1 UNK         0.0600 
    238 H238       -5.6662  -20.1817  -53.9284 H         1 UNK         0.0600 
    239 H239       -5.7299  -18.4713  -54.3398 H         1 UNK         0.0600 
    240 H240       -1.4017  -19.4875  -55.2545 H         1 UNK         0.3000 
    241 H241       -0.6275  -21.9518  -54.0642 H         1 UNK         0.0600 
    242 H242       -1.6606  -24.5663  -56.1525 H         1 UNK         0.3800 
    243 H243       -1.2318  -24.0088  -54.5472 H         1 UNK         0.3800 
    244 H244        1.3405  -21.8125  -55.6075 H         1 UNK         0.0800 
    245 H245        0.6106  -20.4630  -56.4178 H         1 UNK         0.0800 
    246 H246       -0.2916  -20.2763  -52.7346 H         1 UNK         0.0800 
    247 H247        0.0399  -18.5771  -52.9230 H         1 UNK         0.0800 
@<TRIPOS>BOND
     1    1    2 1    
     2    1  127 1    
     3    1  128 1    
     4    1  129 1    
     5    2    3 2    
     6    2    4 am   BACKBONE|DICT|INTERRES
     7    4    5 1    
     8    4  130 1    
     9    5    6 1    
    10    5   65 1    
    11    5  131 1    
    12    6    7 1    
    13    6  132 1    
    14    6  133 1    
    15    7    8 1    
    16    8    9 1    
    17    8  134 1    
    18    8  135 1    
    19    9   10 ar   
    20    9   14 ar   
    21   10   11 ar   
    22   10  136 1    
    23   11   12 ar   
    24   11  126 1    
    25   12   13 ar   
    26   12  137 1    
    27   13   14 ar   
    28   13   15 1    
    29   14  138 1    
    30   15   16 1    
    31   15  139 1    
    32   15  140 1    
    33   16   17 1    
    34   17   18 1    
    35   17  141 1    
    36   17  142 1    
    37   18   19 1    
    38   18   67 1    
    39   18  143 1    
    40   19   20 am   BACKBONE|DICT|INTERRES
    41   19  144 1    
    42   20   21 2    
    43   20   22 1    
    44   22   23 1    
    45   22   24 1    
    46   22  145 1    
    47   23  146 1    
    48   23  147 1    
    49   23  148 1    
    50   24   25 am   BACKBONE|DICT|INTERRES
    51   24  149 1    
    52   25   26 2    
    53   25   27 1    
    54   27   28 1    
    55   27   29 1    
    56   27  150 1    
    57   28  151 1    
    58   28  152 1    
    59   28  153 1    
    60   29   30 am   BACKBONE|DICT|INTERRES
    61   29  154 1    
    62   30   31 2    
    63   30   32 1    
    64   32   33 1    
    65   32   34 1    
    66   32  155 1    
    67   33  156 1    
    68   33  157 1    
    69   33  158 1    
    70   34   35 am   BACKBONE|DICT|INTERRES
    71   34  159 1    
    72   35   36 2    
    73   35   37 1    
    74   37   38 1    
    75   37   39 1    
    76   37  160 1    
    77   38  161 1    
    78   38  162 1    
    79   38  163 1    
    80   39   40 am   BACKBONE|DICT|INTERRES
    81   39  164 1    
    82   40   41 2    
    83   40   42 1    
    84   42   43 1    
    85   42   44 1    
    86   42  165 1    
    87   43  166 1    
    88   43  167 1    
    89   43  168 1    
    90   44   45 am   BACKBONE|DICT|INTERRES
    91   44  169 1    
    92   45   46 2    
    93   45   47 1    
    94   47   48 1    
    95   47   49 1    
    96   47  170 1    
    97   48  171 1    
    98   48  172 1    
    99   48  173 1    
   100   49   50 am   BACKBONE|DICT|INTERRES
   101   49  174 1    
   102   50   51 2    
   103   50   52 1    
   104   52   53 1    
   105   52   54 1    
   106   52  175 1    
   107   53  176 1    
   108   53  177 1    
   109   53  178 1    
   110   54   55 am   BACKBONE|DICT|INTERRES
   111   54  179 1    
   112   55   56 2    
   113   55   57 1    
   114   57   58 1    
   115   57   59 1    
   116   57  180 1    
   117   58  181 1    
   118   58  182 1    
   119   58  183 1    
   120   59   60 am   BACKBONE|DICT|INTERRES
   121   59  184 1    
   122   60   61 2    
   123   60   62 1    
   124   62   63 1    
   125   62   64 1    
   126   62  185 1    
   127   63  186 1    
   128   63  187 1    
   129   63  188 1    
   130   64   65 am   BACKBONE|DICT|INTERRES
   131   64  189 1    
   132   65   66 2    
   133   67   68 2    
   134   67   69 am   BACKBONE|DICT|INTERRES
   135   69   70 1    
   136   69  190 1    
   137   70   71 1    
   138   70   72 1    
   139   70  191 1    
   140   71  192 1    
   141   71  193 1    
   142   71  194 1    
   143   72   73 2    
   144   72   74 am   BACKBONE|DICT|INTERRES
   145   74   75 1    
   146   74  195 1    
   147   75   76 1    
   148   75   77 1    
   149   75  196 1    
   150   76  197 1    
   151   76  198 1    
   152   76  199 1    
   153   77   78 2    
   154   77   79 am   BACKBONE|DICT|INTERRES
   155   79   80 1    
   156   79  200 1    
   157   80   81 1    
   158   80   82 1    
   159   80  201 1    
   160   81  202 1    
   161   81  203 1    
   162   81  204 1    
   163   82   83 2    
   164   82   84 am   BACKBONE|DICT|INTERRES
   165   84   85 1    
   166   84  205 1    
   167   85   86 1    
   168   85   87 1    
   169   85  206 1    
   170   86  207 1    
   171   86  208 1    
   172   86  209 1    
   173   87   88 2    
   174   87   89 am   BACKBONE|DICT|INTERRES
   175   89   90 1    
   176   89  210 1    
   177   90   91 1    
   178   90   92 1    
   179   90  211 1    
   180   91  212 1    
   181   91  213 1    
   182   91  214 1    
   183   92   93 2    
   184   92   94 am   BACKBONE|DICT|INTERRES
   185   94   95 1    
   186   94  215 1    
   187   95   96 1    
   188   95   97 1    
   189   95  216 1    
   190   96  217 1    
   191   96  218 1    
   192   96  219 1    
   193   97   98 2    
   194   97   99 am   BACKBONE|DICT|INTERRES
   195   99  100 1    
   196   99  220 1    
   197  100  101 1    
   198  100  102 1    
   199  100  221 1    
   200  101  222 1    
   201  101  223 1    
   202  101  224 1    
   203  102  103 2    
   204  102  104 am   BACKBONE|DICT|INTERRES
   205  104  105 1    
   206  104  225 1    
   207  105  106 1    
   208  105  107 1    
   209  105  226 1    
   210  106  227 1    
   211  106  228 1    
   212  106  229 1    
   213  107  108 2    
   214  107  109 am   BACKBONE|DICT|INTERRES
   215  109  110 1    
   216  109  230 1    
   217  110  111 1    
   218  110  112 1    
   219  110  231 1    
   220  111  232 1    
   221  111  233 1    
   222  111  234 1    
   223  112  113 2    
   224  112  114 am   BACKBONE|DICT|INTERRES
   225  114  115 1    
   226  114  235 1    
   227  115  116 1    
   228  115  117 1    
   229  115  236 1    
   230  116  237 1    
   231  116  238 1    
   232  116  239 1    
   233  117  118 2    
   234  117  119 am   BACKBONE|DICT|INTERRES
   235  119  120 1    
   236  119  240 1    
   237  120  121 1    
   238  120  124 1    
   239  120  241 1    
   240  121  122 am   BACKBONE|DICT|INTERRES
   241  121  123 2    
   242  122  242 1    
   243  122  243 1    
   244  124  125 1    
   245  124  244 1    
   246  124  245 1    
   247  125  126 1    
   248  126  246 1    
   249  126  247 1    
@<TRIPOS>SUBSTRUCTURE
     1 UNK         1 GROUP             0       ****    0 ROOT    
