@<TRIPOS>MOLECULE
3R540
247   249    1
SMALL
USER_CHARGES


@<TRIPOS>ATOM
      1 CA          0.7788  -12.1882  -42.0304 C.3       0 UNK        -0.1800 
      2 C          -0.4927  -11.7828  -42.7616 C.2       0 UNK         0.5000 
      3 O          -0.9514  -10.6516  -42.6029 O.2       0 UNK        -0.5000 
      4 N          -1.0750  -12.7040  -43.5413 N.am      1 UNK        -0.5000 
      5 CA         -2.3486  -12.5054  -44.2454 C.3       1 UNK         0.1400 
      6 C6         -2.9840  -13.8550  -44.6684 C.3       23 UNK        -0.0398 
      7 S7         -4.8034  -13.7603  -44.7883 S.3       23 UNK        -0.2404 
      8 C8         -5.0709  -13.6464  -46.5889 C.3       23 UNK        -0.0205 
      9 C9         -4.7602  -14.9560  -47.2962 C.ar      23 UNK        -0.0193 
     10 C10        -3.6758  -15.0529  -48.1740 C.ar      23 UNK        -0.1150 
     11 C11        -3.3808  -16.2665  -48.8026 C.ar      23 UNK        -0.0193 
     12 C12        -4.1825  -17.3841  -48.5535 C.ar      23 UNK        -0.1150 
     13 C13        -5.2703  -17.2965  -47.6799 C.ar      23 UNK        -0.0193 
     14 C14        -5.5613  -16.0772  -47.0652 C.ar      23 UNK        -0.1150 
     15 C15        -6.1152  -18.5245  -47.3782 C.3       23 UNK        -0.0205 
     16 S16        -5.8980  -19.1292  -45.6688 S.3       23 UNK        -0.2404 
     17 C17        -4.0905  -19.3604  -45.5452 C.3       23 UNK        -0.0398 
     18 CA         -3.5984  -20.6793  -46.1885 C.3       11 UNK         0.1400 
     19 N          -2.2058  -20.5763  -46.6338 N.am      11 UNK        -0.5000 
     20 C          -1.5514  -21.5169  -47.3293 C.2       10 UNK         0.5000 
     21 O          -2.0616  -22.5702  -47.7037 O.2       10 UNK        -0.5000 
     22 CA         -0.0572  -21.2700  -47.5935 C.3       10 UNK         0.1400 
     23 CB          0.1379  -20.2956  -48.7656 C.3       10 UNK        -0.1800 
     24 N           0.6401  -20.7848  -46.4014 N.am      10 UNK        -0.5000 
     25 C           0.7514  -21.4811  -45.2594 C.2       9 UNK         0.5000 
     26 O           0.3396  -22.6321  -45.1198 O.2       9 UNK        -0.5000 
     27 CA          1.3737  -20.7587  -44.0521 C.3       9 UNK         0.1400 
     28 CB          2.9067  -20.7786  -44.1341 C.3       9 UNK        -0.1800 
     29 N           0.9004  -19.3814  -43.9136 N.am      9 UNK        -0.5000 
     30 C          -0.3726  -19.0281  -43.6851 C.2       8 UNK         0.5000 
     31 O          -1.2880  -19.8349  -43.5218 O.2       8 UNK        -0.5000 
     32 CA         -0.6855  -17.5201  -43.6978 C.3       8 UNK         0.1400 
     33 CB         -0.3328  -16.8635  -42.3546 C.3       8 UNK        -0.1800 
     34 N           0.0039  -16.8221  -44.7834 N.am      8 UNK        -0.5000 
     35 C          -0.2522  -17.0204  -46.0839 C.2       7 UNK         0.5000 
     36 O          -1.1219  -17.7835  -46.5033 O.2       7 UNK        -0.5000 
     37 CA          0.6502  -16.2719  -47.0788 C.3       7 UNK         0.1400 
     38 CB          0.2055  -14.8106  -47.2231 C.3       7 UNK        -0.1800 
     39 N           2.0610  -16.3163  -46.6936 N.am      7 UNK        -0.5000 
     40 C           2.7989  -17.4359  -46.6688 C.2       6 UNK         0.5000 
     41 O           2.3797  -18.5364  -47.0244 O.2       6 UNK        -0.5000 
     42 CA          4.2236  -17.3226  -46.0958 C.3       6 UNK         0.1400 
     43 CB          5.2285  -16.9435  -47.1930 C.3       6 UNK        -0.1800 
     44 N           4.3152  -16.3687  -44.9891 N.am      6 UNK        -0.5000 
     45 C           3.6836  -16.5075  -43.8136 C.2       5 UNK         0.5000 
     46 O           2.9825  -17.4778  -43.5322 O.2       5 UNK        -0.5000 
     47 CA          3.8218  -15.3650  -42.7900 C.3       5 UNK         0.1400 
     48 CB          4.8745  -15.7182  -41.7295 C.3       5 UNK        -0.1800 
     49 N           4.1637  -14.0768  -43.3945 N.am      5 UNK        -0.5000 
     50 C           3.3690  -13.3811  -44.2176 C.2       4 UNK         0.5000 
     51 O           2.2309  -13.7466  -44.5268 O.2       4 UNK        -0.5000 
     52 CA          3.9374  -12.0576  -44.7766 C.3       4 UNK         0.1400 
     53 CB          5.4818  -12.0151  -44.8169 C.3       4 UNK        -0.1800 
     54 N           3.3945  -11.7210  -46.0939 N.am      4 UNK        -0.5000 
     55 C           3.4412  -12.4565  -47.2121 C.2       3 UNK         0.5000 
     56 O           3.9598  -13.5725  -47.2787 O.2       3 UNK        -0.5000 
     57 CA          2.7632  -11.8344  -48.4526 C.3       3 UNK         0.1400 
     58 CB          2.9862  -12.6696  -49.7267 C.3       3 UNK        -0.1800 
     59 N           1.3228  -11.6556  -48.2590 N.am      3 UNK        -0.5000 
     60 C           0.7324  -10.7384  -47.4823 C.2       2 UNK         0.5000 
     61 O           1.3472   -9.8792  -46.8486 O.2       2 UNK        -0.5000 
     62 CA         -0.7914  -10.8291  -47.3452 C.3       2 UNK         0.1400 
     63 CB         -1.4965  -11.4495  -48.5721 C.3       2 UNK        -0.1800 
     64 N          -1.0804  -11.6091  -46.1474 N.am      2 UNK        -0.5000 
     65 C          -2.2189  -11.5457  -45.4483 C.2       1 UNK         0.5000 
     66 O          -3.1431  -10.7775  -45.7191 O.2       1 UNK        -0.5000 
     67 C          -3.8364  -21.8959  -45.2661 C.2       11 UNK         0.5000 
     68 O          -4.8114  -22.6226  -45.4598 O.2       11 UNK        -0.5000 
     69 N          -2.9200  -22.1185  -44.3126 N.am      12 UNK        -0.5000 
     70 CA         -2.9301  -23.2597  -43.3956 C.3       12 UNK         0.1400 
     71 CB         -1.8906  -23.0319  -42.2876 C.3       12 UNK        -0.1800 
     72 C          -2.6921  -24.6088  -44.1026 C.2       12 UNK         0.5000 
     73 O          -3.3399  -25.5966  -43.7539 O.2       12 UNK        -0.5000 
     74 N          -1.7836  -24.6251  -45.0879 N.am      13 UNK        -0.5000 
     75 CA         -1.4828  -25.7827  -45.9351 C.3       13 UNK         0.1400 
     76 CB         -0.1777  -25.5160  -46.6957 C.3       13 UNK        -0.1800 
     77 C          -2.6218  -26.1412  -46.9109 C.2       13 UNK         0.5000 
     78 O          -2.7401  -27.3043  -47.3003 O.2       13 UNK        -0.5000 
     79 N          -3.4455  -25.1471  -47.2703 N.am      14 UNK        -0.5000 
     80 CA         -4.6590  -25.2495  -48.0789 C.3       14 UNK         0.1400 
     81 CB         -5.7499  -26.0319  -47.3129 C.3       14 UNK        -0.1800 
     82 C          -4.3575  -25.7906  -49.4915 C.2       14 UNK         0.5000 
     83 O          -3.6160  -25.1525  -50.2433 O.2       14 UNK        -0.5000 
     84 N          -4.9208  -26.9564  -49.8316 N.am      15 UNK        -0.5000 
     85 CA         -4.7644  -27.6289  -51.1215 C.3       15 UNK         0.1400 
     86 CB         -5.7232  -28.8277  -51.1770 C.3       15 UNK        -0.1800 
     87 C          -3.3226  -28.0780  -51.4285 C.2       15 UNK         0.5000 
     88 O          -2.9778  -28.2047  -52.6034 O.2       15 UNK        -0.5000 
     89 N          -2.5008  -28.2902  -50.3890 N.am      16 UNK        -0.5000 
     90 CA         -1.0967  -28.6857  -50.5256 C.3       16 UNK         0.1400 
     91 CB         -0.5724  -29.1971  -49.1756 C.3       16 UNK        -0.1800 
     92 C          -0.2015  -27.5530  -51.0642 C.2       16 UNK         0.5000 
     93 O           0.7739  -27.8373  -51.7602 O.2       16 UNK        -0.5000 
     94 N          -0.5528  -26.2991  -50.7478 N.am      17 UNK        -0.5000 
     95 CA          0.1391  -25.1000  -51.2284 C.3       17 UNK         0.1400 
     96 CB          0.2373  -24.0912  -50.0759 C.3       17 UNK        -0.1800 
     97 C          -0.5647  -24.4505  -52.4324 C.2       17 UNK         0.5000 
     98 O           0.0341  -23.5844  -53.0696 O.2       17 UNK        -0.5000 
     99 N          -1.8144  -24.8584  -52.7027 N.am      18 UNK        -0.5000 
    100 CA        -2.7671  -24.2525  -53.6367 C.3       18 UNK         0.1400 
    101 CB        -2.2579  -24.2972  -55.0927 C.3       18 UNK        -0.1800 
    102 C         -3.1587  -22.8389  -53.1669 C.2       18 UNK         0.5000 
    103 O         -2.9581  -21.8565  -53.8856 O.2       18 UNK        -0.5000 
    104 N         -3.6920  -22.7692  -51.9383 N.am      19 UNK        -0.5000 
    105 CA        -4.0625  -21.5515  -51.2083 C.3       19 UNK         0.1400 
    106 CB        -4.7150  -21.9472  -49.8813 C.3       19 UNK        -0.1800 
    107 C         -4.9849  -20.5735  -51.9575 C.2       19 UNK         0.5000 
    108 O         -4.8980  -19.3712  -51.7145 O.2       19 UNK        -0.5000 
    109 N         -5.8067  -21.0860  -52.8841 N.am      20 UNK        -0.5000 
    110 CA        -6.6601  -20.3006  -53.7817 C.3       20 UNK         0.1400 
    111 CB        -7.5355  -21.2612  -54.6008 C.3       20 UNK        -0.1800 
    112 C         -5.8772  -19.3540  -54.7180 C.2       20 UNK         0.5000 
    113 O         -6.4219  -18.3310  -55.1342 O.2       20 UNK        -0.5000 
    114 N         -4.6173  -19.7009  -55.0101 N.am      21 UNK        -0.5000 
    115 CA        -3.6564  -18.8895  -55.7570 C.3       21 UNK         0.1400 
    116 CB        -3.1673  -19.7136  -56.9609 C.3       21 UNK        -0.1800 
    117 C         -2.4745  -18.4542  -54.8640 C.2       21 UNK         0.5000 
    118 O         -1.4845  -17.9391  -55.3860 O.2       21 UNK        -0.5000 
    119 N         -2.5819  -18.6832  -53.5464 N.am      22 UNK        -0.5000 
    120 CA        -1.5282  -18.4992  -52.5331 C.3       22 UNK         0.1400 
    121 C         -0.2680  -19.3917  -52.7498 C.2       22 UNK         0.5000 
    122 N         -0.4081  -20.5627  -53.3571 N.am      22 UNK        -0.7600 
    123 O          0.8350  -19.0471  -52.3351 O.2       22 UNK        -0.5000 
    124 C124       -1.2079  -17.0038  -52.2562 C.3       23 UNK        -0.0398 
    125 S125       -2.6276  -16.1703  -51.4687 S.3       23 UNK        -0.2404 
    126 C126       -2.1769  -16.3914  -49.7213 C.3       23 UNK        -0.0205 
    127 H127        0.9936  -13.2503  -42.1492 H         1 UNK         0.0600 
    128 H128        0.6791  -11.9841  -40.9644 H         1 UNK         0.0600 
    129 H129        1.6266  -11.6177  -42.4080 H         1 UNK         0.0600 
    130 H130       -0.6372  -13.6076  -43.6447 H         1 UNK         0.3000 
    131 H131       -3.0240  -12.0284  -43.5310 H         1 UNK         0.0600 
    132 H132       -2.5520  -14.2376  -45.5940 H         1 UNK         0.0800 
    133 H133       -2.7731  -14.6154  -43.9150 H         1 UNK         0.0800 
    134 H134       -6.1143  -13.3862  -46.7717 H         1 UNK         0.0800 
    135 H135       -4.4782  -12.8289  -47.0007 H         1 UNK         0.0800 
    136 H136       -3.0568  -14.1875  -48.3615 H         1 UNK         0.1150 
    137 H137       -3.9491  -18.3254  -49.0317 H         1 UNK         0.1150 
    138 H138       -6.3964  -16.0080  -46.3820 H         1 UNK         0.1150 
    139 H139       -7.1669  -18.2800  -47.5331 H         1 UNK         0.0800 
    140 H140       -5.8879  -19.3293  -48.0762 H         1 UNK         0.0800 
    141 H141       -3.8050  -19.3056  -44.4934 H         1 UNK         0.0800 
    142 H142       -3.6036  -18.5035  -46.0084 H         1 UNK         0.0800 
    143 H143       -4.1812  -20.8513  -47.0940 H         1 UNK         0.0600 
    144 H144       -1.7140  -19.7218  -46.3918 H         1 UNK         0.3000 
    145 H145        0.3936  -22.2244  -47.8698 H         1 UNK         0.0600 
    146 H146        1.1934  -20.1854  -49.0145 H         1 UNK         0.0600 
    147 H147       -0.2564  -19.3049  -48.5409 H         1 UNK         0.0600 
    148 H148       -0.3696  -20.6562  -49.6615 H         1 UNK         0.0600 
    149 H149        1.0614  -19.8625  -46.4626 H         1 UNK         0.3000 
    150 H150        1.0765  -21.3005  -43.1520 H         1 UNK         0.0600 
    151 H151        3.2806  -21.8019  -44.1844 H         1 UNK         0.0600 
    152 H152        3.3555  -20.3102  -43.2579 H         1 UNK         0.0600 
    153 H153        3.2689  -20.2538  -45.0176 H         1 UNK         0.0600 
    154 H154        1.6062  -18.6515  -43.9736 H         1 UNK         0.3000 
    155 H155       -1.7604  -17.4075  -43.8561 H         1 UNK         0.0600 
    156 H156       -0.8628  -17.3497  -41.5347 H         1 UNK         0.0600 
    157 H157       -0.6143  -15.8106  -42.3431 H         1 UNK         0.0600 
    158 H158        0.7335  -16.9283  -42.1378 H         1 UNK         0.0600 
    159 H159        0.7718  -16.2178  -44.5291 H         1 UNK         0.3000 
    160 H160        0.5447  -16.7600  -48.0500 H         1 UNK         0.0600 
    161 H161        0.4314  -14.2277  -46.3316 H         1 UNK         0.0600 
    162 H162       -0.8677  -14.7360  -47.3922 H         1 UNK         0.0600 
    163 H163        0.7045  -14.3435  -48.0699 H         1 UNK         0.0600 
    164 H164        2.4824  -15.4503  -46.3819 H         1 UNK         0.3000 
    165 H165        4.5038  -18.3044  -45.7099 H         1 UNK         0.0600 
    166 H166        6.2471  -16.9219  -46.8055 H         1 UNK         0.0600 
    167 H167        5.2062  -17.6689  -48.0073 H         1 UNK         0.0600 
    168 H168        5.0111  -15.9654  -47.6217 H         1 UNK         0.0600 
    169 H169        4.8483  -15.5279  -45.1561 H         1 UNK         0.3000 
    170 H170        2.8565  -15.2572  -42.2909 H         1 UNK         0.0600 
    171 H171        5.8686  -15.8196  -42.1668 H         1 UNK         0.0600 
    172 H172        4.9241  -14.9548  -40.9528 H         1 UNK         0.0600 
    173 H173        4.6335  -16.6627  -41.2395 H         1 UNK         0.0600 
    174 H174        5.0811  -13.7110  -43.1844 H         1 UNK         0.3000 
    175 H175        3.5984  -11.2722  -44.1001 H         1 UNK         0.0600 
    176 H176        5.8962  -12.8402  -45.3977 H         1 UNK         0.0600 
    177 H177        5.8342  -11.0867  -45.2668 H         1 UNK         0.0600 
    178 H178        5.9115  -12.0603  -43.8158 H         1 UNK         0.0600 
    179 H179        2.8608  -10.8579  -46.1435 H         1 UNK         0.3000 
    180 H180        3.2169  -10.8542  -48.6134 H         1 UNK         0.0600 
    181 H181        2.5476  -12.1840  -50.5987 H         1 UNK         0.0600 
    182 H182        2.5489  -13.6651  -49.6411 H         1 UNK         0.0600 
    183 H183        4.0506  -12.7958  -49.9288 H         1 UNK         0.0600 
    184 H184        0.7317  -12.3200  -48.7349 H         1 UNK         0.3000 
    185 H185       -1.1587   -9.8092  -47.2116 H         1 UNK         0.0600 
    186 H186       -2.5800  -11.3730  -48.4797 H         1 UNK         0.0600 
    187 H187       -1.2178  -10.9292  -49.4894 H         1 UNK         0.0600 
    188 H188       -1.2544  -12.5047  -48.6989 H         1 UNK         0.0600 
    189 H189       -0.3328  -12.1994  -45.8104 H         1 UNK         0.3000 
    190 H190       -2.1711  -21.4426  -44.1899 H         1 UNK         0.3000 
    191 H191       -3.9164  -23.3015  -42.9289 H         1 UNK         0.0600 
    192 H192       -2.0932  -22.1110  -41.7404 H         1 UNK         0.0600 
    193 H193       -0.8798  -22.9649  -42.6903 H         1 UNK         0.0600 
    194 H194       -1.9033  -23.8498  -41.5662 H         1 UNK         0.0600 
    195 H195       -1.2421  -23.7837  -45.2642 H         1 UNK         0.3000 
    196 H196       -1.3276  -26.6482  -45.2879 H         1 UNK         0.0600 
    197 H197        0.6643  -25.4230  -46.0097 H         1 UNK         0.0600 
    198 H198       -0.2424  -24.5911  -47.2659 H         1 UNK         0.0600 
    199 H199        0.0544  -26.3224  -47.3916 H         1 UNK         0.0600 
    200 H200       -3.1849  -24.2065  -46.9956 H         1 UNK         0.3000 
    201 H201       -5.0312  -24.2345  -48.2051 H         1 UNK         0.0600 
    202 H202       -5.9555  -25.5602  -46.3515 H         1 UNK         0.0600 
    203 H203       -5.4614  -27.0645  -47.1136 H         1 UNK         0.0600 
    204 H204       -6.6892  -26.0458  -47.8672 H         1 UNK         0.0600 
    205 H205       -5.4945  -27.4262  -49.1464 H         1 UNK         0.3000 
    206 H206       -5.0563  -26.9220  -51.9011 H         1 UNK         0.0600 
    207 H207       -5.4969  -29.5596  -50.4006 H         1 UNK         0.0600 
    208 H208       -6.7588  -28.5116  -51.0504 H         1 UNK         0.0600 
    209 H209       -5.6566  -29.3382  -52.1389 H         1 UNK         0.0600 
    210 H210       -2.8460  -28.1438  -49.4479 H         1 UNK         0.3000 
    211 H211       -1.0459  -29.5119  -51.2382 H         1 UNK         0.0600 
    212 H212       -0.5738  -28.4140  -48.4183 H         1 UNK         0.0600 
    213 H213        0.4522  -29.5595  -49.2681 H         1 UNK         0.0600 
    214 H214       -1.1774  -30.0242  -48.8040 H         1 UNK         0.0600 
    215 H215       -1.3786  -26.1511  -50.1835 H         1 UNK         0.3000 
    216 H216        1.1549  -25.3465  -51.5443 H         1 UNK         0.0600 
    217 H217        0.6776  -23.1498  -50.4075 H         1 UNK         0.0600 
    218 H218        0.8723  -24.4764  -49.2793 H         1 UNK         0.0600 
    219 H219       -0.7445  -23.8657  -49.6581 H         1 UNK         0.0600 
    220 H220       -2.2043  -25.5609  -52.0907 H         1 UNK         0.3000 
    221 H221       -3.6724  -24.8595  -53.5891 H         1 UNK         0.0600 
    222 H222       -1.3876  -23.6592  -55.2469 H         1 UNK         0.0600 
    223 H223       -1.9861  -25.3120  -55.3832 H         1 UNK         0.0600 
    224 H224       -3.0314  -23.9568  -55.7818 H         1 UNK         0.0600 
    225 H225       -3.7520  -23.6312  -51.4023 H         1 UNK         0.3000 
    226 H226       -3.1360  -21.0186  -50.9866 H         1 UNK         0.0600 
    227 H227       -4.0206  -22.5173  -49.2707 H         1 UNK         0.0600 
    228 H228       -5.0044  -21.0678  -49.3082 H         1 UNK         0.0600 
    229 H229       -5.6093  -22.5519  -50.0352 H         1 UNK         0.0600 
    230 H230       -5.8076  -22.0862  -53.0188 H         1 UNK         0.3000 
    231 H231       -7.3132  -19.6818  -53.1630 H         1 UNK         0.0600 
    232 H232       -8.2058  -20.7111  -55.2627 H         1 UNK         0.0600 
    233 H233       -8.1568  -21.8797  -53.9529 H         1 UNK         0.0600 
    234 H234       -6.9318  -21.9240  -55.2221 H         1 UNK         0.0600 
    235 H235       -4.2402  -20.5584  -54.6160 H         1 UNK         0.3000 
    236 H236       -4.1265  -17.9777  -56.1302 H         1 UNK         0.0600 
    237 H237       -2.6448  -20.6164  -56.6411 H         1 UNK         0.0600 
    238 H238       -4.0007  -20.0159  -57.5952 H         1 UNK         0.0600 
    239 H239       -2.4810  -19.1372  -57.5824 H         1 UNK         0.0600 
    240 H240       -3.4608  -19.0388  -53.1927 H         1 UNK         0.3000 
    241 H241       -1.9518  -18.9012  -51.6125 H         1 UNK         0.0600 
    242 H242       -1.3202  -20.8867  -53.6630 H         1 UNK         0.3800 
    243 H243        0.3840  -21.1784  -53.4574 H         1 UNK         0.3800 
    244 H244       -0.9531  -16.4825  -53.1793 H         1 UNK         0.0800 
    245 H245       -0.3409  -16.8933  -51.6029 H         1 UNK         0.0800 
    246 H246       -1.7190  -17.3707  -49.5728 H         1 UNK         0.0800 
    247 H247       -1.4167  -15.6548  -49.4646 H         1 UNK         0.0800 
@<TRIPOS>BOND
     1    1    2 1    
     2    1  127 1    
     3    1  128 1    
     4    1  129 1    
     5    2    3 2    
     6    2    4 am   BACKBONE|DICT|INTERRES
     7    4    5 1    
     8    4  130 1    
     9    5    6 1    
    10    5   65 1    
    11    5  131 1    
    12    6    7 1    
    13    6  132 1    
    14    6  133 1    
    15    7    8 1    
    16    8    9 1    
    17    8  134 1    
    18    8  135 1    
    19    9   10 ar   
    20    9   14 ar   
    21   10   11 ar   
    22   10  136 1    
    23   11   12 ar   
    24   11  126 1    
    25   12   13 ar   
    26   12  137 1    
    27   13   14 ar   
    28   13   15 1    
    29   14  138 1    
    30   15   16 1    
    31   15  139 1    
    32   15  140 1    
    33   16   17 1    
    34   17   18 1    
    35   17  141 1    
    36   17  142 1    
    37   18   19 1    
    38   18   67 1    
    39   18  143 1    
    40   19   20 am   BACKBONE|DICT|INTERRES
    41   19  144 1    
    42   20   21 2    
    43   20   22 1    
    44   22   23 1    
    45   22   24 1    
    46   22  145 1    
    47   23  146 1    
    48   23  147 1    
    49   23  148 1    
    50   24   25 am   BACKBONE|DICT|INTERRES
    51   24  149 1    
    52   25   26 2    
    53   25   27 1    
    54   27   28 1    
    55   27   29 1    
    56   27  150 1    
    57   28  151 1    
    58   28  152 1    
    59   28  153 1    
    60   29   30 am   BACKBONE|DICT|INTERRES
    61   29  154 1    
    62   30   31 2    
    63   30   32 1    
    64   32   33 1    
    65   32   34 1    
    66   32  155 1    
    67   33  156 1    
    68   33  157 1    
    69   33  158 1    
    70   34   35 am   BACKBONE|DICT|INTERRES
    71   34  159 1    
    72   35   36 2    
    73   35   37 1    
    74   37   38 1    
    75   37   39 1    
    76   37  160 1    
    77   38  161 1    
    78   38  162 1    
    79   38  163 1    
    80   39   40 am   BACKBONE|DICT|INTERRES
    81   39  164 1    
    82   40   41 2    
    83   40   42 1    
    84   42   43 1    
    85   42   44 1    
    86   42  165 1    
    87   43  166 1    
    88   43  167 1    
    89   43  168 1    
    90   44   45 am   BACKBONE|DICT|INTERRES
    91   44  169 1    
    92   45   46 2    
    93   45   47 1    
    94   47   48 1    
    95   47   49 1    
    96   47  170 1    
    97   48  171 1    
    98   48  172 1    
    99   48  173 1    
   100   49   50 am   BACKBONE|DICT|INTERRES
   101   49  174 1    
   102   50   51 2    
   103   50   52 1    
   104   52   53 1    
   105   52   54 1    
   106   52  175 1    
   107   53  176 1    
   108   53  177 1    
   109   53  178 1    
   110   54   55 am   BACKBONE|DICT|INTERRES
   111   54  179 1    
   112   55   56 2    
   113   55   57 1    
   114   57   58 1    
   115   57   59 1    
   116   57  180 1    
   117   58  181 1    
   118   58  182 1    
   119   58  183 1    
   120   59   60 am   BACKBONE|DICT|INTERRES
   121   59  184 1    
   122   60   61 2    
   123   60   62 1    
   124   62   63 1    
   125   62   64 1    
   126   62  185 1    
   127   63  186 1    
   128   63  187 1    
   129   63  188 1    
   130   64   65 am   BACKBONE|DICT|INTERRES
   131   64  189 1    
   132   65   66 2    
   133   67   68 2    
   134   67   69 am   BACKBONE|DICT|INTERRES
   135   69   70 1    
   136   69  190 1    
   137   70   71 1    
   138   70   72 1    
   139   70  191 1    
   140   71  192 1    
   141   71  193 1    
   142   71  194 1    
   143   72   73 2    
   144   72   74 am   BACKBONE|DICT|INTERRES
   145   74   75 1    
   146   74  195 1    
   147   75   76 1    
   148   75   77 1    
   149   75  196 1    
   150   76  197 1    
   151   76  198 1    
   152   76  199 1    
   153   77   78 2    
   154   77   79 am   BACKBONE|DICT|INTERRES
   155   79   80 1    
   156   79  200 1    
   157   80   81 1    
   158   80   82 1    
   159   80  201 1    
   160   81  202 1    
   161   81  203 1    
   162   81  204 1    
   163   82   83 2    
   164   82   84 am   BACKBONE|DICT|INTERRES
   165   84   85 1    
   166   84  205 1    
   167   85   86 1    
   168   85   87 1    
   169   85  206 1    
   170   86  207 1    
   171   86  208 1    
   172   86  209 1    
   173   87   88 2    
   174   87   89 am   BACKBONE|DICT|INTERRES
   175   89   90 1    
   176   89  210 1    
   177   90   91 1    
   178   90   92 1    
   179   90  211 1    
   180   91  212 1    
   181   91  213 1    
   182   91  214 1    
   183   92   93 2    
   184   92   94 am   BACKBONE|DICT|INTERRES
   185   94   95 1    
   186   94  215 1    
   187   95   96 1    
   188   95   97 1    
   189   95  216 1    
   190   96  217 1    
   191   96  218 1    
   192   96  219 1    
   193   97   98 2    
   194   97   99 am   BACKBONE|DICT|INTERRES
   195   99  100 1    
   196   99  220 1    
   197  100  101 1    
   198  100  102 1    
   199  100  221 1    
   200  101  222 1    
   201  101  223 1    
   202  101  224 1    
   203  102  103 2    
   204  102  104 am   BACKBONE|DICT|INTERRES
   205  104  105 1    
   206  104  225 1    
   207  105  106 1    
   208  105  107 1    
   209  105  226 1    
   210  106  227 1    
   211  106  228 1    
   212  106  229 1    
   213  107  108 2    
   214  107  109 am   BACKBONE|DICT|INTERRES
   215  109  110 1    
   216  109  230 1    
   217  110  111 1    
   218  110  112 1    
   219  110  231 1    
   220  111  232 1    
   221  111  233 1    
   222  111  234 1    
   223  112  113 2    
   224  112  114 am   BACKBONE|DICT|INTERRES
   225  114  115 1    
   226  114  235 1    
   227  115  116 1    
   228  115  117 1    
   229  115  236 1    
   230  116  237 1    
   231  116  238 1    
   232  116  239 1    
   233  117  118 2    
   234  117  119 am   BACKBONE|DICT|INTERRES
   235  119  120 1    
   236  119  240 1    
   237  120  121 1    
   238  120  124 1    
   239  120  241 1    
   240  121  122 am   BACKBONE|DICT|INTERRES
   241  121  123 2    
   242  122  242 1    
   243  122  243 1    
   244  124  125 1    
   245  124  244 1    
   246  124  245 1    
   247  125  126 1    
   248  126  246 1    
   249  126  247 1    
@<TRIPOS>SUBSTRUCTURE
     1 UNK         1 GROUP             0       ****    0 ROOT    
