@<TRIPOS>MOLECULE
3R540
247   249    1
SMALL
USER_CHARGES


@<TRIPOS>ATOM
      1 CA         -2.9121  -10.9276  -45.9598 C.3       0 UNK        -0.1800 
      2 C          -1.9527  -12.0900  -45.7527 C.2       0 UNK         0.5000 
      3 O          -1.0373  -11.9890  -44.9386 O.2       0 UNK        -0.5000 
      4 N          -2.1682  -13.1988  -46.4725 N.am      1 UNK        -0.5000 
      5 CA         -1.3387  -14.4147  -46.4605 C.3       1 UNK         0.1400 
      6 C6         -1.8426  -15.4510  -47.4936 C.3       23 UNK        -0.0398 
      7 S7         -1.7559  -14.8003  -49.1964 S.3       23 UNK        -0.2404 
      8 C8         -0.5182  -15.9110  -49.9526 C.3       23 UNK        -0.0205 
      9 C9         -0.9752  -17.3541  -50.1771 C.ar      23 UNK        -0.0193 
     10 C10        -2.3265  -17.7172  -50.2255 C.ar      23 UNK        -0.1150 
     11 C11        -2.7035  -19.0349  -50.4882 C.ar      23 UNK        -0.0193 
     12 C12        -1.7198  -20.0070  -50.6928 C.ar      23 UNK        -0.1150 
     13 C13        -0.3637  -19.6674  -50.6375 C.ar      23 UNK        -0.0193 
     14 C14        -0.0052  -18.3391  -50.3870 C.ar      23 UNK        -0.1150 
     15 C15         0.7297  -20.7025  -50.8947 C.3       23 UNK        -0.0205 
     16 S16         0.4609  -22.3156  -50.0827 S.3       23 UNK        -0.2404 
     17 C17         0.5568  -21.8722  -48.3164 C.3       23 UNK        -0.0398 
     18 CA         -0.3570  -22.7554  -47.4312 C.3       11 UNK         0.1400 
     19 N          -0.0198  -22.6309  -46.0108 N.am      11 UNK        -0.5000 
     20 C          -0.4887  -23.4260  -45.0385 C.2       10 UNK         0.5000 
     21 O          -1.2341  -24.3835  -45.2358 O.2       10 UNK        -0.5000 
     22 CA         -0.0986  -23.0594  -43.5962 C.3       10 UNK         0.1400 
     23 CB          1.2957  -23.6051  -43.2548 C.3       10 UNK        -0.1800 
     24 N          -0.1299  -21.6164  -43.3577 N.am      10 UNK        -0.5000 
     25 C          -1.2416  -20.8675  -43.3890 C.2       9 UNK         0.5000 
     26 O          -2.3670  -21.3191  -43.5932 O.2       9 UNK        -0.5000 
     27 CA         -1.0542  -19.3513  -43.2060 C.3       9 UNK         0.1400 
     28 CB         -0.9697  -19.0075  -41.7101 C.3       9 UNK        -0.1800 
     29 N           0.1316  -18.8271  -43.8876 N.am      9 UNK        -0.5000 
     30 C           0.3982  -18.9325  -45.1985 C.2       8 UNK         0.5000 
     31 O          -0.3418  -19.5117  -45.9951 O.2       8 UNK        -0.5000 
     32 CA          1.7217  -18.3168  -45.6933 C.3       8 UNK         0.1400 
     33 CB          1.5713  -17.6262  -47.0582 C.3       8 UNK        -0.1800 
     34 N           2.2618  -17.3509  -44.7355 N.am      8 UNK        -0.5000 
     35 C           3.3372  -17.5438  -43.9613 C.2       7 UNK         0.5000 
     36 O           3.9801  -18.5948  -43.9424 O.2       7 UNK        -0.5000 
     37 CA          3.7471  -16.3680  -43.0477 C.3       7 UNK         0.1400 
     38 CB          5.2007  -16.4748  -42.5425 C.3       7 UNK        -0.1800 
     39 N           3.5046  -15.0523  -43.6474 N.am      7 UNK        -0.5000 
     40 C           4.0250  -14.5589  -44.7824 C.2       6 UNK         0.5000 
     41 O           4.8120  -15.1664  -45.5087 O.2       6 UNK        -0.5000 
     42 CA          3.6011  -13.1303  -45.1576 C.3       6 UNK         0.1400 
     43 CB          2.1795  -13.1209  -45.7378 C.3       6 UNK        -0.1800 
     44 N           3.6530  -12.2512  -43.9908 N.am      6 UNK        -0.5000 
     45 C           4.7021  -11.4848  -43.6621 C.2       5 UNK         0.5000 
     46 O           5.7169  -11.3788  -44.3521 O.2       5 UNK        -0.5000 
     47 CA          4.6092  -10.7041  -42.3353 C.3       5 UNK         0.1400 
     48 CB          4.0146   -9.3077  -42.5738 C.3       5 UNK        -0.1800 
     49 N           3.8103  -11.3942  -41.3222 N.am      5 UNK        -0.5000 
     50 C           4.1715  -12.5280  -40.7051 C.2       4 UNK         0.5000 
     51 O           5.2711  -13.0621  -40.8493 O.2       4 UNK        -0.5000 
     52 CA          3.1231  -13.1907  -39.7872 C.3       4 UNK         0.1400 
     53 CB          3.4289  -12.8832  -38.3134 C.3       4 UNK        -0.1800 
     54 N           1.7353  -12.8074  -40.0754 N.am      4 UNK        -0.5000 
     55 C           1.0885  -13.0619  -41.2199 C.2       3 UNK         0.5000 
     56 O           1.6158  -13.6003  -42.1958 O.2       3 UNK        -0.5000 
     57 CA         -0.3661  -12.5730  -41.3080 C.3       3 UNK         0.1400 
     58 CB         -0.4064  -11.1273  -41.8263 C.3       3 UNK        -0.1800 
     59 N          -1.1600  -13.4291  -42.1897 N.am      3 UNK        -0.5000 
     60 C          -1.5775  -14.6599  -41.8568 C.2       2 UNK         0.5000 
     61 O          -1.3738  -15.1649  -40.7517 O.2       2 UNK        -0.5000 
     62 CA         -2.3739  -15.4676  -42.9022 C.3       2 UNK         0.1400 
     63 CB         -3.8548  -15.5598  -42.5035 C.3       2 UNK        -0.1800 
     64 N          -2.2877  -14.9379  -44.2603 N.am      2 UNK        -0.5000 
     65 C          -1.2251  -15.0651  -45.0653 C.2       1 UNK         0.5000 
     66 O          -0.1873  -15.6456  -44.7454 O.2       1 UNK        -0.5000 
     67 C          -1.8519  -22.4643  -47.6659 C.2       11 UNK         0.5000 
     68 O          -2.5393  -23.2641  -48.3035 O.2       11 UNK        -0.5000 
     69 N          -2.3357  -21.3553  -47.0907 N.am      12 UNK        -0.5000 
     70 CA         -3.7329  -20.9339  -47.1519 C.3       12 UNK         0.1400 
     71 CB         -3.8682  -19.5368  -46.5280 C.3       12 UNK        -0.1800 
     72 C          -4.7088  -21.9363  -46.5067 C.2       12 UNK         0.5000 
     73 O          -5.8178  -22.1052  -47.0132 O.2       12 UNK        -0.5000 
     74 N          -4.2773  -22.5917  -45.4221 N.am      13 UNK        -0.5000 
     75 CA         -5.0361  -23.6273  -44.7291 C.3       13 UNK         0.1400 
     76 CB         -4.4976  -23.7865  -43.2979 C.3       13 UNK        -0.1800 
     77 C          -5.0204  -24.9754  -45.4718 C.2       13 UNK         0.5000 
     78 O          -6.0881  -25.5328  -45.7296 O.2       13 UNK        -0.5000 
     79 N          -3.8203  -25.5020  -45.7545 N.am      14 UNK        -0.5000 
     80 CA         -3.6333  -26.8747  -46.2256 C.3       14 UNK         0.1400 
     81 CB         -2.2261  -27.3657  -45.8497 C.3       14 UNK        -0.1800 
     82 C          -3.8747  -27.0430  -47.7326 C.2       14 UNK         0.5000 
     83 O          -4.5631  -27.9850  -48.1282 O.2       14 UNK        -0.5000 
     84 N          -3.2857  -26.1571  -48.5453 N.am      15 UNK        -0.5000 
     85 CA         -3.3563  -26.2269  -50.0049 C.3       15 UNK         0.1400 
     86 CB         -2.0120  -25.7916  -50.6076 C.3       15 UNK        -0.1800 
     87 C          -4.5126  -25.3774  -50.5486 C.2       15 UNK         0.5000 
     88 O          -5.2233  -25.8287  -51.4472 O.2       15 UNK        -0.5000 
     89 N          -4.6926  -24.1760  -49.9817 N.am      16 UNK        -0.5000 
     90 CA         -5.7090  -23.1868  -50.3452 C.3       16 UNK         0.1400 
     91 CB         -7.1120  -23.6746  -49.9196 C.3       16 UNK        -0.1800 
     92 C          -5.5978  -22.7843  -51.8330 C.2       16 UNK         0.5000 
     93 O          -4.4893  -22.5251  -52.3041 O.2       16 UNK        -0.5000 
     94 N          -6.7235  -22.7548  -52.5586 N.am      17 UNK        -0.5000 
     95 CA         -6.7990  -22.4004  -53.9793 C.3       17 UNK         0.1400 
     96 CB         -8.2734  -22.3613  -54.4070 C.3       17 UNK        -0.1800 
     97 C          -5.9925  -23.3306  -54.9093 C.2       17 UNK         0.5000 
     98 O          -5.5474  -22.8868  -55.9688 O.2       17 UNK        -0.5000 
     99 N          -5.7816  -24.5871  -54.4887 N.am      18 UNK        -0.5000 
    100 CA        -4.9972  -25.5888  -55.2152 C.3       18 UNK         0.1400 
    101 CB        -5.3236  -26.9889  -54.6721 C.3       18 UNK        -0.1800 
    102 C         -3.4767  -25.3262  -55.1901 C.2       18 UNK         0.5000 
    103 O         -2.7463  -25.9940  -55.9232 O.2       18 UNK        -0.5000 
    104 N         -3.0179  -24.3573  -54.3813 N.am      19 UNK        -0.5000 
    105 CA        -1.6264  -23.9025  -54.3395 C.3       19 UNK         0.1400 
    106 CB        -1.4372  -22.9681  -53.1367 C.3       19 UNK        -0.1800 
    107 C         -1.1788  -23.1677  -55.6181 C.2       19 UNK         0.5000 
    108 O          0.0251  -23.0443  -55.8431 O.2       19 UNK        -0.5000 
    109 N         -2.1405  -22.6412  -56.3946 N.am      20 UNK        -0.5000 
    110 CA        -2.0088  -21.8479  -57.6281 C.3       20 UNK         0.1400 
    111 CB        -1.2551  -22.6256  -58.7235 C.3       20 UNK        -0.1800 
    112 C         -1.4082  -20.4399  -57.4260 C.2       20 UNK         0.5000 
    113 O         -1.8143  -19.5066  -58.1181 O.2       20 UNK        -0.5000 
    114 N         -0.4901  -20.2965  -56.4625 N.am      21 UNK        -0.5000 
    115 CA         0.0855  -19.0318  -56.0007 C.3       21 UNK         0.1400 
    116 CB         1.3454  -19.3419  -55.1770 C.3       21 UNK        -0.1800 
    117 C         -0.9006  -18.1815  -55.1723 C.2       21 UNK         0.5000 
    118 O         -0.6602  -16.9873  -54.9907 O.2       21 UNK        -0.5000 
    119 N         -1.9764  -18.8103  -54.6800 N.am      22 UNK        -0.5000 
    120 CA        -3.0784  -18.1784  -53.9452 C.3       22 UNK         0.1400 
    121 C         -3.8385  -17.1229  -54.7995 C.2       22 UNK         0.5000 
    122 N         -4.0936  -15.9382  -54.2609 N.am      22 UNK        -0.7600 
    123 O         -4.2289  -17.3854  -55.9348 O.2       22 UNK        -0.5000 
    124 C124       -4.0434  -19.2573  -53.3886 C.3       23 UNK        -0.0398 
    125 S125       -5.0306  -18.6469  -51.9806 S.3       23 UNK        -0.2404 
    126 C126       -4.1776  -19.4013  -50.5589 C.3       23 UNK        -0.0205 
    127 H127       -3.6801  -11.1614  -46.6974 H         1 UNK         0.0600 
    128 H128       -3.4058  -10.6779  -45.0206 H         1 UNK         0.0600 
    129 H129       -2.3661  -10.0489  -46.3031 H         1 UNK         0.0600 
    130 H130       -2.9299  -13.2083  -47.1361 H         1 UNK         0.3000 
    131 H131       -0.3300  -14.1159  -46.7488 H         1 UNK         0.0600 
    132 H132       -1.2736  -16.3798  -47.4334 H         1 UNK         0.0800 
    133 H133       -2.8780  -15.7271  -47.2865 H         1 UNK         0.0800 
    134 H134        0.3832  -15.8972  -49.3383 H         1 UNK         0.0800 
    135 H135       -0.2361  -15.4942  -50.9202 H         1 UNK         0.0800 
    136 H136       -3.1012  -16.9778  -50.0868 H         1 UNK         0.1150 
    137 H137       -2.0104  -21.0272  -50.9017 H         1 UNK         0.1150 
    138 H138        1.0402  -18.0644  -50.3667 H         1 UNK         0.1150 
    139 H139        1.7012  -20.3198  -50.5780 H         1 UNK         0.0800 
    140 H140        0.8014  -20.8623  -51.9705 H         1 UNK         0.0800 
    141 H141        0.3242  -20.8148  -48.1850 H         1 UNK         0.0800 
    142 H142        1.5971  -21.9916  -48.0115 H         1 UNK         0.0800 
    143 H143       -0.1827  -23.7983  -47.7058 H         1 UNK         0.0600 
    144 H144        0.5277  -21.8254  -45.7481 H         1 UNK         0.3000 
    145 H145       -0.8224  -23.5289  -42.9265 H         1 UNK         0.0600 
    146 H146        1.3407  -24.6839  -43.4109 H         1 UNK         0.0600 
    147 H147        1.5469  -23.4186  -42.2105 H         1 UNK         0.0600 
    148 H148        2.0710  -23.1510  -43.8732 H         1 UNK         0.0600 
    149 H149        0.7536  -21.1606  -43.1838 H         1 UNK         0.3000 
    150 H150       -1.9265  -18.8522  -43.6321 H         1 UNK         0.0600 
    151 H151       -0.1394  -19.5223  -41.2250 H         1 UNK         0.0600 
    152 H152       -1.8839  -19.3004  -41.1921 H         1 UNK         0.0600 
    153 H153       -0.8321  -17.9394  -41.5463 H         1 UNK         0.0600 
    154 H154        0.7929  -18.3207  -43.3190 H         1 UNK         0.3000 
    155 H155        2.4122  -19.1518  -45.8248 H         1 UNK         0.0600 
    156 H156        0.9420  -16.7406  -46.9924 H         1 UNK         0.0600 
    157 H157        1.1321  -18.2967  -47.7965 H         1 UNK         0.0600 
    158 H158        2.5411  -17.3119  -47.4440 H         1 UNK         0.0600 
    159 H159        1.7391  -16.4844  -44.6538 H         1 UNK         0.3000 
    160 H160        3.0933  -16.4233  -42.1762 H         1 UNK         0.0600 
    161 H161        5.9159  -16.4803  -43.3654 H         1 UNK         0.0600 
    162 H162        5.3516  -17.3913  -41.9711 H         1 UNK         0.0600 
    163 H163        5.4516  -15.6414  -41.8866 H         1 UNK         0.0600 
    164 H164        2.8275  -14.4771  -43.1476 H         1 UNK         0.3000 
    165 H165        4.2802  -12.7684  -45.9325 H         1 UNK         0.0600 
    166 H166        2.1006  -13.7988  -46.5886 H         1 UNK         0.0600 
    167 H167        1.4413  -13.4299  -44.9974 H         1 UNK         0.0600 
    168 H168        1.9014  -12.1258  -46.0851 H         1 UNK         0.0600 
    169 H169        2.8815  -12.3271  -43.3401 H         1 UNK         0.3000 
    170 H170        5.6233  -10.5834  -41.9483 H         1 UNK         0.0600 
    171 H171        4.0085   -8.7191  -41.6562 H         1 UNK         0.0600 
    172 H172        2.9903   -9.3638  -42.9448 H         1 UNK         0.0600 
    173 H173        4.6004   -8.7546  -43.3093 H         1 UNK         0.0600 
    174 H174        2.8963  -11.0148  -41.1265 H         1 UNK         0.3000 
    175 H175        3.2050  -14.2696  -39.9354 H         1 UNK         0.0600 
    176 H176        4.4448  -13.1839  -38.0532 H         1 UNK         0.0600 
    177 H177        3.3365  -11.8181  -38.0974 H         1 UNK         0.0600 
    178 H178        2.7531  -13.4218  -37.6488 H         1 UNK         0.0600 
    179 H179        1.2395  -12.3419  -39.3286 H         1 UNK         0.3000 
    180 H180       -0.8107  -12.5960  -40.3108 H         1 UNK         0.0600 
    181 H181        0.1152  -11.0247  -42.7786 H         1 UNK         0.0600 
    182 H182        0.0700  -10.4461  -41.1205 H         1 UNK         0.0600 
    183 H183       -1.4316  -10.7843  -41.9669 H         1 UNK         0.0600 
    184 H184       -1.2875  -13.1001  -43.1397 H         1 UNK         0.3000 
    185 H185       -1.9650  -16.4776  -42.9114 H         1 UNK         0.0600 
    186 H186       -3.9667  -15.9935  -41.5089 H         1 UNK         0.0600 
    187 H187       -4.3291  -14.5777  -42.4890 H         1 UNK         0.0600 
    188 H188       -4.4111  -16.1928  -43.1953 H         1 UNK         0.0600 
    189 H189       -3.0862  -14.4204  -44.5976 H         1 UNK         0.3000 
    190 H190       -1.6938  -20.7420  -46.5952 H         1 UNK         0.3000 
    191 H191       -4.0003  -20.8656  -48.2055 H         1 UNK         0.0600 
    192 H192       -3.2341  -18.8137  -47.0423 H         1 UNK         0.0600 
    193 H193       -4.8953  -19.1764  -46.5947 H         1 UNK         0.0600 
    194 H194       -3.5865  -19.5394  -45.4747 H         1 UNK         0.0600 
    195 H195       -3.3810  -22.3366  -45.0215 H         1 UNK         0.3000 
    196 H196       -6.0759  -23.3014  -44.6546 H         1 UNK         0.0600 
    197 H197       -5.0413  -24.5632  -42.7586 H         1 UNK         0.0600 
    198 H198       -4.6076  -22.8609  -42.7326 H         1 UNK         0.0600 
    199 H199       -3.4411  -24.0570  -43.2896 H         1 UNK         0.0600 
    200 H200       -2.9741  -24.9825  -45.5322 H         1 UNK         0.3000 
    201 H201       -4.3475  -27.5162  -45.7041 H         1 UNK         0.0600 
    202 H202       -2.0951  -28.4144  -46.1191 H         1 UNK         0.0600 
    203 H203       -2.0512  -27.2806  -44.7771 H         1 UNK         0.0600 
    204 H204       -1.4484  -26.7982  -46.3620 H         1 UNK         0.0600 
    205 H205       -2.8004  -25.3608  -48.1494 H         1 UNK         0.3000 
    206 H206       -3.5307  -27.2579  -50.3203 H         1 UNK         0.0600 
    207 H207       -1.2070  -26.4533  -50.2881 H         1 UNK         0.0600 
    208 H208       -2.0457  -25.8238  -51.6974 H         1 UNK         0.0600 
    209 H209       -1.7430  -24.7776  -50.3135 H         1 UNK         0.0600 
    210 H210       -4.0047  -23.8703  -49.2977 H         1 UNK         0.3000 
    211 H211       -5.4840  -22.2922  -49.7659 H         1 UNK         0.0600 
    212 H212       -7.8597  -22.8910  -50.0472 H         1 UNK         0.0600 
    213 H213       -7.1202  -23.9493  -48.8644 H         1 UNK         0.0600 
    214 H214       -7.4365  -24.5469  -50.4881 H         1 UNK         0.0600 
    215 H215       -7.5935  -22.9981  -52.1080 H         1 UNK         0.3000 
    216 H216       -6.3866  -21.3959  -54.0893 H         1 UNK         0.0600 
    217 H217       -8.8360  -21.6352  -53.8198 H         1 UNK         0.0600 
    218 H218       -8.7522  -23.3342  -54.2890 H         1 UNK         0.0600 
    219 H219       -8.3692  -22.0730  -55.4548 H         1 UNK         0.0600 
    220 H220       -6.1275  -24.8607  -53.5784 H         1 UNK         0.3000 
    221 H221       -5.3073  -25.5595  -56.2618 H         1 UNK         0.0600 
    222 H222       -4.9589  -27.1247  -53.6547 H         1 UNK         0.0600 
    223 H223       -6.3974  -27.1764  -54.6747 H         1 UNK         0.0600 
    224 H224       -4.8590  -27.7611  -55.2865 H         1 UNK         0.0600 
    225 H225       -3.6721  -23.8596  -53.7875 H         1 UNK         0.3000 
    226 H226       -0.9845  -24.7757  -54.2070 H         1 UNK         0.0600 
    227 H227       -1.7887  -23.4210  -52.2119 H         1 UNK         0.0600 
    228 H228       -0.3833  -22.7261  -53.0014 H         1 UNK         0.0600 
    229 H229       -1.9741  -22.0285  -53.2671 H         1 UNK         0.0600 
    230 H230       -3.0956  -22.7883  -56.0938 H         1 UNK         0.3000 
    231 H231       -3.0300  -21.6969  -57.9821 H         1 UNK         0.0600 
    232 H232       -0.2067  -22.7811  -58.4683 H         1 UNK         0.0600 
    233 H233       -1.2804  -22.0838  -59.6697 H         1 UNK         0.0600 
    234 H234       -1.7078  -23.6021  -58.8956 H         1 UNK         0.0600 
    235 H235       -0.1678  -21.1435  -56.0043 H         1 UNK         0.3000 
    236 H236        0.3772  -18.4445  -56.8737 H         1 UNK         0.0600 
    237 H237        1.8245  -18.4245  -54.8322 H         1 UNK         0.0600 
    238 H238        1.1112  -19.9413  -54.2966 H         1 UNK         0.0600 
    239 H239        2.0796  -19.8883  -55.7694 H         1 UNK         0.0600 
    240 H240       -2.0913  -19.7843  -54.9102 H         1 UNK         0.3000 
    241 H241       -2.6142  -17.6639  -53.1020 H         1 UNK         0.0600 
    242 H242       -3.7977  -15.7122  -53.3242 H         1 UNK         0.3800 
    243 H243       -4.5968  -15.2516  -54.8007 H         1 UNK         0.3800 
    244 H244       -4.7167  -19.6211  -54.1662 H         1 UNK         0.0800 
    245 H245       -3.4846  -20.1317  -53.0553 H         1 UNK         0.0800 
    246 H246       -4.6728  -19.0741  -49.6440 H         1 UNK         0.0800 
    247 H247       -4.2937  -20.4815  -50.6062 H         1 UNK         0.0800 
@<TRIPOS>BOND
     1    1    2 1    
     2    1  127 1    
     3    1  128 1    
     4    1  129 1    
     5    2    3 2    
     6    2    4 am   BACKBONE|DICT|INTERRES
     7    4    5 1    
     8    4  130 1    
     9    5    6 1    
    10    5   65 1    
    11    5  131 1    
    12    6    7 1    
    13    6  132 1    
    14    6  133 1    
    15    7    8 1    
    16    8    9 1    
    17    8  134 1    
    18    8  135 1    
    19    9   10 ar   
    20    9   14 ar   
    21   10   11 ar   
    22   10  136 1    
    23   11   12 ar   
    24   11  126 1    
    25   12   13 ar   
    26   12  137 1    
    27   13   14 ar   
    28   13   15 1    
    29   14  138 1    
    30   15   16 1    
    31   15  139 1    
    32   15  140 1    
    33   16   17 1    
    34   17   18 1    
    35   17  141 1    
    36   17  142 1    
    37   18   19 1    
    38   18   67 1    
    39   18  143 1    
    40   19   20 am   BACKBONE|DICT|INTERRES
    41   19  144 1    
    42   20   21 2    
    43   20   22 1    
    44   22   23 1    
    45   22   24 1    
    46   22  145 1    
    47   23  146 1    
    48   23  147 1    
    49   23  148 1    
    50   24   25 am   BACKBONE|DICT|INTERRES
    51   24  149 1    
    52   25   26 2    
    53   25   27 1    
    54   27   28 1    
    55   27   29 1    
    56   27  150 1    
    57   28  151 1    
    58   28  152 1    
    59   28  153 1    
    60   29   30 am   BACKBONE|DICT|INTERRES
    61   29  154 1    
    62   30   31 2    
    63   30   32 1    
    64   32   33 1    
    65   32   34 1    
    66   32  155 1    
    67   33  156 1    
    68   33  157 1    
    69   33  158 1    
    70   34   35 am   BACKBONE|DICT|INTERRES
    71   34  159 1    
    72   35   36 2    
    73   35   37 1    
    74   37   38 1    
    75   37   39 1    
    76   37  160 1    
    77   38  161 1    
    78   38  162 1    
    79   38  163 1    
    80   39   40 am   BACKBONE|DICT|INTERRES
    81   39  164 1    
    82   40   41 2    
    83   40   42 1    
    84   42   43 1    
    85   42   44 1    
    86   42  165 1    
    87   43  166 1    
    88   43  167 1    
    89   43  168 1    
    90   44   45 am   BACKBONE|DICT|INTERRES
    91   44  169 1    
    92   45   46 2    
    93   45   47 1    
    94   47   48 1    
    95   47   49 1    
    96   47  170 1    
    97   48  171 1    
    98   48  172 1    
    99   48  173 1    
   100   49   50 am   BACKBONE|DICT|INTERRES
   101   49  174 1    
   102   50   51 2    
   103   50   52 1    
   104   52   53 1    
   105   52   54 1    
   106   52  175 1    
   107   53  176 1    
   108   53  177 1    
   109   53  178 1    
   110   54   55 am   BACKBONE|DICT|INTERRES
   111   54  179 1    
   112   55   56 2    
   113   55   57 1    
   114   57   58 1    
   115   57   59 1    
   116   57  180 1    
   117   58  181 1    
   118   58  182 1    
   119   58  183 1    
   120   59   60 am   BACKBONE|DICT|INTERRES
   121   59  184 1    
   122   60   61 2    
   123   60   62 1    
   124   62   63 1    
   125   62   64 1    
   126   62  185 1    
   127   63  186 1    
   128   63  187 1    
   129   63  188 1    
   130   64   65 am   BACKBONE|DICT|INTERRES
   131   64  189 1    
   132   65   66 2    
   133   67   68 2    
   134   67   69 am   BACKBONE|DICT|INTERRES
   135   69   70 1    
   136   69  190 1    
   137   70   71 1    
   138   70   72 1    
   139   70  191 1    
   140   71  192 1    
   141   71  193 1    
   142   71  194 1    
   143   72   73 2    
   144   72   74 am   BACKBONE|DICT|INTERRES
   145   74   75 1    
   146   74  195 1    
   147   75   76 1    
   148   75   77 1    
   149   75  196 1    
   150   76  197 1    
   151   76  198 1    
   152   76  199 1    
   153   77   78 2    
   154   77   79 am   BACKBONE|DICT|INTERRES
   155   79   80 1    
   156   79  200 1    
   157   80   81 1    
   158   80   82 1    
   159   80  201 1    
   160   81  202 1    
   161   81  203 1    
   162   81  204 1    
   163   82   83 2    
   164   82   84 am   BACKBONE|DICT|INTERRES
   165   84   85 1    
   166   84  205 1    
   167   85   86 1    
   168   85   87 1    
   169   85  206 1    
   170   86  207 1    
   171   86  208 1    
   172   86  209 1    
   173   87   88 2    
   174   87   89 am   BACKBONE|DICT|INTERRES
   175   89   90 1    
   176   89  210 1    
   177   90   91 1    
   178   90   92 1    
   179   90  211 1    
   180   91  212 1    
   181   91  213 1    
   182   91  214 1    
   183   92   93 2    
   184   92   94 am   BACKBONE|DICT|INTERRES
   185   94   95 1    
   186   94  215 1    
   187   95   96 1    
   188   95   97 1    
   189   95  216 1    
   190   96  217 1    
   191   96  218 1    
   192   96  219 1    
   193   97   98 2    
   194   97   99 am   BACKBONE|DICT|INTERRES
   195   99  100 1    
   196   99  220 1    
   197  100  101 1    
   198  100  102 1    
   199  100  221 1    
   200  101  222 1    
   201  101  223 1    
   202  101  224 1    
   203  102  103 2    
   204  102  104 am   BACKBONE|DICT|INTERRES
   205  104  105 1    
   206  104  225 1    
   207  105  106 1    
   208  105  107 1    
   209  105  226 1    
   210  106  227 1    
   211  106  228 1    
   212  106  229 1    
   213  107  108 2    
   214  107  109 am   BACKBONE|DICT|INTERRES
   215  109  110 1    
   216  109  230 1    
   217  110  111 1    
   218  110  112 1    
   219  110  231 1    
   220  111  232 1    
   221  111  233 1    
   222  111  234 1    
   223  112  113 2    
   224  112  114 am   BACKBONE|DICT|INTERRES
   225  114  115 1    
   226  114  235 1    
   227  115  116 1    
   228  115  117 1    
   229  115  236 1    
   230  116  237 1    
   231  116  238 1    
   232  116  239 1    
   233  117  118 2    
   234  117  119 am   BACKBONE|DICT|INTERRES
   235  119  120 1    
   236  119  240 1    
   237  120  121 1    
   238  120  124 1    
   239  120  241 1    
   240  121  122 am   BACKBONE|DICT|INTERRES
   241  121  123 2    
   242  122  242 1    
   243  122  243 1    
   244  124  125 1    
   245  124  244 1    
   246  124  245 1    
   247  125  126 1    
   248  126  246 1    
   249  126  247 1    
@<TRIPOS>SUBSTRUCTURE
     1 UNK         1 GROUP             0       ****    0 ROOT    
