@<TRIPOS>MOLECULE
3R540
247   249    1
SMALL
USER_CHARGES


@<TRIPOS>ATOM
      1 CA          6.8030  -10.4982  -45.4632 C.3       0 UNK        -0.1800 
      2 C           5.4762  -11.2279  -45.6067 C.2       0 UNK         0.5000 
      3 O           4.5502  -10.9643  -44.8386 O.2       0 UNK        -0.5000 
      4 N           5.3752  -12.1316  -46.5908 N.am      1 UNK        -0.5000 
      5 CA          4.2042  -12.9568  -46.9227 C.3       1 UNK         0.1400 
      6 C6          4.6366  -14.1709  -47.7841 C.3       23 UNK        -0.0398 
      7 S7          3.4201  -15.5341  -47.8363 S.3       23 UNK        -0.2404 
      8 C8          2.9341  -15.4852  -49.5962 C.3       23 UNK        -0.0205 
      9 C9          2.3811  -16.8051  -50.1198 C.ar      23 UNK        -0.0193 
     10 C10         1.2238  -16.8178  -50.9056 C.ar      23 UNK        -0.1150 
     11 C11         0.7664  -18.0084  -51.4796 C.ar      23 UNK        -0.0193 
     12 C12         1.4713  -19.1934  -51.2551 C.ar      23 UNK        -0.1150 
     13 C13         2.6177  -19.2015  -50.4543 C.ar      23 UNK        -0.0193 
     14 C14         3.0695  -18.0023  -49.8976 C.ar      23 UNK        -0.1150 
     15 C15         3.3937  -20.4908  -50.2072 C.3       23 UNK        -0.0205 
     16 S16         2.3383  -21.8899  -49.7069 S.3       23 UNK        -0.2404 
     17 C17         1.4865  -21.1884  -48.2544 C.3       23 UNK        -0.0398 
     18 CA          0.6378  -22.2350  -47.4987 C.3       11 UNK         0.1400 
     19 N           0.2656  -21.7658  -46.1633 N.am      11 UNK        -0.5000 
     20 C          -0.3146  -22.5256  -45.2242 C.2       10 UNK         0.5000 
     21 O          -0.5428  -23.7270  -45.3602 O.2       10 UNK        -0.5000 
     22 CA         -0.7573  -21.8154  -43.9342 C.3       10 UNK         0.1400 
     23 CB          0.4256  -21.6622  -42.9671 C.3       10 UNK        -0.1800 
     24 N          -1.3674  -20.5096  -44.1935 N.am      10 UNK        -0.5000 
     25 C          -2.5098  -20.3325  -44.8740 C.2       9 UNK         0.5000 
     26 O          -3.1916  -21.2594  -45.3089 O.2       9 UNK        -0.5000 
     27 CA         -2.9497  -18.8838  -45.1519 C.3       9 UNK         0.1400 
     28 CB         -3.6382  -18.2782  -43.9205 C.3       9 UNK        -0.1800 
     29 N          -1.8448  -18.0223  -45.5707 N.am      9 UNK        -0.5000 
     30 C          -1.1234  -18.1901  -46.6887 C.2       8 UNK         0.5000 
     31 O          -1.3263  -19.0856  -47.5081 O.2       8 UNK        -0.5000 
     32 CA          0.0644  -17.2311  -46.8862 C.3       8 UNK         0.1400 
     33 CB         -0.4049  -15.8488  -47.3668 C.3       8 UNK        -0.1800 
     34 N           0.8411  -17.0755  -45.6578 N.am      8 UNK        -0.5000 
     35 C           1.5321  -18.0571  -45.0629 C.2       7 UNK         0.5000 
     36 O           1.6258  -19.2016  -45.5072 O.2       7 UNK        -0.5000 
     37 CA          2.1780  -17.7076  -43.7119 C.3       7 UNK         0.1400 
     38 CB          3.5064  -16.9633  -43.9192 C.3       7 UNK        -0.1800 
     39 N           1.2817  -16.9069  -42.8737 N.am      7 UNK        -0.5000 
     40 C           0.1662  -17.3891  -42.3023 C.2       6 UNK         0.5000 
     41 O          -0.1946  -18.5599  -42.4036 O.2       6 UNK        -0.5000 
     42 CA         -0.7226  -16.4041  -41.5179 C.3       6 UNK         0.1400 
     43 CB         -0.2821  -16.3378  -40.0483 C.3       6 UNK        -0.1800 
     44 N          -0.7265  -15.0549  -42.0787 N.am      6 UNK        -0.5000 
     45 C          -1.1292  -14.7320  -43.3156 C.2       5 UNK         0.5000 
     46 O          -1.6372  -15.5355  -44.0966 O.2       5 UNK        -0.5000 
     47 CA         -0.8673  -13.2842  -43.7765 C.3       5 UNK         0.1400 
     48 CB         -2.1436  -12.4397  -43.6579 C.3       5 UNK        -0.1800 
     49 N           0.2181  -12.6173  -43.0489 N.am      5 UNK        -0.5000 
     50 C           1.4945  -13.0234  -43.0133 C.2       4 UNK         0.5000 
     51 O           1.9013  -14.0281  -43.5991 O.2       4 UNK        -0.5000 
     52 CA          2.4603  -12.1486  -42.1937 C.3       4 UNK         0.1400 
     53 CB          3.8587  -12.7786  -42.0616 C.3       4 UNK        -0.1800 
     54 N           2.5812  -10.8379  -42.8233 N.am      4 UNK        -0.5000 
     55 C           1.7332   -9.8137  -42.6581 C.2       3 UNK         0.5000 
     56 O           0.8006   -9.8212  -41.8537 O.2       3 UNK        -0.5000 
     57 CA          1.9162   -8.6224  -43.6139 C.3       3 UNK         0.1400 
     58 CB          3.1459   -7.7864  -43.2262 C.3       3 UNK        -0.1800 
     59 N           2.0573   -9.0877  -44.9938 N.am      3 UNK        -0.5000 
     60 C           1.0543   -9.5777  -45.7396 C.2       2 UNK         0.5000 
     61 O          -0.1279   -9.5671  -45.3979 O.2       2 UNK        -0.5000 
     62 CA          1.4599  -10.2500  -47.0573 C.3       2 UNK         0.1400 
     63 CB          1.8811   -9.2049  -48.1083 C.3       2 UNK        -0.1800 
     64 N           2.5416  -11.1833  -46.7648 N.am      2 UNK        -0.5000 
     65 C           3.0772  -12.1072  -47.5631 C.2       1 UNK         0.5000 
     66 O           2.7431  -12.2719  -48.7367 O.2       1 UNK        -0.5000 
     67 C          -0.5992  -22.6829  -48.3081 C.2       11 UNK         0.5000 
     68 O          -0.5836  -23.7740  -48.8787 O.2       11 UNK        -0.5000 
     69 N          -1.6673  -21.8715  -48.2912 N.am      12 UNK        -0.5000 
     70 CA         -2.9543  -22.1907  -48.9105 C.3       12 UNK         0.1400 
     71 CB         -3.8955  -20.9808  -48.8117 C.3       12 UNK        -0.1800 
     72 C          -3.6033  -23.4508  -48.3067 C.2       12 UNK         0.5000 
     73 O          -4.0445  -24.3229  -49.0537 O.2       12 UNK        -0.5000 
     74 N          -3.6035  -23.5554  -46.9705 N.am      13 UNK        -0.5000 
     75 CA         -4.1022  -24.7156  -46.2295 C.3       13 UNK         0.1400 
     76 CB         -4.0880  -24.4128  -44.7239 C.3       13 UNK        -0.1800 
     77 C          -3.3263  -26.0112  -46.5343 C.2       13 UNK         0.5000 
     78 O          -3.9465  -27.0663  -46.6671 O.2       13 UNK        -0.5000 
     79 N          -1.9966  -25.9066  -46.6678 N.am      14 UNK        -0.5000 
     80 CA         -1.1128  -27.0072  -47.0535 C.3       14 UNK         0.1400 
     81 CB          0.3491  -26.6055  -46.8044 C.3       14 UNK        -0.1800 
     82 C          -1.3171  -27.4518  -48.5140 C.2       14 UNK         0.5000 
     83 O          -1.3036  -28.6527  -48.7876 O.2       14 UNK        -0.5000 
     84 N          -1.5145  -26.4839  -49.4207 N.am      15 UNK        -0.5000 
     85 CA         -1.7927  -26.7169  -50.8398 C.3       15 UNK         0.1400 
     86 CB         -1.5620  -25.4177  -51.6210 C.3       15 UNK        -0.1800 
     87 C          -3.1960  -27.3027  -51.1033 C.2       15 UNK         0.5000 
     88 O          -3.3701  -28.0046  -52.1005 O.2       15 UNK        -0.5000 
     89 N          -4.1452  -27.0427  -50.1910 N.am      16 UNK        -0.5000 
     90 CA         -5.4581  -27.6769  -50.0298 C.3       16 UNK         0.1400 
     91 CB         -5.2845  -29.1155  -49.4988 C.3       16 UNK        -0.1800 
     92 C          -6.3442  -27.6072  -51.2891 C.2       16 UNK         0.5000 
     93 O          -7.0747  -26.6332  -51.4659 O.2       16 UNK        -0.5000 
     94 N          -6.2637  -28.6278  -52.1532 N.am      17 UNK        -0.5000 
     95 CA         -6.9580  -28.6922  -53.4419 C.3       17 UNK         0.1400 
     96 CB         -6.7803  -30.0989  -54.0329 C.3       17 UNK        -0.1800 
     97 C          -6.4845  -27.6205  -54.4458 C.2       17 UNK         0.5000 
     98 O          -7.2472  -27.2505  -55.3390 O.2       17 UNK        -0.5000 
     99 N          -5.2502  -27.1330  -54.2687 N.am      18 UNK        -0.5000 
    100 CA        -4.6253  -26.0774  -55.0622 C.3       18 UNK         0.1400 
    101 CB        -3.3447  -26.6452  -55.7017 C.3       18 UNK        -0.1800 
    102 C         -4.3453  -24.8326  -54.1958 C.2       18 UNK         0.5000 
    103 O         -3.3449  -24.1521  -54.4242 O.2       18 UNK        -0.5000 
    104 N         -5.2119  -24.5690  -53.2027 N.am      19 UNK        -0.5000 
    105 CA        -5.0729  -23.5023  -52.2043 C.3       19 UNK         0.1400 
    106 CB        -6.2822  -23.5075  -51.2547 C.3       19 UNK        -0.1800 
    107 C         -4.8718  -22.0923  -52.7815 C.2       19 UNK         0.5000 
    108 O         -3.9883  -21.3758  -52.3174 O.2       19 UNK        -0.5000 
    109 N         -5.7154  -21.7211  -53.7574 N.am      20 UNK        -0.5000 
    110 CA        -5.7408  -20.4300  -54.4640 C.3       20 UNK         0.1400 
    111 CB        -4.4600  -20.2521  -55.3061 C.3       20 UNK        -0.1800 
    112 C         -6.0161  -19.2021  -53.5617 C.2       20 UNK         0.5000 
    113 O         -5.7747  -18.0706  -53.9869 O.2       20 UNK        -0.5000 
    114 N         -6.5201  -19.4433  -52.3415 N.am      21 UNK        -0.5000 
    115 CA        -6.8338  -18.5103  -51.2503 C.3       21 UNK         0.1400 
    116 CB        -7.9342  -17.5139  -51.6624 C.3       21 UNK        -0.1800 
    117 C         -5.6160  -17.7777  -50.6481 C.2       21 UNK         0.5000 
    118 O         -5.4804  -17.7486  -49.4250 O.2       21 UNK        -0.5000 
    119 N         -4.7707  -17.1957  -51.5064 N.am      22 UNK        -0.5000 
    120 CA        -3.5548  -16.4279  -51.1795 C.3       22 UNK         0.1400 
    121 C         -3.8068  -15.0860  -50.4230 C.2       22 UNK         0.5000 
    122 N         -5.0227  -14.5536  -50.4039 N.am      22 UNK        -0.7600 
    123 O         -2.8820  -14.4922  -49.8758 O.2       22 UNK        -0.5000 
    124 C124       -2.4441  -17.2880  -50.5132 C.3       23 UNK        -0.0398 
    125 S125       -1.9262  -18.6989  -51.5454 S.3       23 UNK        -0.2404 
    126 C126       -0.4599  -18.0182  -52.3812 C.3       23 UNK        -0.0205 
    127 H127        7.5293  -10.8248  -46.2077 H         1 UNK         0.0600 
    128 H128        7.2232  -10.6794  -44.4740 H         1 UNK         0.0600 
    129 H129        6.6536   -9.4248  -45.5797 H         1 UNK         0.0600 
    130 H130        6.1714  -12.2621  -47.1985 H         1 UNK         0.3000 
    131 H131        3.8096  -13.3490  -45.9820 H         1 UNK         0.0600 
    132 H132        4.9102  -13.8519  -48.7908 H         1 UNK         0.0800 
    133 H133        5.5455  -14.6038  -47.3640 H         1 UNK         0.0800 
    134 H134        3.7967  -15.2294  -50.2120 H         1 UNK         0.0800 
    135 H135        2.2066  -14.6840  -49.7324 H         1 UNK         0.0800 
    136 H136        0.6954  -15.8944  -51.0970 H         1 UNK         0.1150 
    137 H137        1.1225  -20.1131  -51.7037 H         1 UNK         0.1150 
    138 H138        3.9720  -17.9948  -49.3029 H         1 UNK         0.1150 
    139 H139        3.9257  -20.7599  -51.1205 H         1 UNK         0.0800 
    140 H140        4.1542  -20.3414  -49.4392 H         1 UNK         0.0800 
    141 H141        0.8737  -20.3389  -48.5607 H         1 UNK         0.0800 
    142 H142        2.2537  -20.7862  -47.5915 H         1 UNK         0.0800 
    143 H143        1.2610  -23.1195  -47.3486 H         1 UNK         0.0600 
    144 H144        0.4570  -20.7909  -45.9551 H         1 UNK         0.3000 
    145 H145       -1.5082  -22.4439  -43.4513 H         1 UNK         0.0600 
    146 H146        1.1891  -20.9941  -43.3665 H         1 UNK         0.0600 
    147 H147        0.0993  -21.2625  -42.0070 H         1 UNK         0.0600 
    148 H148        0.8994  -22.6252  -42.7726 H         1 UNK         0.0600 
    149 H149       -0.8882  -19.7017  -43.8069 H         1 UNK         0.3000 
    150 H150       -3.6744  -18.9078  -45.9683 H         1 UNK         0.0600 
    151 H151       -4.4972  -18.8790  -43.6193 H         1 UNK         0.0600 
    152 H152       -4.0007  -17.2708  -44.1262 H         1 UNK         0.0600 
    153 H153       -2.9612  -18.2230  -43.0683 H         1 UNK         0.0600 
    154 H154       -1.6356  -17.2279  -44.9718 H         1 UNK         0.3000 
    155 H155        0.7187  -17.6565  -47.6505 H         1 UNK         0.0600 
    156 H156       -1.0617  -15.3645  -46.6453 H         1 UNK         0.0600 
    157 H157        0.4384  -15.1833  -47.5487 H         1 UNK         0.0600 
    158 H158       -0.9582  -15.9276  -48.2998 H         1 UNK         0.0600 
    159 H159        0.8044  -16.1737  -45.2058 H         1 UNK         0.3000 
    160 H160        2.3918  -18.6420  -43.1885 H         1 UNK         0.0600 
    161 H161        4.2137  -17.5815  -44.4732 H         1 UNK         0.0600 
    162 H162        3.3723  -16.0404  -44.4843 H         1 UNK         0.0600 
    163 H163        3.9711  -16.7089  -42.9666 H         1 UNK         0.0600 
    164 H164        1.4881  -15.9166  -42.8094 H         1 UNK         0.3000 
    165 H165       -1.7465  -16.7804  -41.5512 H         1 UNK         0.0600 
    166 H166       -0.9524  -15.7079  -39.4631 H         1 UNK         0.0600 
    167 H167       -0.2908  -17.3294  -39.5936 H         1 UNK         0.0600 
    168 H168        0.7283  -15.9392  -39.9479 H         1 UNK         0.0600 
    169 H169       -0.3294  -14.3256  -41.5058 H         1 UNK         0.3000 
    170 H170       -0.5808  -13.3267  -44.8294 H         1 UNK         0.0600 
    171 H171       -2.9658  -12.8933  -44.2132 H         1 UNK         0.0600 
    172 H172       -2.4634  -12.3376  -42.6202 H         1 UNK         0.0600 
    173 H173       -1.9922  -11.4389  -44.0635 H         1 UNK         0.0600 
    174 H174       -0.0191  -11.7602  -42.5639 H         1 UNK         0.3000 
    175 H175        2.0463  -12.0379  -41.1894 H         1 UNK         0.0600 
    176 H176        4.3209  -12.9520  -43.0340 H         1 UNK         0.0600 
    177 H177        4.5261  -12.1390  -41.4840 H         1 UNK         0.0600 
    178 H178        3.8052  -13.7404  -41.5502 H         1 UNK         0.0600 
    179 H179        3.3141  -10.7599  -43.5251 H         1 UNK         0.3000 
    180 H180        1.0311   -7.9866  -43.5431 H         1 UNK         0.0600 
    181 H181        4.0693   -8.3623  -43.3027 H         1 UNK         0.0600 
    182 H182        3.0654   -7.4284  -42.1991 H         1 UNK         0.0600 
    183 H183        3.2438   -6.9110  -43.8684 H         1 UNK         0.0600 
    184 H184        3.0000   -9.1318  -45.3542 H         1 UNK         0.3000 
    185 H185        0.6043  -10.8146  -47.4332 H         1 UNK         0.0600 
    186 H186        2.0729   -9.6672  -49.0764 H         1 UNK         0.0600 
    187 H187        1.0944   -8.4643  -48.2574 H         1 UNK         0.0600 
    188 H188        2.7839   -8.6714  -47.8093 H         1 UNK         0.0600 
    189 H189        2.9406  -11.1107  -45.8338 H         1 UNK         0.3000 
    190 H190       -1.5936  -20.9661  -47.8344 H         1 UNK         0.3000 
    191 H191       -2.7676  -22.3863  -49.9680 H         1 UNK         0.0600 
    192 H192       -4.1098  -20.7135  -47.7775 H         1 UNK         0.0600 
    193 H193       -4.8469  -21.1826  -49.3035 H         1 UNK         0.0600 
    194 H194       -3.4629  -20.1068  -49.2978 H         1 UNK         0.0600 
    195 H195       -3.2616  -22.7734  -46.4167 H         1 UNK         0.3000 
    196 H196       -5.1392  -24.8754  -46.5319 H         1 UNK         0.0600 
    197 H197       -4.4823  -25.2538  -44.1522 H         1 UNK         0.0600 
    198 H198       -4.7033  -23.5437  -44.4908 H         1 UNK         0.0600 
    199 H199       -3.0788  -24.2143  -44.3630 H         1 UNK         0.0600 
    200 H200       -1.5545  -25.0114  -46.4812 H         1 UNK         0.3000 
    201 H201       -1.3407  -27.8614  -46.4125 H         1 UNK         0.0600 
    202 H202        0.5181  -26.3677  -45.7541 H         1 UNK         0.0600 
    203 H203        0.6343  -25.7337  -47.3937 H         1 UNK         0.0600 
    204 H204        1.0280  -27.4174  -47.0679 H         1 UNK         0.0600 
    205 H205       -1.4431  -25.5143  -49.1242 H         1 UNK         0.3000 
    206 H206       -1.0717  -27.4512  -51.2050 H         1 UNK         0.0600 
    207 H207       -0.5220  -25.0990  -51.5494 H         1 UNK         0.0600 
    208 H208       -1.7876  -25.5494  -52.6791 H         1 UNK         0.0600 
    209 H209       -2.1787  -24.6055  -51.2410 H         1 UNK         0.0600 
    210 H210       -3.9229  -26.3435  -49.4903 H         1 UNK         0.3000 
    211 H211       -5.9761  -27.1050  -49.2583 H         1 UNK         0.0600 
    212 H212       -4.6777  -29.7327  -50.1620 H         1 UNK         0.0600 
    213 H213       -6.2494  -29.6087  -49.3743 H         1 UNK         0.0600 
    214 H214       -4.7973  -29.1101  -48.5234 H         1 UNK         0.0600 
    215 H215       -5.6041  -29.3669  -51.9567 H         1 UNK         0.3000 
    216 H216       -8.0221  -28.5266  -53.2611 H         1 UNK         0.0600 
    217 H217       -7.3082  -30.1934  -54.9828 H         1 UNK         0.0600 
    218 H218       -7.1788  -30.8617  -53.3638 H         1 UNK         0.0600 
    219 H219       -5.7296  -30.3274  -54.2168 H         1 UNK         0.0600 
    220 H220       -4.6944  -27.4949  -53.4981 H         1 UNK         0.3000 
    221 H221       -5.2893  -25.7540  -55.8659 H         1 UNK         0.0600 
    222 H222       -2.6149  -26.9362  -54.9448 H         1 UNK         0.0600 
    223 H223       -3.5648  -27.5234  -56.3088 H         1 UNK         0.0600 
    224 H224       -2.8702  -25.9126  -56.3556 H         1 UNK         0.0600 
    225 H225       -5.9909  -25.2003  -53.0699 H         1 UNK         0.3000 
    226 H226       -4.1864  -23.7293  -51.6157 H         1 UNK         0.0600 
    227 H227       -6.2667  -24.3828  -50.6077 H         1 UNK         0.0600 
    228 H228       -6.2764  -22.6385  -50.5962 H         1 UNK         0.0600 
    229 H229       -7.2277  -23.5036  -51.7976 H         1 UNK         0.0600 
    230 H230       -6.4104  -22.3921  -54.0539 H         1 UNK         0.3000 
    231 H231       -6.5824  -20.4835  -55.1557 H         1 UNK         0.0600 
    232 H232       -4.5384  -19.3860  -55.9641 H         1 UNK         0.0600 
    233 H233       -4.2786  -21.1222  -55.9372 H         1 UNK         0.0600 
    234 H234       -3.5808  -20.1052  -54.6777 H         1 UNK         0.0600 
    235 H235       -6.6502  -20.4164  -52.1081 H         1 UNK         0.3000 
    236 H236       -7.2442  -19.1300  -50.4513 H         1 UNK         0.0600 
    237 H237       -8.2289  -16.8900  -50.8178 H         1 UNK         0.0600 
    238 H238       -8.8272  -18.0350  -52.0076 H         1 UNK         0.0600 
    239 H239       -7.6066  -16.8470  -52.4602 H         1 UNK         0.0600 
    240 H240       -4.9802  -17.3003  -52.4959 H         1 UNK         0.3000 
    241 H241       -3.1631  -16.1081  -52.1455 H         1 UNK         0.0600 
    242 H242       -5.1733  -13.6799  -49.9245 H         1 UNK         0.3800 
    243 H243       -5.7920  -15.0161  -50.8603 H         1 UNK         0.3800 
    244 H244       -1.5621  -16.6829  -50.3125 H         1 UNK         0.0800 
    245 H245       -2.7765  -17.6665  -49.5459 H         1 UNK         0.0800 
    246 H246       -0.2499  -18.6265  -53.2622 H         1 UNK         0.0800 
    247 H247       -0.6797  -17.0160  -52.7523 H         1 UNK         0.0800 
@<TRIPOS>BOND
     1    1    2 1    
     2    1  127 1    
     3    1  128 1    
     4    1  129 1    
     5    2    3 2    
     6    2    4 am   BACKBONE|DICT|INTERRES
     7    4    5 1    
     8    4  130 1    
     9    5    6 1    
    10    5   65 1    
    11    5  131 1    
    12    6    7 1    
    13    6  132 1    
    14    6  133 1    
    15    7    8 1    
    16    8    9 1    
    17    8  134 1    
    18    8  135 1    
    19    9   10 ar   
    20    9   14 ar   
    21   10   11 ar   
    22   10  136 1    
    23   11   12 ar   
    24   11  126 1    
    25   12   13 ar   
    26   12  137 1    
    27   13   14 ar   
    28   13   15 1    
    29   14  138 1    
    30   15   16 1    
    31   15  139 1    
    32   15  140 1    
    33   16   17 1    
    34   17   18 1    
    35   17  141 1    
    36   17  142 1    
    37   18   19 1    
    38   18   67 1    
    39   18  143 1    
    40   19   20 am   BACKBONE|DICT|INTERRES
    41   19  144 1    
    42   20   21 2    
    43   20   22 1    
    44   22   23 1    
    45   22   24 1    
    46   22  145 1    
    47   23  146 1    
    48   23  147 1    
    49   23  148 1    
    50   24   25 am   BACKBONE|DICT|INTERRES
    51   24  149 1    
    52   25   26 2    
    53   25   27 1    
    54   27   28 1    
    55   27   29 1    
    56   27  150 1    
    57   28  151 1    
    58   28  152 1    
    59   28  153 1    
    60   29   30 am   BACKBONE|DICT|INTERRES
    61   29  154 1    
    62   30   31 2    
    63   30   32 1    
    64   32   33 1    
    65   32   34 1    
    66   32  155 1    
    67   33  156 1    
    68   33  157 1    
    69   33  158 1    
    70   34   35 am   BACKBONE|DICT|INTERRES
    71   34  159 1    
    72   35   36 2    
    73   35   37 1    
    74   37   38 1    
    75   37   39 1    
    76   37  160 1    
    77   38  161 1    
    78   38  162 1    
    79   38  163 1    
    80   39   40 am   BACKBONE|DICT|INTERRES
    81   39  164 1    
    82   40   41 2    
    83   40   42 1    
    84   42   43 1    
    85   42   44 1    
    86   42  165 1    
    87   43  166 1    
    88   43  167 1    
    89   43  168 1    
    90   44   45 am   BACKBONE|DICT|INTERRES
    91   44  169 1    
    92   45   46 2    
    93   45   47 1    
    94   47   48 1    
    95   47   49 1    
    96   47  170 1    
    97   48  171 1    
    98   48  172 1    
    99   48  173 1    
   100   49   50 am   BACKBONE|DICT|INTERRES
   101   49  174 1    
   102   50   51 2    
   103   50   52 1    
   104   52   53 1    
   105   52   54 1    
   106   52  175 1    
   107   53  176 1    
   108   53  177 1    
   109   53  178 1    
   110   54   55 am   BACKBONE|DICT|INTERRES
   111   54  179 1    
   112   55   56 2    
   113   55   57 1    
   114   57   58 1    
   115   57   59 1    
   116   57  180 1    
   117   58  181 1    
   118   58  182 1    
   119   58  183 1    
   120   59   60 am   BACKBONE|DICT|INTERRES
   121   59  184 1    
   122   60   61 2    
   123   60   62 1    
   124   62   63 1    
   125   62   64 1    
   126   62  185 1    
   127   63  186 1    
   128   63  187 1    
   129   63  188 1    
   130   64   65 am   BACKBONE|DICT|INTERRES
   131   64  189 1    
   132   65   66 2    
   133   67   68 2    
   134   67   69 am   BACKBONE|DICT|INTERRES
   135   69   70 1    
   136   69  190 1    
   137   70   71 1    
   138   70   72 1    
   139   70  191 1    
   140   71  192 1    
   141   71  193 1    
   142   71  194 1    
   143   72   73 2    
   144   72   74 am   BACKBONE|DICT|INTERRES
   145   74   75 1    
   146   74  195 1    
   147   75   76 1    
   148   75   77 1    
   149   75  196 1    
   150   76  197 1    
   151   76  198 1    
   152   76  199 1    
   153   77   78 2    
   154   77   79 am   BACKBONE|DICT|INTERRES
   155   79   80 1    
   156   79  200 1    
   157   80   81 1    
   158   80   82 1    
   159   80  201 1    
   160   81  202 1    
   161   81  203 1    
   162   81  204 1    
   163   82   83 2    
   164   82   84 am   BACKBONE|DICT|INTERRES
   165   84   85 1    
   166   84  205 1    
   167   85   86 1    
   168   85   87 1    
   169   85  206 1    
   170   86  207 1    
   171   86  208 1    
   172   86  209 1    
   173   87   88 2    
   174   87   89 am   BACKBONE|DICT|INTERRES
   175   89   90 1    
   176   89  210 1    
   177   90   91 1    
   178   90   92 1    
   179   90  211 1    
   180   91  212 1    
   181   91  213 1    
   182   91  214 1    
   183   92   93 2    
   184   92   94 am   BACKBONE|DICT|INTERRES
   185   94   95 1    
   186   94  215 1    
   187   95   96 1    
   188   95   97 1    
   189   95  216 1    
   190   96  217 1    
   191   96  218 1    
   192   96  219 1    
   193   97   98 2    
   194   97   99 am   BACKBONE|DICT|INTERRES
   195   99  100 1    
   196   99  220 1    
   197  100  101 1    
   198  100  102 1    
   199  100  221 1    
   200  101  222 1    
   201  101  223 1    
   202  101  224 1    
   203  102  103 2    
   204  102  104 am   BACKBONE|DICT|INTERRES
   205  104  105 1    
   206  104  225 1    
   207  105  106 1    
   208  105  107 1    
   209  105  226 1    
   210  106  227 1    
   211  106  228 1    
   212  106  229 1    
   213  107  108 2    
   214  107  109 am   BACKBONE|DICT|INTERRES
   215  109  110 1    
   216  109  230 1    
   217  110  111 1    
   218  110  112 1    
   219  110  231 1    
   220  111  232 1    
   221  111  233 1    
   222  111  234 1    
   223  112  113 2    
   224  112  114 am   BACKBONE|DICT|INTERRES
   225  114  115 1    
   226  114  235 1    
   227  115  116 1    
   228  115  117 1    
   229  115  236 1    
   230  116  237 1    
   231  116  238 1    
   232  116  239 1    
   233  117  118 2    
   234  117  119 am   BACKBONE|DICT|INTERRES
   235  119  120 1    
   236  119  240 1    
   237  120  121 1    
   238  120  124 1    
   239  120  241 1    
   240  121  122 am   BACKBONE|DICT|INTERRES
   241  121  123 2    
   242  122  242 1    
   243  122  243 1    
   244  124  125 1    
   245  124  244 1    
   246  124  245 1    
   247  125  126 1    
   248  126  246 1    
   249  126  247 1    
@<TRIPOS>SUBSTRUCTURE
     1 UNK         1 GROUP             0       ****    0 ROOT    
