@<TRIPOS>MOLECULE
3R540
247   249    1
SMALL
USER_CHARGES


@<TRIPOS>ATOM
      1 CA         -0.6640   -9.2392  -45.0420 C.3       0 UNK        -0.1800 
      2 C          -0.1142  -10.6549  -44.9637 C.2       0 UNK         0.5000 
      3 O           1.0958  -10.8324  -44.8152 O.2       0 UNK        -0.5000 
      4 N          -0.9952  -11.6614  -45.0535 N.am      1 UNK        -0.5000 
      5 CA         -0.6654  -13.0946  -45.0531 C.3       1 UNK         0.1400 
      6 C6         -1.9040  -13.9870  -45.3154 C.3       23 UNK        -0.0398 
      7 S7         -2.6791  -13.6331  -46.9287 S.3       23 UNK        -0.2404 
      8 C8         -4.1632  -14.6859  -46.8636 C.3       23 UNK        -0.0205 
      9 C9         -3.8306  -16.1670  -46.9803 C.ar      23 UNK        -0.0193 
     10 C10        -3.5806  -16.7365  -48.2341 C.ar      23 UNK        -0.1150 
     11 C11        -3.2883  -18.0996  -48.3506 C.ar      23 UNK        -0.0193 
     12 C12        -3.2542  -18.8910  -47.2016 C.ar      23 UNK        -0.1150 
     13 C13        -3.5160  -18.3389  -45.9461 C.ar      23 UNK        -0.0193 
     14 C14        -3.7998  -16.9748  -45.8387 C.ar      23 UNK        -0.1150 
     15 C15        -3.4663  -19.2261  -44.7149 C.3       23 UNK        -0.0205 
     16 S16        -4.7565  -20.5040  -44.7536 S.3       23 UNK        -0.2404 
     17 C17        -3.9066  -21.8939  -43.9340 C.3       23 UNK        -0.0398 
     18 CA         -3.2273  -22.8239  -44.9687 C.3       11 UNK         0.1400 
     19 N          -1.9758  -22.2641  -45.5009 N.am      11 UNK        -0.5000 
     20 C          -1.3236  -22.7381  -46.5724 C.2       10 UNK         0.5000 
     21 O          -1.7396  -23.6783  -47.2489 O.2       10 UNK        -0.5000 
     22 CA          0.0227  -22.0953  -46.9449 C.3       10 UNK         0.1400 
     23 CB         -0.1323  -21.1989  -48.1828 C.3       10 UNK        -0.1800 
     24 N           0.6386  -21.3408  -45.8493 N.am      10 UNK        -0.5000 
     25 C           1.2091  -21.9103  -44.7752 C.2       9 UNK         0.5000 
     26 O           1.1993  -23.1252  -44.5770 O.2       9 UNK        -0.5000 
     27 CA          1.8975  -20.9920  -43.7432 C.3       9 UNK         0.1400 
     28 CB          3.4095  -20.9341  -44.0068 C.3       9 UNK        -0.1800 
     29 N           1.3728  -19.6279  -43.7216 N.am      9 UNK        -0.5000 
     30 C           0.1442  -19.2873  -43.3109 C.2       8 UNK         0.5000 
     31 O          -0.6610  -20.0898  -42.8376 O.2       8 UNK        -0.5000 
     32 CA         -0.2759  -17.8143  -43.5047 C.3       8 UNK         0.1400 
     33 CB         -0.0920  -17.0276  -42.1996 C.3       8 UNK        -0.1800 
     34 N           0.4063  -17.1160  -44.6011 N.am      8 UNK        -0.5000 
     35 C           0.4596  -17.5283  -45.8782 C.2       7 UNK         0.5000 
     36 O          -0.0717  -18.5636  -46.2735 O.2       7 UNK        -0.5000 
     37 CA          1.2762  -16.6890  -46.8780 C.3       7 UNK         0.1400 
     38 CB          0.3541  -15.9342  -47.8445 C.3       7 UNK        -0.1800 
     39 N           2.1925  -15.7356  -46.2548 N.am      7 UNK        -0.5000 
     40 C           3.2964  -16.0430  -45.5615 C.2       6 UNK         0.5000 
     41 O           3.6458  -17.2023  -45.3306 O.2       6 UNK        -0.5000 
     42 CA          4.1309  -14.8587  -45.0172 C.3       6 UNK         0.1400 
     43 CB          5.6438  -15.1563  -45.0301 C.3       6 UNK        -0.1800 
     44 N           3.8595  -13.5636  -45.6606 N.am      6 UNK        -0.5000 
     45 C           4.0024  -13.2432  -46.9575 C.2       5 UNK         0.5000 
     46 O           4.3736  -14.0323  -47.8263 O.2       5 UNK        -0.5000 
     47 CA          3.6621  -11.7956  -47.3584 C.3       5 UNK         0.1400 
     48 CB          2.2193  -11.6991  -47.8757 C.3       5 UNK        -0.1800 
     49 N           3.8643  -10.8438  -46.2621 N.am      5 UNK        -0.5000 
     50 C           5.0781  -10.4009  -45.9011 C.2       4 UNK         0.5000 
     51 O           6.1178  -10.7368  -46.4707 O.2       4 UNK        -0.5000 
     52 CA          5.1716   -9.4129  -44.7231 C.3       4 UNK         0.1400 
     53 CB          5.2395   -7.9692  -45.2452 C.3       4 UNK        -0.1800 
     54 N           4.0995   -9.5013  -43.7309 N.am      4 UNK        -0.5000 
     55 C           3.8134  -10.5642  -42.9681 C.2       3 UNK         0.5000 
     56 O           4.3355  -11.6711  -43.1145 O.2       3 UNK        -0.5000 
     57 CA          2.7918  -10.3561  -41.8350 C.3       3 UNK         0.1400 
     58 CB          2.1294   -8.9623  -41.8210 C.3       3 UNK        -0.1800 
     59 N           1.7489  -11.3668  -41.9448 N.am      3 UNK        -0.5000 
     60 C           1.4399  -12.2776  -41.0141 C.2       2 UNK         0.5000 
     61 O           2.0276  -12.3760  -39.9357 O.2       2 UNK        -0.5000 
     62 CA          0.2607  -13.2270  -41.3134 C.3       2 UNK         0.1400 
     63 CB         -0.8324  -13.1031  -40.2391 C.3       2 UNK        -0.1800 
     64 N          -0.3505  -12.9852  -42.6225 N.am      2 UNK        -0.5000 
     65 C           0.0560  -13.5445  -43.7679 C.2       1 UNK         0.5000 
     66 O           0.9732  -14.3609  -43.8428 O.2       1 UNK        -0.5000 
     67 C          -3.0396  -24.2504  -44.4095 C.2       11 UNK         0.5000 
     68 O          -3.9792  -25.0437  -44.4710 O.2       11 UNK        -0.5000 
     69 N          -1.8212  -24.5875  -43.9583 N.am      12 UNK        -0.5000 
     70 CA         -1.4301  -25.9476  -43.5720 C.3       12 UNK         0.1400 
     71 CB         -0.0817  -25.8943  -42.8385 C.3       12 UNK        -0.1800 
     72 C          -1.3574  -26.9198  -44.7699 C.2       12 UNK         0.5000 
     73 O          -1.4302  -28.1324  -44.5704 O.2       12 UNK        -0.5000 
     74 N          -1.2401  -26.3701  -45.9858 N.am      13 UNK        -0.5000 
     75 CA         -1.2483  -27.0809  -47.2616 C.3       13 UNK         0.1400 
     76 CB         -0.0209  -26.6324  -48.0763 C.3       13 UNK        -0.1800 
     77 C          -2.5619  -26.8323  -48.0319 C.2       13 UNK         0.5000 
     78 O          -2.5781  -26.9882  -49.2520 O.2       13 UNK        -0.5000 
     79 N          -3.6331  -26.4289  -47.3284 N.am      14 UNK        -0.5000 
     80 CA         -4.9741  -26.1368  -47.8530 C.3       14 UNK         0.1400 
     81 CB         -5.6491  -27.4247  -48.3706 C.3       14 UNK        -0.1800 
     82 C          -4.9762  -24.9974  -48.8946 C.2       14 UNK         0.5000 
     83 O          -5.5532  -25.1390  -49.9735 O.2       14 UNK        -0.5000 
     84 N          -4.2910  -23.8972  -48.5541 N.am      15 UNK        -0.5000 
     85 CA         -4.0560  -22.7054  -49.3769 C.3       15 UNK         0.1400 
     86 CB         -5.3733  -21.9644  -49.6898 C.3       15 UNK        -0.1800 
     87 C          -3.2239  -23.0332  -50.6315 C.2       15 UNK         0.5000 
     88 O          -3.5372  -22.5588  -51.7229 O.2       15 UNK        -0.5000 
     89 N          -2.1850  -23.8593  -50.4343 N.am      16 UNK        -0.5000 
     90 CA         -1.3059  -24.4342  -51.4587 C.3       16 UNK         0.1400 
     91 CB         -0.4540  -23.3365  -52.1300 C.3       16 UNK        -0.1800 
     92 C          -2.0848  -25.3092  -52.4663 C.2       16 UNK         0.5000 
     93 O          -1.9543  -25.1326  -53.6786 O.2       16 UNK        -0.5000 
     94 N          -2.8829  -26.2387  -51.9208 N.am      17 UNK        -0.5000 
     95 CA         -3.7684  -27.1849  -52.6056 C.3       17 UNK         0.1400 
     96 CB         -2.9483  -28.2137  -53.4119 C.3       17 UNK        -0.1800 
     97 C          -4.8693  -26.4939  -53.4378 C.2       17 UNK         0.5000 
     98 O          -5.1750  -26.9396  -54.5461 O.2       17 UNK        -0.5000 
     99 N          -5.4512  -25.4257  -52.8717 N.am      18 UNK        -0.5000 
    100 CA        -6.4830  -24.5604  -53.4481 C.3       18 UNK         0.1400 
    101 CB        -7.8429  -25.2930  -53.4624 C.3       18 UNK        -0.1800 
    102 C         -6.0531  -23.9790  -54.8136 C.2       18 UNK         0.5000 
    103 O         -4.9777  -23.3828  -54.8919 O.2       18 UNK        -0.5000 
    104 N         -6.8856  -24.1540  -55.8524 N.am      19 UNK        -0.5000 
    105 CA        -6.6694  -23.7630  -57.2502 C.3       19 UNK         0.1400 
    106 CB        -5.5911  -24.6621  -57.8956 C.3       19 UNK        -0.1800 
    107 C         -6.3854  -22.2543  -57.3987 C.2       19 UNK         0.5000 
    108 O         -7.3252  -21.4584  -57.3842 O.2       19 UNK        -0.5000 
    109 N         -5.1011  -21.8901  -57.5100 N.am      20 UNK        -0.5000 
    110 CA        -4.6075  -20.5127  -57.5462 C.3       20 UNK         0.1400 
    111 CB        -3.1449  -20.5286  -58.0182 C.3       20 UNK        -0.1800 
    112 C         -4.7267  -19.7722  -56.1972 C.2       20 UNK         0.5000 
    113 O         -4.6109  -18.5460  -56.1845 O.2       20 UNK        -0.5000 
    114 N         -4.9368  -20.5165  -55.0985 N.am      21 UNK        -0.5000 
    115 CA        -5.0806  -20.0480  -53.7162 C.3       21 UNK         0.1400 
    116 CB        -6.3915  -19.2546  -53.5399 C.3       21 UNK        -0.1800 
    117 C         -3.8303  -19.2792  -53.2493 C.2       21 UNK         0.5000 
    118 O         -3.9201  -18.1093  -52.8777 O.2       21 UNK        -0.5000 
    119 N         -2.6837  -19.9611  -53.3531 N.am      22 UNK        -0.5000 
    120 CA        -1.3158  -19.5197  -53.0299 C.3       22 UNK         0.1400 
    121 C         -0.7700  -18.2610  -53.7754 C.2       22 UNK         0.5000 
    122 N         -1.4812  -17.6901  -54.7399 N.am      22 UNK        -0.7600 
    123 O          0.3497  -17.8278  -53.5171 O.2       22 UNK        -0.5000 
    124 C124       -1.0001  -19.5683  -51.5057 C.3       23 UNK        -0.0398 
    125 S125       -1.5179  -18.1336  -50.4949 S.3       23 UNK        -0.2404 
    126 C126       -3.0480  -18.7346  -49.7117 C.3       23 UNK        -0.0205 
    127 H127       -0.1365   -8.6758  -45.8116 H         1 UNK         0.0600 
    128 H128       -0.5256   -8.7297  -44.0888 H         1 UNK         0.0600 
    129 H129       -1.7272   -9.2307  -45.2830 H         1 UNK         0.0600 
    130 H130       -1.9723  -11.4450  -45.1922 H         1 UNK         0.3000 
    131 H131        0.0375  -13.2570  -45.8704 H         1 UNK         0.0600 
    132 H132       -2.6491  -13.8531  -44.5292 H         1 UNK         0.0800 
    133 H133       -1.6262  -15.0425  -45.3015 H         1 UNK         0.0800 
    134 H134       -4.7145  -14.4846  -45.9437 H         1 UNK         0.0800 
    135 H135       -4.8279  -14.4026  -47.6810 H         1 UNK         0.0800 
    136 H136       -3.6112  -16.1193  -49.1212 H         1 UNK         0.1150 
    137 H137       -3.0358  -19.9462  -47.2777 H         1 UNK         0.1150 
    138 H138       -3.9989  -16.5419  -44.8686 H         1 UNK         0.1150 
    139 H139       -2.4844  -19.6931  -44.6865 H         1 UNK         0.0800 
    140 H140       -3.5698  -18.6448  -43.7977 H         1 UNK         0.0800 
    141 H141       -4.6726  -22.4311  -43.3709 H         1 UNK         0.0800 
    142 H142       -3.1915  -21.5278  -43.1951 H         1 UNK         0.0800 
    143 H143       -3.9129  -22.9328  -45.8116 H         1 UNK         0.0600 
    144 H144       -1.5575  -21.5043  -44.9836 H         1 UNK         0.3000 
    145 H145        0.6987  -22.9103  -47.2124 H         1 UNK         0.0600 
    146 H146       -0.8234  -20.3758  -48.0065 H         1 UNK         0.0600 
    147 H147        0.8239  -20.7707  -48.4833 H         1 UNK         0.0600 
    148 H148       -0.5131  -21.7679  -49.0313 H         1 UNK         0.0600 
    149 H149        0.6112  -20.3278  -45.9306 H         1 UNK         0.3000 
    150 H150        1.7389  -21.4322  -42.7565 H         1 UNK         0.0600 
    151 H151        3.8456  -21.9340  -44.0107 H         1 UNK         0.0600 
    152 H152        3.9228  -20.3597  -43.2354 H         1 UNK         0.0600 
    153 H153        3.6317  -20.4738  -44.9706 H         1 UNK         0.0600 
    154 H154        1.9647  -18.9070  -44.1119 H         1 UNK         0.3000 
    155 H155       -1.3382  -17.8087  -43.7416 H         1 UNK         0.0600 
    156 H156       -0.5111  -17.5670  -41.3490 H         1 UNK         0.0600 
    157 H157       -0.6056  -16.0686  -42.2494 H         1 UNK         0.0600 
    158 H158        0.9610  -16.8405  -41.9862 H         1 UNK         0.0600 
    159 H159        0.8589  -16.2387  -44.3621 H         1 UNK         0.3000 
    160 H160        1.8718  -17.3925  -47.4632 H         1 UNK         0.0600 
    161 H161       -0.1810  -15.1298  -47.3461 H         1 UNK         0.0600 
    162 H162       -0.3933  -16.6003  -48.2750 H         1 UNK         0.0600 
    163 H163        0.9180  -15.5001  -48.6702 H         1 UNK         0.0600 
    164 H164        1.9779  -14.7574  -46.3679 H         1 UNK         0.3000 
    165 H165        3.8292  -14.7391  -43.9756 H         1 UNK         0.0600 
    166 H166        6.0101  -15.3440  -46.0397 H         1 UNK         0.0600 
    167 H167        6.2112  -14.3225  -44.6162 H         1 UNK         0.0600 
    168 H168        5.8773  -16.0355  -44.4285 H         1 UNK         0.0600 
    169 H169        3.5783  -12.8263  -45.0263 H         1 UNK         0.3000 
    170 H170        4.3223  -11.5203  -48.1840 H         1 UNK         0.0600 
    171 H171        1.5001  -12.0275  -47.1292 H         1 UNK         0.0600 
    172 H172        1.9670  -10.6774  -48.1598 H         1 UNK         0.0600 
    173 H173        2.0802  -12.3265  -48.7570 H         1 UNK         0.0600 
    174 H174        3.0461  -10.5586  -45.7352 H         1 UNK         0.3000 
    175 H175        6.1075   -9.6280  -44.2035 H         1 UNK         0.0600 
    176 H176        4.3127   -7.6785  -45.7415 H         1 UNK         0.0600 
    177 H177        5.4238   -7.2634  -44.4350 H         1 UNK         0.0600 
    178 H178        6.0493   -7.8502  -45.9665 H         1 UNK         0.0600 
    179 H179        3.5920   -8.6469  -43.5542 H         1 UNK         0.3000 
    180 H180        3.3452  -10.4729  -40.9014 H         1 UNK         0.0600 
    181 H181        1.5908   -8.7574  -42.7468 H         1 UNK         0.0600 
    182 H182        2.8666   -8.1719  -41.6747 H         1 UNK         0.0600 
    183 H183        1.4143   -8.8822  -41.0019 H         1 UNK         0.0600 
    184 H184        1.2796  -11.4029  -42.8421 H         1 UNK         0.3000 
    185 H185        0.6566  -14.2434  -41.2757 H         1 UNK         0.0600 
    186 H186       -1.6475  -13.8029  -40.4249 H         1 UNK         0.0600 
    187 H187       -0.4372  -13.3259  -39.2472 H         1 UNK         0.0600 
    188 H188       -1.2528  -12.0972  -40.2071 H         1 UNK         0.0600 
    189 H189       -1.0954  -12.3037  -42.6535 H         1 UNK         0.3000 
    190 H190       -1.0844  -23.8947  -43.9670 H         1 UNK         0.3000 
    191 H191       -2.1806  -26.3341  -42.8791 H         1 UNK         0.0600 
    192 H192        0.7188  -25.5475  -43.4926 H         1 UNK         0.0600 
    193 H193       -0.1250  -25.2280  -41.9767 H         1 UNK         0.0600 
    194 H194        0.2015  -26.8817  -42.4717 H         1 UNK         0.0600 
    195 H195       -1.2217  -25.3609  -46.0607 H         1 UNK         0.3000 
    196 H196       -1.1742  -28.1578  -47.0995 H         1 UNK         0.0600 
    197 H197        0.9021  -26.8067  -47.5232 H         1 UNK         0.0600 
    198 H198       -0.0659  -25.5715  -48.3239 H         1 UNK         0.0600 
    199 H199        0.0563  -27.1864  -49.0127 H         1 UNK         0.0600 
    200 H200       -3.5230  -26.3025  -46.3305 H         1 UNK         0.3000 
    201 H201       -5.5617  -25.7759  -47.0075 H         1 UNK         0.0600 
    202 H202       -6.6854  -27.2353  -48.6528 H         1 UNK         0.0600 
    203 H203       -5.6588  -28.1995  -47.6041 H         1 UNK         0.0600 
    204 H204       -5.1416  -27.8273  -49.2477 H         1 UNK         0.0600 
    205 H205       -3.7430  -23.9367  -47.7038 H         1 UNK         0.3000 
    206 H206       -3.4430  -22.0361  -48.7731 H         1 UNK         0.0600 
    207 H207       -5.9190  -21.7310  -48.7757 H         1 UNK         0.0600 
    208 H208       -6.0292  -22.5509  -50.3333 H         1 UNK         0.0600 
    209 H209       -5.1796  -21.0207  -50.2008 H         1 UNK         0.0600 
    210 H210       -2.0299  -24.1873  -49.4894 H         1 UNK         0.3000 
    211 H211       -0.6227  -25.1046  -50.9351 H         1 UNK         0.0600 
    212 H212        0.0832  -22.7440  -51.3897 H         1 UNK         0.0600 
    213 H213        0.2893  -23.7756  -52.7961 H         1 UNK         0.0600 
    214 H214       -1.0643  -22.6592  -52.7267 H         1 UNK         0.0600 
    215 H215       -2.8701  -26.3356  -50.9065 H         1 UNK         0.3000 
    216 H216       -4.2882  -27.7294  -51.8160 H         1 UNK         0.0600 
    217 H217       -3.5907  -28.9999  -53.8100 H         1 UNK         0.0600 
    218 H218       -2.4358  -27.7517  -54.2561 H         1 UNK         0.0600 
    219 H219       -2.1976  -28.6961  -52.7858 H         1 UNK         0.0600 
    220 H220       -5.1558  -25.1704  -51.9346 H         1 UNK         0.3000 
    221 H221       -6.5726  -23.7082  -52.7728 H         1 UNK         0.0600 
    222 H222       -7.8354  -26.1606  -54.1234 H         1 UNK         0.0600 
    223 H223       -8.1019  -25.6446  -52.4634 H         1 UNK         0.0600 
    224 H224       -8.6478  -24.6305  -53.7830 H         1 UNK         0.0600 
    225 H225       -7.7559  -24.6340  -55.6724 H         1 UNK         0.3000 
    226 H226       -7.6071  -23.9508  -57.7753 H         1 UNK         0.0600 
    227 H227       -5.9067  -25.7055  -57.8927 H         1 UNK         0.0600 
    228 H228       -5.4159  -24.3823  -58.9352 H         1 UNK         0.0600 
    229 H229       -4.6366  -24.6112  -57.3707 H         1 UNK         0.0600 
    230 H230       -4.4006  -22.6164  -57.4677 H         1 UNK         0.3000 
    231 H231       -5.1988  -19.9571  -58.2770 H         1 UNK         0.0600 
    232 H232       -2.7468  -19.5158  -58.0956 H         1 UNK         0.0600 
    233 H233       -3.0521  -20.9880  -59.0025 H         1 UNK         0.0600 
    234 H234       -2.5058  -21.0798  -57.3272 H         1 UNK         0.0600 
    235 H235       -4.9597  -21.5279  -55.2098 H         1 UNK         0.3000 
    236 H236       -5.1544  -20.9393  -53.0920 H         1 UNK         0.0600 
    237 H237       -6.5423  -18.9828  -52.4945 H         1 UNK         0.0600 
    238 H238       -6.3917  -18.3319  -54.1209 H         1 UNK         0.0600 
    239 H239       -7.2529  -19.8460  -53.8502 H         1 UNK         0.0600 
    240 H240       -2.7547  -20.9164  -53.6754 H         1 UNK         0.3000 
    241 H241       -0.7116  -20.3166  -53.4646 H         1 UNK         0.0600 
    242 H242       -1.1064  -16.8905  -55.2249 H         1 UNK         0.3800 
    243 H243       -2.4215  -18.0016  -54.9351 H         1 UNK         0.3800 
    244 H244       -1.4037  -20.4851  -51.0768 H         1 UNK         0.0800 
    245 H245        0.0796  -19.6564  -51.3763 H         1 UNK         0.0800 
    246 H246       -3.9010  -18.5159  -50.3522 H         1 UNK         0.0800 
    247 H247       -3.0077  -19.8185  -49.6159 H         1 UNK         0.0800 
@<TRIPOS>BOND
     1    1    2 1    
     2    1  127 1    
     3    1  128 1    
     4    1  129 1    
     5    2    3 2    
     6    2    4 am   BACKBONE|DICT|INTERRES
     7    4    5 1    
     8    4  130 1    
     9    5    6 1    
    10    5   65 1    
    11    5  131 1    
    12    6    7 1    
    13    6  132 1    
    14    6  133 1    
    15    7    8 1    
    16    8    9 1    
    17    8  134 1    
    18    8  135 1    
    19    9   10 ar   
    20    9   14 ar   
    21   10   11 ar   
    22   10  136 1    
    23   11   12 ar   
    24   11  126 1    
    25   12   13 ar   
    26   12  137 1    
    27   13   14 ar   
    28   13   15 1    
    29   14  138 1    
    30   15   16 1    
    31   15  139 1    
    32   15  140 1    
    33   16   17 1    
    34   17   18 1    
    35   17  141 1    
    36   17  142 1    
    37   18   19 1    
    38   18   67 1    
    39   18  143 1    
    40   19   20 am   BACKBONE|DICT|INTERRES
    41   19  144 1    
    42   20   21 2    
    43   20   22 1    
    44   22   23 1    
    45   22   24 1    
    46   22  145 1    
    47   23  146 1    
    48   23  147 1    
    49   23  148 1    
    50   24   25 am   BACKBONE|DICT|INTERRES
    51   24  149 1    
    52   25   26 2    
    53   25   27 1    
    54   27   28 1    
    55   27   29 1    
    56   27  150 1    
    57   28  151 1    
    58   28  152 1    
    59   28  153 1    
    60   29   30 am   BACKBONE|DICT|INTERRES
    61   29  154 1    
    62   30   31 2    
    63   30   32 1    
    64   32   33 1    
    65   32   34 1    
    66   32  155 1    
    67   33  156 1    
    68   33  157 1    
    69   33  158 1    
    70   34   35 am   BACKBONE|DICT|INTERRES
    71   34  159 1    
    72   35   36 2    
    73   35   37 1    
    74   37   38 1    
    75   37   39 1    
    76   37  160 1    
    77   38  161 1    
    78   38  162 1    
    79   38  163 1    
    80   39   40 am   BACKBONE|DICT|INTERRES
    81   39  164 1    
    82   40   41 2    
    83   40   42 1    
    84   42   43 1    
    85   42   44 1    
    86   42  165 1    
    87   43  166 1    
    88   43  167 1    
    89   43  168 1    
    90   44   45 am   BACKBONE|DICT|INTERRES
    91   44  169 1    
    92   45   46 2    
    93   45   47 1    
    94   47   48 1    
    95   47   49 1    
    96   47  170 1    
    97   48  171 1    
    98   48  172 1    
    99   48  173 1    
   100   49   50 am   BACKBONE|DICT|INTERRES
   101   49  174 1    
   102   50   51 2    
   103   50   52 1    
   104   52   53 1    
   105   52   54 1    
   106   52  175 1    
   107   53  176 1    
   108   53  177 1    
   109   53  178 1    
   110   54   55 am   BACKBONE|DICT|INTERRES
   111   54  179 1    
   112   55   56 2    
   113   55   57 1    
   114   57   58 1    
   115   57   59 1    
   116   57  180 1    
   117   58  181 1    
   118   58  182 1    
   119   58  183 1    
   120   59   60 am   BACKBONE|DICT|INTERRES
   121   59  184 1    
   122   60   61 2    
   123   60   62 1    
   124   62   63 1    
   125   62   64 1    
   126   62  185 1    
   127   63  186 1    
   128   63  187 1    
   129   63  188 1    
   130   64   65 am   BACKBONE|DICT|INTERRES
   131   64  189 1    
   132   65   66 2    
   133   67   68 2    
   134   67   69 am   BACKBONE|DICT|INTERRES
   135   69   70 1    
   136   69  190 1    
   137   70   71 1    
   138   70   72 1    
   139   70  191 1    
   140   71  192 1    
   141   71  193 1    
   142   71  194 1    
   143   72   73 2    
   144   72   74 am   BACKBONE|DICT|INTERRES
   145   74   75 1    
   146   74  195 1    
   147   75   76 1    
   148   75   77 1    
   149   75  196 1    
   150   76  197 1    
   151   76  198 1    
   152   76  199 1    
   153   77   78 2    
   154   77   79 am   BACKBONE|DICT|INTERRES
   155   79   80 1    
   156   79  200 1    
   157   80   81 1    
   158   80   82 1    
   159   80  201 1    
   160   81  202 1    
   161   81  203 1    
   162   81  204 1    
   163   82   83 2    
   164   82   84 am   BACKBONE|DICT|INTERRES
   165   84   85 1    
   166   84  205 1    
   167   85   86 1    
   168   85   87 1    
   169   85  206 1    
   170   86  207 1    
   171   86  208 1    
   172   86  209 1    
   173   87   88 2    
   174   87   89 am   BACKBONE|DICT|INTERRES
   175   89   90 1    
   176   89  210 1    
   177   90   91 1    
   178   90   92 1    
   179   90  211 1    
   180   91  212 1    
   181   91  213 1    
   182   91  214 1    
   183   92   93 2    
   184   92   94 am   BACKBONE|DICT|INTERRES
   185   94   95 1    
   186   94  215 1    
   187   95   96 1    
   188   95   97 1    
   189   95  216 1    
   190   96  217 1    
   191   96  218 1    
   192   96  219 1    
   193   97   98 2    
   194   97   99 am   BACKBONE|DICT|INTERRES
   195   99  100 1    
   196   99  220 1    
   197  100  101 1    
   198  100  102 1    
   199  100  221 1    
   200  101  222 1    
   201  101  223 1    
   202  101  224 1    
   203  102  103 2    
   204  102  104 am   BACKBONE|DICT|INTERRES
   205  104  105 1    
   206  104  225 1    
   207  105  106 1    
   208  105  107 1    
   209  105  226 1    
   210  106  227 1    
   211  106  228 1    
   212  106  229 1    
   213  107  108 2    
   214  107  109 am   BACKBONE|DICT|INTERRES
   215  109  110 1    
   216  109  230 1    
   217  110  111 1    
   218  110  112 1    
   219  110  231 1    
   220  111  232 1    
   221  111  233 1    
   222  111  234 1    
   223  112  113 2    
   224  112  114 am   BACKBONE|DICT|INTERRES
   225  114  115 1    
   226  114  235 1    
   227  115  116 1    
   228  115  117 1    
   229  115  236 1    
   230  116  237 1    
   231  116  238 1    
   232  116  239 1    
   233  117  118 2    
   234  117  119 am   BACKBONE|DICT|INTERRES
   235  119  120 1    
   236  119  240 1    
   237  120  121 1    
   238  120  124 1    
   239  120  241 1    
   240  121  122 am   BACKBONE|DICT|INTERRES
   241  121  123 2    
   242  122  242 1    
   243  122  243 1    
   244  124  125 1    
   245  124  244 1    
   246  124  245 1    
   247  125  126 1    
   248  126  246 1    
   249  126  247 1    
@<TRIPOS>SUBSTRUCTURE
     1 UNK         1 GROUP             0       ****    0 ROOT    
