@<TRIPOS>MOLECULE
3R540
247   249    1
SMALL
USER_CHARGES


@<TRIPOS>ATOM
      1 CA          1.3324  -11.7594  -51.2458 C.3       0 UNK        -0.1800 
      2 C           0.8872  -12.9860  -50.4628 C.2       0 UNK         0.5000 
      3 O           1.1341  -13.0703  -49.2595 O.2       0 UNK        -0.5000 
      4 N           0.2166  -13.9316  -51.1328 N.am      1 UNK        -0.5000 
      5 CA         -0.2962  -15.1874  -50.5683 C.3       1 UNK         0.1400 
      6 C6         -0.3952  -16.2869  -51.6594 C.3       23 UNK        -0.0398 
      7 S7         -0.1613  -17.9719  -51.0035 S.3       23 UNK        -0.2404 
      8 C8          1.5032  -18.3508  -51.6358 C.3       23 UNK        -0.0205 
      9 C9          1.8175  -19.8271  -51.4741 C.ar      23 UNK        -0.0193 
     10 C10         1.3249  -20.7405  -52.4067 C.ar      23 UNK        -0.1150 
     11 C11         1.5562  -22.1135  -52.2616 C.ar      23 UNK        -0.0193 
     12 C12         2.3187  -22.5538  -51.1747 C.ar      23 UNK        -0.1150 
     13 C13         2.8472  -21.6494  -50.2472 C.ar      23 UNK        -0.0193 
     14 C14         2.5905  -20.2827  -50.4046 C.ar      23 UNK        -0.1150 
     15 C15         3.7049  -22.1678  -49.0944 C.3       23 UNK        -0.0205 
     16 S16         3.3543  -21.3784  -47.4871 S.3       23 UNK        -0.2404 
     17 C17         1.5921  -21.7793  -47.2574 C.3       23 UNK        -0.0398 
     18 CA          1.3569  -22.9142  -46.2361 C.3       11 UNK         0.1400 
     19 N           1.8589  -22.5784  -44.9030 N.am      11 UNK        -0.5000 
     20 C           2.0898  -23.4422  -43.9075 C.2       10 UNK         0.5000 
     21 O           1.9666  -24.6619  -44.0281 O.2       10 UNK        -0.5000 
     22 CA          2.4723  -22.8291  -42.5411 C.3       10 UNK         0.1400 
     23 CB          3.3730  -23.7533  -41.6960 C.3       10 UNK        -0.1800 
     24 N           3.0325  -21.4750  -42.6439 N.am      10 UNK        -0.5000 
     25 C           4.1981  -21.1044  -43.1960 C.2       9 UNK         0.5000 
     26 O           5.0289  -21.8964  -43.6415 O.2       9 UNK        -0.5000 
     27 CA          4.4811  -19.5904  -43.2962 C.3       9 UNK         0.1400 
     28 CB          4.4052  -19.1297  -44.7598 C.3       9 UNK        -0.1800 
     29 N           3.5684  -18.7639  -42.5032 N.am      9 UNK        -0.5000 
     30 C           3.6367  -18.6013  -41.1755 C.2       8 UNK         0.5000 
     31 O           4.5022  -19.1160  -40.4667 O.2       8 UNK        -0.5000 
     32 CA          2.5340  -17.7407  -40.5288 C.3       8 UNK         0.1400 
     33 CB          2.8727  -16.2463  -40.6382 C.3       8 UNK        -0.1800 
     34 N           1.2081  -17.9841  -41.1024 N.am      8 UNK        -0.5000 
     35 C           0.5393  -19.1425  -41.0054 C.2       7 UNK         0.5000 
     36 O           0.9633  -20.1308  -40.4062 O.2       7 UNK        -0.5000 
     37 CA         -0.8098  -19.2295  -41.7391 C.3       7 UNK         0.1400 
     38 CB         -1.9206  -18.5413  -40.9327 C.3       7 UNK        -0.1800 
     39 N          -0.7436  -18.6642  -43.0868 N.am      7 UNK        -0.5000 
     40 C          -0.0224  -19.1919  -44.0850 C.2       6 UNK         0.5000 
     41 O           0.5866  -20.2556  -43.9917 O.2       6 UNK        -0.5000 
     42 CA          0.0568  -18.4055  -45.4025 C.3       6 UNK         0.1400 
     43 CB         -1.1279  -18.7539  -46.3119 C.3       6 UNK        -0.1800 
     44 N           0.1158  -16.9613  -45.1992 N.am      6 UNK        -0.5000 
     45 C           1.1182  -16.3181  -44.5864 C.2       5 UNK         0.5000 
     46 O           2.1204  -16.8762  -44.1418 O.2       5 UNK        -0.5000 
     47 CA          0.9399  -14.8050  -44.3867 C.3       5 UNK         0.1400 
     48 CB          1.2292  -14.0361  -45.6855 C.3       5 UNK        -0.1800 
     49 N          -0.4024  -14.4789  -43.9065 N.am      5 UNK        -0.5000 
     50 C          -0.8711  -14.7995  -42.6923 C.2       4 UNK         0.5000 
     51 O          -0.2088  -15.3836  -41.8339 O.2       4 UNK        -0.5000 
     52 CA         -2.3400  -14.4365  -42.4066 C.3       4 UNK         0.1400 
     53 CB         -2.4636  -12.9646  -41.9854 C.3       4 UNK        -0.1800 
     54 N          -3.2153  -14.6897  -43.5531 N.am      4 UNK        -0.5000 
     55 C          -3.5024  -15.9120  -44.0220 C.2       3 UNK         0.5000 
     56 O          -3.0741  -16.9519  -43.5246 O.2       3 UNK        -0.5000 
     57 CA         -4.3719  -15.9852  -45.2901 C.3       3 UNK         0.1400 
     58 CB         -5.8636  -15.8951  -44.9380 C.3       3 UNK        -0.1800 
     59 N          -4.0444  -14.9709  -46.2972 N.am      3 UNK        -0.5000 
     60 C          -2.8425  -14.8294  -46.8700 C.2       2 UNK         0.5000 
     61 O          -1.8551  -15.4953  -46.5537 O.2       2 UNK        -0.5000 
     62 CA         -2.7066  -13.7291  -47.9350 C.3       2 UNK         0.1400 
     63 CB         -2.4386  -12.3720  -47.2660 C.3       2 UNK        -0.1800 
     64 N          -1.6051  -14.0214  -48.8494 N.am      2 UNK        -0.5000 
     65 C          -1.6228  -14.9603  -49.8028 C.2       1 UNK         0.5000 
     66 O          -2.6324  -15.5978  -50.1005 O.2       1 UNK        -0.5000 
     67 C          -0.1453  -23.2445  -46.2001 C.2       11 UNK         0.5000 
     68 O          -0.6046  -24.0253  -47.0321 O.2       11 UNK        -0.5000 
     69 N          -0.8813  -22.6578  -45.2423 N.am      12 UNK        -0.5000 
     70 CA         -2.3371  -22.7665  -45.0735 C.3       12 UNK         0.1400 
     71 CB         -2.7709  -21.8419  -43.9253 C.3       12 UNK        -0.1800 
     72 C          -2.8747  -24.1981  -44.8516 C.2       12 UNK         0.5000 
     73 O          -4.0819  -24.4159  -44.9553 O.2       12 UNK        -0.5000 
     74 N          -1.9798  -25.1520  -44.5634 N.am      13 UNK        -0.5000 
     75 CA         -2.2686  -26.5844  -44.5228 C.3       13 UNK         0.1400 
     76 CB         -1.0978  -27.2997  -43.8309 C.3       13 UNK        -0.1800 
     77 C          -2.5236  -27.1951  -45.9187 C.2       13 UNK         0.5000 
     78 O          -3.1601  -28.2468  -45.9983 O.2       13 UNK        -0.5000 
     79 N          -2.0223  -26.5473  -46.9805 N.am      14 UNK        -0.5000 
     80 CA         -2.1395  -26.9903  -48.3701 C.3       14 UNK         0.1400 
     81 CB         -0.7453  -27.3683  -48.8970 C.3       14 UNK        -0.1800 
     82 C          -2.7799  -25.9125  -49.2601 C.2       14 UNK         0.5000 
     83 O          -3.6574  -26.2361  -50.0617 O.2       14 UNK        -0.5000 
     84 N          -2.3347  -24.6576  -49.1172 N.am      15 UNK        -0.5000 
     85 CA         -2.8496  -23.5048  -49.8522 C.3       15 UNK         0.1400 
     86 CB         -1.8110  -22.3703  -49.7975 C.3       15 UNK        -0.1800 
     87 C          -4.1931  -23.0328  -49.2711 C.2       15 UNK         0.5000 
     88 O          -4.3841  -23.0678  -48.0542 O.2       15 UNK        -0.5000 
     89 N          -5.0809  -22.5564  -50.1496 N.am      16 UNK        -0.5000 
     90 CA         -6.3400  -21.9075  -49.7841 C.3       16 UNK         0.1400 
     91 CB         -7.3060  -21.9726  -50.9773 C.3       16 UNK        -0.1800 
     92 C          -6.1199  -20.4471  -49.3493 C.2       16 UNK         0.5000 
     93 O          -6.8676  -19.9481  -48.5084 O.2       16 UNK        -0.5000 
     94 N          -5.0947  -19.8019  -49.9319 N.am      17 UNK        -0.5000 
     95 CA         -4.6148  -18.4434  -49.6444 C.3       17 UNK         0.1400 
     96 CB         -4.0225  -18.3864  -48.2259 C.3       17 UNK        -0.1800 
     97 C          -5.6603  -17.3356  -49.9102 C.2       17 UNK         0.5000 
     98 O          -5.6439  -16.2885  -49.2607 O.2       17 UNK        -0.5000 
     99 N          -6.5549  -17.5922  -50.8733 N.am      18 UNK        -0.5000 
    100 CA        -7.5706  -16.6537  -51.3544 C.3       18 UNK         0.1400 
    101 CB        -8.8229  -17.4557  -51.7441 C.3       18 UNK        -0.1800 
    102 C         -7.0758  -15.8149  -52.5510 C.2       18 UNK         0.5000 
    103 O         -7.7381  -14.8462  -52.9254 O.2       18 UNK        -0.5000 
    104 N         -5.9387  -16.2034  -53.1386 N.am      19 UNK        -0.5000 
    105 CA        -5.3017  -15.5927  -54.2987 C.3       19 UNK         0.1400 
    106 CB        -6.0191  -16.0394  -55.5863 C.3       19 UNK        -0.1800 
    107 C         -3.8279  -16.0210  -54.3179 C.2       19 UNK         0.5000 
    108 O         -3.4646  -16.9845  -53.6368 O.2       19 UNK        -0.5000 
    109 N         -3.0137  -15.3200  -55.1187 N.am      20 UNK        -0.5000 
    110 CA        -1.5681  -15.5309  -55.2608 C.3       20 UNK         0.1400 
    111 CB        -1.0027  -14.4995  -56.2487 C.3       20 UNK        -0.1800 
    112 C         -1.1692  -16.9577  -55.6868 C.2       20 UNK         0.5000 
    113 O         -0.1494  -17.4699  -55.2239 O.2       20 UNK        -0.5000 
    114 N         -1.9981  -17.5848  -56.5307 N.am      21 UNK        -0.5000 
    115 CA        -1.8339  -18.9483  -57.0353 C.3       21 UNK         0.1400 
    116 CB        -2.5442  -19.0526  -58.3975 C.3       21 UNK        -0.1800 
    117 C         -2.3235  -20.0074  -56.0230 C.2       21 UNK         0.5000 
    118 O         -3.1618  -20.8443  -56.3640 O.2       21 UNK        -0.5000 
    119 N         -1.7888  -19.9485  -54.7963 N.am      22 UNK        -0.5000 
    120 CA        -2.0667  -20.8713  -53.6794 C.3       22 UNK         0.1400 
    121 C         -3.5333  -20.8067  -53.1547 C.2       22 UNK         0.5000 
    122 N         -4.2302  -19.6843  -53.2665 N.am      22 UNK        -0.7600 
    123 O         -4.0554  -21.7805  -52.6201 O.2       22 UNK        -0.5000 
    124 C124       -1.6160  -22.3390  -53.9577 C.3       23 UNK        -0.0398 
    125 S125        0.0619  -22.5222  -54.6647 S.3       23 UNK        -0.2404 
    126 C126        1.0317  -23.1584  -53.2499 C.3       23 UNK        -0.0205 
    127 H127        0.8845  -10.8610  -50.8213 H         1 UNK         0.0600 
    128 H128        1.0437  -11.8207  -52.2954 H         1 UNK         0.0600 
    129 H129        2.4165  -11.6570  -51.1967 H         1 UNK         0.0600 
    130 H130        0.0094  -13.7770  -52.1088 H         1 UNK         0.3000 
    131 H131        0.4309  -15.5265  -49.8266 H         1 UNK         0.0600 
    132 H132       -1.3501  -16.2513  -52.1837 H         1 UNK         0.0800 
    133 H133        0.3580  -16.1178  -52.4297 H         1 UNK         0.0800 
    134 H134        2.2399  -17.7380  -51.1140 H         1 UNK         0.0800 
    135 H135        1.5679  -18.0866  -52.6928 H         1 UNK         0.0800 
    136 H136        0.7589  -20.3592  -53.2419 H         1 UNK         0.1150 
    137 H137        2.5129  -23.6111  -51.0588 H         1 UNK         0.1150 
    138 H138        2.9862  -19.5734  -49.6916 H         1 UNK         0.1150 
    139 H139        3.5814  -23.2458  -48.9793 H         1 UNK         0.0800 
    140 H140        4.7539  -22.0025  -49.3424 H         1 UNK         0.0800 
    141 H141        1.1513  -22.0391  -48.2213 H         1 UNK         0.0800 
    142 H142        1.0865  -20.8674  -46.9398 H         1 UNK         0.0800 
    143 H143        1.8803  -23.8065  -46.5863 H         1 UNK         0.0600 
    144 H144        1.8986  -21.5909  -44.6776 H         1 UNK         0.3000 
    145 H145        1.5322  -22.7121  -42.0001 H         1 UNK         0.0600 
    146 H146        3.6278  -23.2906  -40.7425 H         1 UNK         0.0600 
    147 H147        2.8673  -24.6937  -41.4742 H         1 UNK         0.0600 
    148 H148        4.3020  -23.9990  -42.2106 H         1 UNK         0.0600 
    149 H149        2.4190  -20.7356  -42.3273 H         1 UNK         0.3000 
    150 H150        5.4998  -19.4248  -42.9400 H         1 UNK         0.0600 
    151 H151        5.0940  -19.6959  -45.3879 H         1 UNK         0.0600 
    152 H152        4.6693  -18.0765  -44.8566 H         1 UNK         0.0600 
    153 H153        3.4026  -19.2615  -45.1684 H         1 UNK         0.0600 
    154 H154        2.8682  -18.2395  -43.0220 H         1 UNK         0.3000 
    155 H155        2.4912  -18.0006  -39.4691 H         1 UNK         0.0600 
    156 H156        3.8479  -16.0330  -40.1989 H         1 UNK         0.0600 
    157 H157        2.1379  -15.6368  -40.1118 H         1 UNK         0.0600 
    158 H158        2.8992  -15.9134  -41.6761 H         1 UNK         0.0600 
    159 H159        0.7753  -17.2073  -41.5911 H         1 UNK         0.3000 
    160 H160       -1.0674  -20.2864  -41.8288 H         1 UNK         0.0600 
    161 H161       -1.7557  -17.4667  -40.8522 H         1 UNK         0.0600 
    162 H162       -1.9760  -18.9432  -39.9204 H         1 UNK         0.0600 
    163 H163       -2.8948  -18.6965  -41.3965 H         1 UNK         0.0600 
    164 H164       -1.2947  -17.8297  -43.2599 H         1 UNK         0.3000 
    165 H165        0.9765  -18.7028  -45.9098 H         1 UNK         0.0600 
    166 H166       -1.0324  -18.2667  -47.2828 H         1 UNK         0.0600 
    167 H167       -1.1891  -19.8281  -46.4901 H         1 UNK         0.0600 
    168 H168       -2.0744  -18.4392  -45.8709 H         1 UNK         0.0600 
    169 H169       -0.6597  -16.4164  -45.5734 H         1 UNK         0.3000 
    170 H170        1.6595  -14.4798  -43.6322 H         1 UNK         0.0600 
    171 H171        2.2410  -14.2381  -46.0393 H         1 UNK         0.0600 
    172 H172        0.5443  -14.3134  -46.4871 H         1 UNK         0.0600 
    173 H173        1.1477  -12.9597  -45.5343 H         1 UNK         0.0600 
    174 H174       -1.0328  -14.0594  -44.5727 H         1 UNK         0.3000 
    175 H175       -2.6798  -15.0580  -41.5752 H         1 UNK         0.0600 
    176 H176       -1.8315  -12.7520  -41.1222 H         1 UNK         0.0600 
    177 H177       -2.1641  -12.2878  -42.7866 H         1 UNK         0.0600 
    178 H178       -3.4881  -12.7200  -41.7044 H         1 UNK         0.0600 
    179 H179       -3.6038  -13.8861  -44.0240 H         1 UNK         0.3000 
    180 H180       -4.1916  -16.9625  -45.7381 H         1 UNK         0.0600 
    181 H181       -6.1226  -14.9202  -44.5233 H         1 UNK         0.0600 
    182 H182       -6.1370  -16.6502  -44.1998 H         1 UNK         0.0600 
    183 H183       -6.4852  -16.0632  -45.8179 H         1 UNK         0.0600 
    184 H184       -4.8075  -14.3895  -46.6121 H         1 UNK         0.3000 
    185 H185       -3.6358  -13.6720  -48.5061 H         1 UNK         0.0600 
    186 H186       -3.2496  -12.0988  -46.5897 H         1 UNK         0.0600 
    187 H187       -1.5153  -12.3846  -46.6850 H         1 UNK         0.0600 
    188 H188       -2.3550  -11.5777  -48.0080 H         1 UNK         0.0600 
    189 H189       -0.7215  -13.5572  -48.6692 H         1 UNK         0.3000 
    190 H190       -0.4054  -22.0246  -44.6102 H         1 UNK         0.3000 
    191 H191       -2.7951  -22.3992  -45.9934 H         1 UNK         0.0600 
    192 H192       -2.2822  -22.1108  -42.9885 H         1 UNK         0.0600 
    193 H193       -3.8480  -21.8958  -43.7612 H         1 UNK         0.0600 
    194 H194       -2.5361  -20.8011  -44.1456 H         1 UNK         0.0600 
    195 H195       -1.0094  -24.8850  -44.4845 H         1 UNK         0.3000 
    196 H196       -3.1683  -26.7395  -43.9237 H         1 UNK         0.0600 
    197 H197       -1.2819  -28.3724  -43.7584 H         1 UNK         0.0600 
    198 H198       -0.9512  -26.9269  -42.8170 H         1 UNK         0.0600 
    199 H199       -0.1635  -27.1622  -44.3770 H         1 UNK         0.0600 
    200 H200       -1.5324  -25.6704  -46.8309 H         1 UNK         0.3000 
    201 H201       -2.7747  -27.8760  -48.4366 H         1 UNK         0.0600 
    202 H202       -0.3191  -28.1908  -48.3226 H         1 UNK         0.0600 
    203 H203       -0.0518  -26.5280  -48.8422 H         1 UNK         0.0600 
    204 H204       -0.7938  -27.6891  -49.9384 H         1 UNK         0.0600 
    205 H205       -1.6425  -24.4534  -48.4003 H         1 UNK         0.3000 
    206 H206       -2.9933  -23.7913  -50.8964 H         1 UNK         0.0600 
    207 H207       -0.8546  -22.6875  -50.2138 H         1 UNK         0.0600 
    208 H208       -2.1431  -21.5051  -50.3719 H         1 UNK         0.0600 
    209 H209       -1.6366  -22.0333  -48.7750 H         1 UNK         0.0600 
    210 H210       -4.8160  -22.5049  -51.1321 H         1 UNK         0.3000 
    211 H211       -6.7911  -22.4456  -48.9475 H         1 UNK         0.0600 
    212 H212       -8.2581  -21.4979  -50.7363 H         1 UNK         0.0600 
    213 H213       -7.5187  -23.0054  -51.2537 H         1 UNK         0.0600 
    214 H214       -6.8994  -21.4692  -51.8552 H         1 UNK         0.0600 
    215 H215       -4.5593  -20.3140  -50.6189 H         1 UNK         0.3000 
    216 H216       -3.7990  -18.2568  -50.3452 H         1 UNK         0.0600 
    217 H217       -3.4840  -17.4524  -48.0688 H         1 UNK         0.0600 
    218 H218       -3.3161  -19.2004  -48.0668 H         1 UNK         0.0600 
    219 H219       -4.7975  -18.4604  -47.4631 H         1 UNK         0.0600 
    220 H220       -6.5317  -18.4976  -51.3152 H         1 UNK         0.3000 
    221 H221       -7.8439  -15.9616  -50.5553 H         1 UNK         0.0600 
    222 H222       -8.6185  -18.1540  -52.5567 H         1 UNK         0.0600 
    223 H223       -9.2032  -18.0277  -50.8974 H         1 UNK         0.0600 
    224 H224       -9.6249  -16.7939  -52.0739 H         1 UNK         0.0600 
    225 H225       -5.3997  -16.9543  -52.7282 H         1 UNK         0.3000 
    226 H226       -5.3455  -14.5059  -54.2039 H         1 UNK         0.0600 
    227 H227       -7.0657  -15.7346  -55.5840 H         1 UNK         0.0600 
    228 H228       -5.5585  -15.5967  -56.4701 H         1 UNK         0.0600 
    229 H229       -5.9878  -17.1232  -55.7062 H         1 UNK         0.0600 
    230 H230       -3.4029  -14.5566  -55.6533 H         1 UNK         0.3000 
    231 H231       -1.1130  -15.3396  -54.2897 H         1 UNK         0.0600 
    232 H232       -1.1845  -13.4812  -55.9046 H         1 UNK         0.0600 
    233 H233       -1.4475  -14.6046  -57.2391 H         1 UNK         0.0600 
    234 H234        0.0764  -14.6149  -56.3597 H         1 UNK         0.0600 
    235 H235       -2.8332  -17.0986  -56.8213 H         1 UNK         0.3000 
    236 H236       -0.7715  -19.1373  -57.2034 H         1 UNK         0.0600 
    237 H237       -2.4053  -20.0410  -58.8376 H         1 UNK         0.0600 
    238 H238       -3.6173  -18.8796  -58.3066 H         1 UNK         0.0600 
    239 H239       -2.1460  -18.3262  -59.1062 H         1 UNK         0.0600 
    240 H240       -1.1270  -19.2037  -54.6110 H         1 UNK         0.3000 
    241 H241       -1.4751  -20.5056  -52.8414 H         1 UNK         0.0600 
    242 H242       -5.2032  -19.6937  -53.0221 H         1 UNK         0.3800 
    243 H243       -3.8017  -18.8317  -53.6173 H         1 UNK         0.3800 
    244 H244       -1.6774  -22.9264  -53.0405 H         1 UNK         0.0800 
    245 H245       -2.3092  -22.8126  -54.6546 H         1 UNK         0.0800 
    246 H246        0.4432  -23.9030  -52.7120 H         1 UNK         0.0800 
    247 H247        1.8913  -23.6913  -53.6588 H         1 UNK         0.0800 
@<TRIPOS>BOND
     1    1    2 1    
     2    1  127 1    
     3    1  128 1    
     4    1  129 1    
     5    2    3 2    
     6    2    4 am   BACKBONE|DICT|INTERRES
     7    4    5 1    
     8    4  130 1    
     9    5    6 1    
    10    5   65 1    
    11    5  131 1    
    12    6    7 1    
    13    6  132 1    
    14    6  133 1    
    15    7    8 1    
    16    8    9 1    
    17    8  134 1    
    18    8  135 1    
    19    9   10 ar   
    20    9   14 ar   
    21   10   11 ar   
    22   10  136 1    
    23   11   12 ar   
    24   11  126 1    
    25   12   13 ar   
    26   12  137 1    
    27   13   14 ar   
    28   13   15 1    
    29   14  138 1    
    30   15   16 1    
    31   15  139 1    
    32   15  140 1    
    33   16   17 1    
    34   17   18 1    
    35   17  141 1    
    36   17  142 1    
    37   18   19 1    
    38   18   67 1    
    39   18  143 1    
    40   19   20 am   BACKBONE|DICT|INTERRES
    41   19  144 1    
    42   20   21 2    
    43   20   22 1    
    44   22   23 1    
    45   22   24 1    
    46   22  145 1    
    47   23  146 1    
    48   23  147 1    
    49   23  148 1    
    50   24   25 am   BACKBONE|DICT|INTERRES
    51   24  149 1    
    52   25   26 2    
    53   25   27 1    
    54   27   28 1    
    55   27   29 1    
    56   27  150 1    
    57   28  151 1    
    58   28  152 1    
    59   28  153 1    
    60   29   30 am   BACKBONE|DICT|INTERRES
    61   29  154 1    
    62   30   31 2    
    63   30   32 1    
    64   32   33 1    
    65   32   34 1    
    66   32  155 1    
    67   33  156 1    
    68   33  157 1    
    69   33  158 1    
    70   34   35 am   BACKBONE|DICT|INTERRES
    71   34  159 1    
    72   35   36 2    
    73   35   37 1    
    74   37   38 1    
    75   37   39 1    
    76   37  160 1    
    77   38  161 1    
    78   38  162 1    
    79   38  163 1    
    80   39   40 am   BACKBONE|DICT|INTERRES
    81   39  164 1    
    82   40   41 2    
    83   40   42 1    
    84   42   43 1    
    85   42   44 1    
    86   42  165 1    
    87   43  166 1    
    88   43  167 1    
    89   43  168 1    
    90   44   45 am   BACKBONE|DICT|INTERRES
    91   44  169 1    
    92   45   46 2    
    93   45   47 1    
    94   47   48 1    
    95   47   49 1    
    96   47  170 1    
    97   48  171 1    
    98   48  172 1    
    99   48  173 1    
   100   49   50 am   BACKBONE|DICT|INTERRES
   101   49  174 1    
   102   50   51 2    
   103   50   52 1    
   104   52   53 1    
   105   52   54 1    
   106   52  175 1    
   107   53  176 1    
   108   53  177 1    
   109   53  178 1    
   110   54   55 am   BACKBONE|DICT|INTERRES
   111   54  179 1    
   112   55   56 2    
   113   55   57 1    
   114   57   58 1    
   115   57   59 1    
   116   57  180 1    
   117   58  181 1    
   118   58  182 1    
   119   58  183 1    
   120   59   60 am   BACKBONE|DICT|INTERRES
   121   59  184 1    
   122   60   61 2    
   123   60   62 1    
   124   62   63 1    
   125   62   64 1    
   126   62  185 1    
   127   63  186 1    
   128   63  187 1    
   129   63  188 1    
   130   64   65 am   BACKBONE|DICT|INTERRES
   131   64  189 1    
   132   65   66 2    
   133   67   68 2    
   134   67   69 am   BACKBONE|DICT|INTERRES
   135   69   70 1    
   136   69  190 1    
   137   70   71 1    
   138   70   72 1    
   139   70  191 1    
   140   71  192 1    
   141   71  193 1    
   142   71  194 1    
   143   72   73 2    
   144   72   74 am   BACKBONE|DICT|INTERRES
   145   74   75 1    
   146   74  195 1    
   147   75   76 1    
   148   75   77 1    
   149   75  196 1    
   150   76  197 1    
   151   76  198 1    
   152   76  199 1    
   153   77   78 2    
   154   77   79 am   BACKBONE|DICT|INTERRES
   155   79   80 1    
   156   79  200 1    
   157   80   81 1    
   158   80   82 1    
   159   80  201 1    
   160   81  202 1    
   161   81  203 1    
   162   81  204 1    
   163   82   83 2    
   164   82   84 am   BACKBONE|DICT|INTERRES
   165   84   85 1    
   166   84  205 1    
   167   85   86 1    
   168   85   87 1    
   169   85  206 1    
   170   86  207 1    
   171   86  208 1    
   172   86  209 1    
   173   87   88 2    
   174   87   89 am   BACKBONE|DICT|INTERRES
   175   89   90 1    
   176   89  210 1    
   177   90   91 1    
   178   90   92 1    
   179   90  211 1    
   180   91  212 1    
   181   91  213 1    
   182   91  214 1    
   183   92   93 2    
   184   92   94 am   BACKBONE|DICT|INTERRES
   185   94   95 1    
   186   94  215 1    
   187   95   96 1    
   188   95   97 1    
   189   95  216 1    
   190   96  217 1    
   191   96  218 1    
   192   96  219 1    
   193   97   98 2    
   194   97   99 am   BACKBONE|DICT|INTERRES
   195   99  100 1    
   196   99  220 1    
   197  100  101 1    
   198  100  102 1    
   199  100  221 1    
   200  101  222 1    
   201  101  223 1    
   202  101  224 1    
   203  102  103 2    
   204  102  104 am   BACKBONE|DICT|INTERRES
   205  104  105 1    
   206  104  225 1    
   207  105  106 1    
   208  105  107 1    
   209  105  226 1    
   210  106  227 1    
   211  106  228 1    
   212  106  229 1    
   213  107  108 2    
   214  107  109 am   BACKBONE|DICT|INTERRES
   215  109  110 1    
   216  109  230 1    
   217  110  111 1    
   218  110  112 1    
   219  110  231 1    
   220  111  232 1    
   221  111  233 1    
   222  111  234 1    
   223  112  113 2    
   224  112  114 am   BACKBONE|DICT|INTERRES
   225  114  115 1    
   226  114  235 1    
   227  115  116 1    
   228  115  117 1    
   229  115  236 1    
   230  116  237 1    
   231  116  238 1    
   232  116  239 1    
   233  117  118 2    
   234  117  119 am   BACKBONE|DICT|INTERRES
   235  119  120 1    
   236  119  240 1    
   237  120  121 1    
   238  120  124 1    
   239  120  241 1    
   240  121  122 am   BACKBONE|DICT|INTERRES
   241  121  123 2    
   242  122  242 1    
   243  122  243 1    
   244  124  125 1    
   245  124  244 1    
   246  124  245 1    
   247  125  126 1    
   248  126  246 1    
   249  126  247 1    
@<TRIPOS>SUBSTRUCTURE
     1 UNK         1 GROUP             0       ****    0 ROOT    
