@<TRIPOS>MOLECULE
3R540
247   249    1
SMALL
USER_CHARGES


@<TRIPOS>ATOM
      1 CA          2.0513  -12.0951  -48.3861 C.3       0 UNK        -0.1800 
      2 C           1.5799  -13.5172  -48.1225 C.2       0 UNK         0.5000 
      3 O           1.3579  -13.8825  -46.9685 O.2       0 UNK        -0.5000 
      4 N           1.4360  -14.3240  -49.1818 N.am      1 UNK        -0.5000 
      5 CA          1.0063  -15.7286  -49.1477 C.3       1 UNK         0.1400 
      6 C6         -0.4552  -15.9165  -48.6516 C.3       23 UNK        -0.0398 
      7 S7         -1.6773  -14.8669  -49.5234 S.3       23 UNK        -0.2404 
      8 C8         -1.7919  -15.6222  -51.1787 C.3       23 UNK        -0.0205 
      9 C9         -2.2715  -17.0607  -51.1103 C.ar      23 UNK        -0.0193 
     10 C10        -3.6264  -17.3444  -50.9163 C.ar      23 UNK        -0.1150 
     11 C11        -4.0580  -18.6660  -50.7792 C.ar      23 UNK        -0.0193 
     12 C12        -3.1218  -19.7003  -50.8246 C.ar      23 UNK        -0.1150 
     13 C13        -1.7688  -19.4305  -51.0444 C.ar      23 UNK        -0.0193 
     14 C14        -1.3528  -18.1082  -51.2087 C.ar      23 UNK        -0.1150 
     15 C15        -0.7514  -20.5617  -51.0425 C.3       23 UNK        -0.0205 
     16 S16         0.5028  -20.3733  -49.7317 S.3       23 UNK        -0.2404 
     17 C17        -0.5168  -20.1148  -48.2412 C.3       23 UNK        -0.0398 
     18 CA         -0.6290  -21.3689  -47.3456 C.3       11 UNK         0.1400 
     19 N          -0.8260  -20.9714  -45.9484 N.am      11 UNK        -0.5000 
     20 C          -0.9733  -21.7807  -44.8910 C.2       10 UNK         0.5000 
     21 O          -0.9036  -23.0074  -44.9554 O.2       10 UNK        -0.5000 
     22 CA         -1.3156  -21.1130  -43.5455 C.3       10 UNK         0.1400 
     23 CB         -0.0618  -21.0431  -42.6660 C.3       10 UNK        -0.1800 
     24 N          -1.9029  -19.7712  -43.6621 N.am      10 UNK        -0.5000 
     25 C          -3.0248  -19.4675  -44.3345 C.2       9 UNK         0.5000 
     26 O          -3.6935  -20.3005  -44.9485 O.2       9 UNK        -0.5000 
     27 CA         -3.4663  -17.9930  -44.3631 C.3       9 UNK         0.1400 
     28 CB         -4.6422  -17.7708  -43.4002 C.3       9 UNK        -0.1800 
     29 N          -2.4157  -17.0245  -44.0466 N.am      9 UNK        -0.5000 
     30 C          -1.3203  -16.7631  -44.7678 C.2       8 UNK         0.5000 
     31 O          -0.9828  -17.4116  -45.7606 O.2       8 UNK        -0.5000 
     32 CA         -0.4482  -15.5766  -44.3059 C.3       8 UNK         0.1400 
     33 CB         -1.0544  -14.2355  -44.7589 C.3       8 UNK        -0.1800 
     34 N          -0.1275  -15.5524  -42.8721 N.am      8 UNK        -0.5000 
     35 C          -0.9417  -15.4104  -41.8141 C.2       7 UNK         0.5000 
     36 O          -2.1617  -15.2645  -41.9090 O.2       7 UNK        -0.5000 
     37 CA         -0.2865  -15.4332  -40.4142 C.3       7 UNK         0.1400 
     38 CB         -1.2406  -15.9660  -39.3251 C.3       7 UNK        -0.1800 
     39 N           0.9990  -16.1395  -40.3597 N.am      7 UNK        -0.5000 
     40 C           1.2393  -17.4289  -40.6498 C.2       6 UNK         0.5000 
     41 O           0.3640  -18.2153  -41.0110 O.2       6 UNK        -0.5000 
     42 CA          2.7005  -17.9140  -40.5427 C.3       6 UNK         0.1400 
     43 CB          3.0872  -18.8089  -41.7300 C.3       6 UNK        -0.1800 
     44 N           3.6297  -16.7854  -40.4986 N.am      6 UNK        -0.5000 
     45 C           4.4151  -16.4582  -39.4642 C.2       5 UNK         0.5000 
     46 O           4.4996  -17.1215  -38.4301 O.2       5 UNK        -0.5000 
     47 CA          5.2311  -15.1538  -39.5923 C.3       5 UNK         0.1400 
     48 CB          6.6663  -15.4629  -40.0449 C.3       5 UNK        -0.1800 
     49 N           4.6451  -14.1775  -40.5154 N.am      5 UNK        -0.5000 
     50 C           3.4485  -13.5915  -40.3680 C.2       4 UNK         0.5000 
     51 O           2.7135  -13.7739  -39.3977 O.2       4 UNK        -0.5000 
     52 CA          2.9551  -12.7103  -41.5308 C.3       4 UNK         0.1400 
     53 CB          3.2846  -11.2345  -41.2631 C.3       4 UNK        -0.1800 
     54 N           3.4851  -13.0907  -42.8450 N.am      4 UNK        -0.5000 
     55 C           3.3128  -14.2779  -43.4424 C.2       3 UNK         0.5000 
     56 O           2.7353  -15.2303  -42.9098 O.2       3 UNK        -0.5000 
     57 CA          3.8832  -14.3916  -44.8666 C.3       3 UNK         0.1400 
     58 CB          5.4257  -14.4004  -44.8704 C.3       3 UNK        -0.1800 
     59 N           3.3139  -15.5191  -45.6119 N.am      3 UNK        -0.5000 
     60 C           3.5864  -16.8293  -45.5082 C.2       2 UNK         0.5000 
     61 O           4.4686  -17.2934  -44.7856 O.2       2 UNK        -0.5000 
     62 CA          2.7306  -17.8039  -46.3509 C.3       2 UNK         0.1400 
     63 CB          2.0175  -18.8184  -45.4418 C.3       2 UNK        -0.1800 
     64 N           1.7496  -17.1375  -47.2230 N.am      2 UNK        -0.5000 
     65 C           2.0686  -16.5727  -48.4002 C.2       1 UNK         0.5000 
     66 O           3.1943  -16.6548  -48.8955 O.2       1 UNK        -0.5000 
     67 C          -1.7252  -22.3293  -47.8659 C.2       11 UNK         0.5000 
     68 O          -1.4365  -23.2010  -48.6891 O.2       11 UNK        -0.5000 
     69 N          -2.9505  -22.1953  -47.3339 N.am      12 UNK        -0.5000 
     70 CA         -4.0845  -23.0773  -47.6128 C.3       12 UNK         0.1400 
     71 CB         -5.3454  -22.5016  -46.9537 C.3       12 UNK        -0.1800 
     72 C          -3.8598  -24.5391  -47.1745 C.2       12 UNK         0.5000 
     73 O          -4.4549  -25.4395  -47.7655 O.2       12 UNK        -0.5000 
     74 N          -2.9977  -24.7498  -46.1716 N.am      13 UNK        -0.5000 
     75 CA         -2.5746  -26.0652  -45.7014 C.3       13 UNK         0.1400 
     76 CB         -2.5903  -26.0835  -44.1644 C.3       13 UNK        -0.1800 
     77 C          -1.1749  -26.4060  -46.2357 C.2       13 UNK         0.5000 
     78 O          -0.9815  -27.4972  -46.7707 O.2       13 UNK        -0.5000 
     79 N          -0.2278  -25.4677  -46.0912 N.am      14 UNK        -0.5000 
     80 CA          1.1969  -25.6542  -46.3753 C.3       14 UNK         0.1400 
     81 CB          1.9822  -24.4448  -45.8444 C.3       14 UNK        -0.1800 
     82 C           1.5197  -25.9003  -47.8593 C.2       14 UNK         0.5000 
     83 O           2.3954  -26.7142  -48.1553 O.2       14 UNK        -0.5000 
     84 N           0.8036  -25.2130  -48.7580 N.am      15 UNK        -0.5000 
     85 CA          0.9212  -25.3724  -50.2102 C.3       15 UNK         0.1400 
     86 CB          1.1334  -23.9871  -50.8430 C.3       15 UNK        -0.1800 
     87 C          -0.3174  -26.0680  -50.8074 C.2       15 UNK         0.5000 
     88 O          -0.4127  -26.1764  -52.0300 O.2       15 UNK        -0.5000 
     89 N          -1.2508  -26.5016  -49.9439 N.am      16 UNK        -0.5000 
     90 CA         -2.5552  -27.1003  -50.2575 C.3       16 UNK         0.1400 
     91 CB         -2.3782  -28.4736  -50.9382 C.3       16 UNK        -0.1800 
     92 C          -3.4958  -26.1552  -51.0415 C.2       16 UNK         0.5000 
     93 O          -4.3807  -26.6310  -51.7549 O.2       16 UNK        -0.5000 
     94 N          -3.2860  -24.8415  -50.8637 N.am      17 UNK        -0.5000 
     95 CA         -3.9368  -23.7002  -51.5089 C.3       17 UNK         0.1400 
     96 CB         -5.4691  -23.7264  -51.3421 C.3       17 UNK        -0.1800 
     97 C          -3.5360  -23.5170  -52.9849 C.2       17 UNK         0.5000 
     98 O          -3.5232  -24.4721  -53.7623 O.2       17 UNK        -0.5000 
     99 N          -3.2477  -22.2621  -53.3534 N.am      18 UNK        -0.5000 
    100 CA        -2.9325  -21.8548  -54.7249 C.3       18 UNK         0.1400 
    101 CB        -2.1076  -20.5610  -54.6736 C.3       18 UNK        -0.1800 
    102 C         -4.1892  -21.6504  -55.5930 C.2       18 UNK         0.5000 
    103 O         -4.0775  -21.6451  -56.8195 O.2       18 UNK        -0.5000 
    104 N         -5.3483  -21.4584  -54.9445 N.am      19 UNK        -0.5000 
    105 CA        -6.6894  -21.2073  -55.4871 C.3       19 UNK         0.1400 
    106 CB        -7.1679  -22.3630  -56.3863 C.3       19 UNK        -0.1800 
    107 C         -6.8328  -19.8440  -56.1890 C.2       19 UNK         0.5000 
    108 O         -7.7064  -19.0618  -55.8160 O.2       19 UNK        -0.5000 
    109 N         -5.9655  -19.5674  -57.1698 N.am      20 UNK        -0.5000 
    110 CA        -5.9392  -18.3273  -57.9472 C.3       20 UNK         0.1400 
    111 CB        -5.0002  -18.5051  -59.1498 C.3       20 UNK        -0.1800 
    112 C         -5.5227  -17.1058  -57.1082 C.2       20 UNK         0.5000 
    113 O         -6.0863  -16.0246  -57.2814 O.2       20 UNK        -0.5000 
    114 N         -4.5643  -17.3077  -56.1931 N.am      21 UNK        -0.5000 
    115 CA        -4.0711  -16.2801  -55.2718 C.3       21 UNK         0.1400 
    116 CB        -2.6910  -16.6995  -54.7434 C.3       21 UNK        -0.1800 
    117 C         -5.0339  -16.0061  -54.0993 C.2       21 UNK         0.5000 
    118 O         -4.8886  -14.9829  -53.4299 O.2       21 UNK        -0.5000 
    119 N         -5.9873  -16.9175  -53.8651 N.am      22 UNK        -0.5000 
    120 CA        -6.9851  -16.8352  -52.7878 C.3       22 UNK         0.1400 
    121 C         -8.1423  -15.8277  -53.0555 C.2       22 UNK         0.5000 
    122 N         -8.2806  -15.2688  -54.2522 N.am      22 UNK        -0.7600 
    123 O         -8.9268  -15.5416  -52.1553 O.2       22 UNK        -0.5000 
    124 C124       -7.5517  -18.2280  -52.4007 C.3       23 UNK        -0.0398 
    125 S125       -6.2906  -19.5228  -52.1309 S.3       23 UNK        -0.2404 
    126 C126       -5.5270  -18.9913  -50.5675 C.3       23 UNK        -0.0205 
    127 H127        2.2063  -11.9093  -49.4491 H         1 UNK         0.0600 
    128 H128        2.9914  -11.9103  -47.8664 H         1 UNK         0.0600 
    129 H129        1.3120  -11.3829  -48.0198 H         1 UNK         0.0600 
    130 H130        1.6622  -13.9683  -50.0996 H         1 UNK         0.3000 
    131 H131        1.0400  -16.0751  -50.1811 H         1 UNK         0.0600 
    132 H132       -0.7616  -16.9607  -48.7207 H         1 UNK         0.0800 
    133 H133       -0.5300  -15.6514  -47.5990 H         1 UNK         0.0800 
    134 H134       -2.4881  -15.0381  -51.7825 H         1 UNK         0.0800 
    135 H135       -0.8263  -15.5572  -51.6815 H         1 UNK         0.0800 
    136 H136       -4.3367  -16.5325  -50.8538 H         1 UNK         0.1150 
    137 H137       -3.4557  -20.7117  -50.6665 H         1 UNK         0.1150 
    138 H138       -0.3042  -17.8953  -51.3603 H         1 UNK         0.1150 
    139 H139       -1.2458  -21.5260  -50.9231 H         1 UNK         0.0800 
    140 H140       -0.2446  -20.5919  -52.0070 H         1 UNK         0.0800 
    141 H141       -0.0238  -19.3101  -47.6985 H         1 UNK         0.0800 
    142 H142       -1.5011  -19.7115  -48.4786 H         1 UNK         0.0800 
    143 H143        0.3180  -21.9095  -47.3796 H         1 UNK         0.0600 
    144 H144       -0.9245  -19.9791  -45.7806 H         1 UNK         0.3000 
    145 H145       -2.0488  -21.7519  -43.0495 H         1 UNK         0.0600 
    146 H146       -0.3079  -20.7155  -41.6562 H         1 UNK         0.0600 
    147 H147        0.4169  -22.0196  -42.5795 H         1 UNK         0.0600 
    148 H148        0.6721  -20.3509  -43.0789 H         1 UNK         0.0600 
    149 H149       -1.4198  -19.0249  -43.1816 H         1 UNK         0.3000 
    150 H150       -3.8104  -17.7830  -45.3778 H         1 UNK         0.0600 
    151 H151       -5.4646  -18.4534  -43.6190 H         1 UNK         0.0600 
    152 H152       -5.0329  -16.7564  -43.4826 H         1 UNK         0.0600 
    153 H153       -4.3461  -17.9325  -42.3629 H         1 UNK         0.0600 
    154 H154       -2.5709  -16.4352  -43.2310 H         1 UNK         0.3000 
    155 H155        0.5103  -15.6842  -44.8141 H         1 UNK         0.0600 
    156 H156       -0.3802  -13.4081  -44.5371 H         1 UNK         0.0600 
    157 H157       -2.0093  -14.0305  -44.2751 H         1 UNK         0.0600 
    158 H158       -1.2300  -14.2265  -45.8348 H         1 UNK         0.0600 
    159 H159        0.8651  -15.6480  -42.6740 H         1 UNK         0.3000 
    160 H160       -0.0652  -14.3923  -40.1745 H         1 UNK         0.0600 
    161 H161       -1.5647  -16.9858  -39.5349 H         1 UNK         0.0600 
    162 H162       -2.1359  -15.3479  -39.2496 H         1 UNK         0.0600 
    163 H163       -0.7626  -15.9604  -38.3455 H         1 UNK         0.0600 
    164 H164        1.7828  -15.5729  -40.0585 H         1 UNK         0.3000 
    165 H165        2.7703  -18.5076  -39.6295 H         1 UNK         0.0600 
    166 H166        2.9293  -18.2942  -42.6773 H         1 UNK         0.0600 
    167 H167        4.1357  -19.1027  -41.6799 H         1 UNK         0.0600 
    168 H168        2.4969  -19.7246  -41.7413 H         1 UNK         0.0600 
    169 H169        3.6051  -16.1763  -41.3102 H         1 UNK         0.3000 
    170 H170        5.2728  -14.6947  -38.6025 H         1 UNK         0.0600 
    171 H171        7.1474  -16.1678  -39.3654 H         1 UNK         0.0600 
    172 H172        6.6867  -15.9028  -41.0429 H         1 UNK         0.0600 
    173 H173        7.2785  -14.5610  -40.0615 H         1 UNK         0.0600 
    174 H174        5.1723  -13.9747  -41.3518 H         1 UNK         0.3000 
    175 H175        1.8690  -12.8146  -41.5754 H         1 UNK         0.0600 
    176 H176        4.3611  -11.0598  -41.2431 H         1 UNK         0.0600 
    177 H177        2.8528  -10.5883  -42.0276 H         1 UNK         0.0600 
    178 H178        2.8815  -10.9114  -40.3022 H         1 UNK         0.0600 
    179 H179        3.9750  -12.3645  -43.3475 H         1 UNK         0.3000 
    180 H180        3.5601  -13.5004  -45.4062 H         1 UNK         0.0600 
    181 H181        5.8338  -15.1769  -44.2229 H         1 UNK         0.0600 
    182 H182        5.8226  -13.4485  -44.5168 H         1 UNK         0.0600 
    183 H183        5.8174  -14.5590  -45.8752 H         1 UNK         0.0600 
    184 H184        2.5466  -15.2483  -46.2186 H         1 UNK         0.3000 
    185 H185        3.4255  -18.3677  -46.9767 H         1 UNK         0.0600 
    186 H186        1.4913  -19.5676  -46.0270 H         1 UNK         0.0600 
    187 H187        2.7344  -19.3609  -44.8248 H         1 UNK         0.0600 
    188 H188        1.3080  -18.3382  -44.7687 H         1 UNK         0.0600 
    189 H189        0.8092  -17.0522  -46.8556 H         1 UNK         0.3000 
    190 H190       -3.1055  -21.4795  -46.6318 H         1 UNK         0.3000 
    191 H191       -4.2399  -23.0784  -48.6903 H         1 UNK         0.0600 
    192 H192       -5.5484  -21.4900  -47.3061 H         1 UNK         0.0600 
    193 H193       -6.2207  -23.1092  -47.1870 H         1 UNK         0.0600 
    194 H194       -5.2494  -22.4653  -45.8678 H         1 UNK         0.0600 
    195 H195       -2.5203  -23.9546  -45.7637 H         1 UNK         0.3000 
    196 H196       -3.2636  -26.8374  -46.0504 H         1 UNK         0.0600 
    197 H197       -2.2694  -27.0534  -43.7824 H         1 UNK         0.0600 
    198 H198       -3.5941  -25.8995  -43.7814 H         1 UNK         0.0600 
    199 H199       -1.9285  -25.3275  -43.7399 H         1 UNK         0.0600 
    200 H200       -0.4776  -24.5884  -45.6422 H         1 UNK         0.3000 
    201 H201        1.5257  -26.5357  -45.8210 H         1 UNK         0.0600 
    202 H202        1.8209  -24.3081  -44.7749 H         1 UNK         0.0600 
    203 H203        1.6905  -23.5225  -46.3460 H         1 UNK         0.0600 
    204 H204        3.0540  -24.5766  -45.9974 H         1 UNK         0.0600 
    205 H205        0.0966  -24.5577  -48.4419 H         1 UNK         0.3000 
    206 H206        1.7842  -25.9910  -50.4634 H         1 UNK         0.0600 
    207 H207        1.9858  -23.4736  -50.3979 H         1 UNK         0.0600 
    208 H208        1.3263  -24.0687  -51.9132 H         1 UNK         0.0600 
    209 H209        0.2579  -23.3525  -50.7176 H         1 UNK         0.0600 
    210 H210       -1.0466  -26.4027  -48.9592 H         1 UNK         0.3000 
    211 H211       -3.0411  -27.2752  -49.2967 H         1 UNK         0.0600 
    212 H212       -1.9659  -28.3782  -51.9429 H         1 UNK         0.0600 
    213 H213       -3.3332  -28.9928  -51.0258 H         1 UNK         0.0600 
    214 H214       -1.7136  -29.1166  -50.3611 H         1 UNK         0.0600 
    215 H215       -2.5197  -24.5926  -50.2510 H         1 UNK         0.3000 
    216 H216       -3.5620  -22.8425  -50.9556 H         1 UNK         0.0600 
    217 H217       -5.7586  -23.9123  -50.3082 H         1 UNK         0.0600 
    218 H218       -5.9314  -24.4969  -51.9598 H         1 UNK         0.0600 
    219 H219       -5.9071  -22.7722  -51.6368 H         1 UNK         0.0600 
    220 H220       -3.2807  -21.5203  -52.6708 H         1 UNK         0.3000 
    221 H221       -2.3260  -22.6270  -55.2030 H         1 UNK         0.0600 
    222 H222       -2.6187  -19.7891  -54.0998 H         1 UNK         0.0600 
    223 H223       -1.1360  -20.7342  -54.2126 H         1 UNK         0.0600 
    224 H224       -1.9222  -20.1655  -55.6733 H         1 UNK         0.0600 
    225 H225       -5.3026  -21.4455  -53.9362 H         1 UNK         0.3000 
    226 H226       -7.3532  -21.1811  -54.6213 H         1 UNK         0.0600 
    227 H227       -7.1243  -23.3153  -55.8576 H         1 UNK         0.0600 
    228 H228       -8.2025  -22.2098  -56.6954 H         1 UNK         0.0600 
    229 H229       -6.5697  -22.4560  -57.2928 H         1 UNK         0.0600 
    230 H230       -5.2567  -20.2664  -57.3770 H         1 UNK         0.3000 
    231 H231       -6.9471  -18.1429  -58.3249 H         1 UNK         0.0600 
    232 H232       -4.9684  -17.6003  -59.7583 H         1 UNK         0.0600 
    233 H233       -5.3359  -19.3178  -59.7942 H         1 UNK         0.0600 
    234 H234       -3.9796  -18.7269  -58.8353 H         1 UNK         0.0600 
    235 H235       -4.1567  -18.2272  -56.1152 H         1 UNK         0.3000 
    236 H236       -3.9513  -15.3474  -55.8270 H         1 UNK         0.0600 
    237 H237       -2.0158  -16.9732  -55.5542 H         1 UNK         0.0600 
    238 H238       -2.2233  -15.8811  -54.1956 H         1 UNK         0.0600 
    239 H239       -2.7634  -17.5440  -54.0596 H         1 UNK         0.0600 
    240 H240       -6.0602  -17.7178  -54.4751 H         1 UNK         0.3000 
    241 H241       -6.4705  -16.4477  -51.9077 H         1 UNK         0.0600 
    242 H242       -7.6458  -15.4982  -55.0016 H         1 UNK         0.3800 
    243 H243       -9.0310  -14.6152  -54.4123 H         1 UNK         0.3800 
    244 H244       -8.2210  -18.5878  -53.1837 H         1 UNK         0.0800 
    245 H245       -8.1628  -18.1536  -51.4995 H         1 UNK         0.0800 
    246 H246       -6.0532  -18.1330  -50.1481 H         1 UNK         0.0800 
    247 H247       -5.6250  -19.7935  -49.8344 H         1 UNK         0.0800 
@<TRIPOS>BOND
     1    1    2 1    
     2    1  127 1    
     3    1  128 1    
     4    1  129 1    
     5    2    3 2    
     6    2    4 am   BACKBONE|DICT|INTERRES
     7    4    5 1    
     8    4  130 1    
     9    5    6 1    
    10    5   65 1    
    11    5  131 1    
    12    6    7 1    
    13    6  132 1    
    14    6  133 1    
    15    7    8 1    
    16    8    9 1    
    17    8  134 1    
    18    8  135 1    
    19    9   10 ar   
    20    9   14 ar   
    21   10   11 ar   
    22   10  136 1    
    23   11   12 ar   
    24   11  126 1    
    25   12   13 ar   
    26   12  137 1    
    27   13   14 ar   
    28   13   15 1    
    29   14  138 1    
    30   15   16 1    
    31   15  139 1    
    32   15  140 1    
    33   16   17 1    
    34   17   18 1    
    35   17  141 1    
    36   17  142 1    
    37   18   19 1    
    38   18   67 1    
    39   18  143 1    
    40   19   20 am   BACKBONE|DICT|INTERRES
    41   19  144 1    
    42   20   21 2    
    43   20   22 1    
    44   22   23 1    
    45   22   24 1    
    46   22  145 1    
    47   23  146 1    
    48   23  147 1    
    49   23  148 1    
    50   24   25 am   BACKBONE|DICT|INTERRES
    51   24  149 1    
    52   25   26 2    
    53   25   27 1    
    54   27   28 1    
    55   27   29 1    
    56   27  150 1    
    57   28  151 1    
    58   28  152 1    
    59   28  153 1    
    60   29   30 am   BACKBONE|DICT|INTERRES
    61   29  154 1    
    62   30   31 2    
    63   30   32 1    
    64   32   33 1    
    65   32   34 1    
    66   32  155 1    
    67   33  156 1    
    68   33  157 1    
    69   33  158 1    
    70   34   35 am   BACKBONE|DICT|INTERRES
    71   34  159 1    
    72   35   36 2    
    73   35   37 1    
    74   37   38 1    
    75   37   39 1    
    76   37  160 1    
    77   38  161 1    
    78   38  162 1    
    79   38  163 1    
    80   39   40 am   BACKBONE|DICT|INTERRES
    81   39  164 1    
    82   40   41 2    
    83   40   42 1    
    84   42   43 1    
    85   42   44 1    
    86   42  165 1    
    87   43  166 1    
    88   43  167 1    
    89   43  168 1    
    90   44   45 am   BACKBONE|DICT|INTERRES
    91   44  169 1    
    92   45   46 2    
    93   45   47 1    
    94   47   48 1    
    95   47   49 1    
    96   47  170 1    
    97   48  171 1    
    98   48  172 1    
    99   48  173 1    
   100   49   50 am   BACKBONE|DICT|INTERRES
   101   49  174 1    
   102   50   51 2    
   103   50   52 1    
   104   52   53 1    
   105   52   54 1    
   106   52  175 1    
   107   53  176 1    
   108   53  177 1    
   109   53  178 1    
   110   54   55 am   BACKBONE|DICT|INTERRES
   111   54  179 1    
   112   55   56 2    
   113   55   57 1    
   114   57   58 1    
   115   57   59 1    
   116   57  180 1    
   117   58  181 1    
   118   58  182 1    
   119   58  183 1    
   120   59   60 am   BACKBONE|DICT|INTERRES
   121   59  184 1    
   122   60   61 2    
   123   60   62 1    
   124   62   63 1    
   125   62   64 1    
   126   62  185 1    
   127   63  186 1    
   128   63  187 1    
   129   63  188 1    
   130   64   65 am   BACKBONE|DICT|INTERRES
   131   64  189 1    
   132   65   66 2    
   133   67   68 2    
   134   67   69 am   BACKBONE|DICT|INTERRES
   135   69   70 1    
   136   69  190 1    
   137   70   71 1    
   138   70   72 1    
   139   70  191 1    
   140   71  192 1    
   141   71  193 1    
   142   71  194 1    
   143   72   73 2    
   144   72   74 am   BACKBONE|DICT|INTERRES
   145   74   75 1    
   146   74  195 1    
   147   75   76 1    
   148   75   77 1    
   149   75  196 1    
   150   76  197 1    
   151   76  198 1    
   152   76  199 1    
   153   77   78 2    
   154   77   79 am   BACKBONE|DICT|INTERRES
   155   79   80 1    
   156   79  200 1    
   157   80   81 1    
   158   80   82 1    
   159   80  201 1    
   160   81  202 1    
   161   81  203 1    
   162   81  204 1    
   163   82   83 2    
   164   82   84 am   BACKBONE|DICT|INTERRES
   165   84   85 1    
   166   84  205 1    
   167   85   86 1    
   168   85   87 1    
   169   85  206 1    
   170   86  207 1    
   171   86  208 1    
   172   86  209 1    
   173   87   88 2    
   174   87   89 am   BACKBONE|DICT|INTERRES
   175   89   90 1    
   176   89  210 1    
   177   90   91 1    
   178   90   92 1    
   179   90  211 1    
   180   91  212 1    
   181   91  213 1    
   182   91  214 1    
   183   92   93 2    
   184   92   94 am   BACKBONE|DICT|INTERRES
   185   94   95 1    
   186   94  215 1    
   187   95   96 1    
   188   95   97 1    
   189   95  216 1    
   190   96  217 1    
   191   96  218 1    
   192   96  219 1    
   193   97   98 2    
   194   97   99 am   BACKBONE|DICT|INTERRES
   195   99  100 1    
   196   99  220 1    
   197  100  101 1    
   198  100  102 1    
   199  100  221 1    
   200  101  222 1    
   201  101  223 1    
   202  101  224 1    
   203  102  103 2    
   204  102  104 am   BACKBONE|DICT|INTERRES
   205  104  105 1    
   206  104  225 1    
   207  105  106 1    
   208  105  107 1    
   209  105  226 1    
   210  106  227 1    
   211  106  228 1    
   212  106  229 1    
   213  107  108 2    
   214  107  109 am   BACKBONE|DICT|INTERRES
   215  109  110 1    
   216  109  230 1    
   217  110  111 1    
   218  110  112 1    
   219  110  231 1    
   220  111  232 1    
   221  111  233 1    
   222  111  234 1    
   223  112  113 2    
   224  112  114 am   BACKBONE|DICT|INTERRES
   225  114  115 1    
   226  114  235 1    
   227  115  116 1    
   228  115  117 1    
   229  115  236 1    
   230  116  237 1    
   231  116  238 1    
   232  116  239 1    
   233  117  118 2    
   234  117  119 am   BACKBONE|DICT|INTERRES
   235  119  120 1    
   236  119  240 1    
   237  120  121 1    
   238  120  124 1    
   239  120  241 1    
   240  121  122 am   BACKBONE|DICT|INTERRES
   241  121  123 2    
   242  122  242 1    
   243  122  243 1    
   244  124  125 1    
   245  124  244 1    
   246  124  245 1    
   247  125  126 1    
   248  126  246 1    
   249  126  247 1    
@<TRIPOS>SUBSTRUCTURE
     1 UNK         1 GROUP             0       ****    0 ROOT    
