@<TRIPOS>MOLECULE
3R540
247   249    1
SMALL
USER_CHARGES


@<TRIPOS>ATOM
      1 CA          4.8701  -16.1001  -47.7429 C.3       0 UNK        -0.1800 
      2 C           3.5440  -15.6455  -47.1508 C.2       0 UNK         0.5000 
      3 O           3.4002  -15.5973  -45.9297 O.2       0 UNK        -0.5000 
      4 N           2.5768  -15.3034  -48.0101 N.am      1 UNK        -0.5000 
      5 CA          1.1998  -14.9302  -47.6624 C.3       1 UNK         0.1400 
      6 C6          0.2274  -15.1409  -48.8525 C.3       23 UNK        -0.0398 
      7 S7          0.1734  -16.8812  -49.3850 S.3       23 UNK        -0.2404 
      8 C8          1.0828  -16.8260  -50.9542 C.3       23 UNK        -0.0205 
      9 C9          1.5374  -18.2225  -51.3356 C.ar      23 UNK        -0.0193 
     10 C10         0.6622  -19.1034  -51.9759 C.ar      23 UNK        -0.1150 
     11 C11         1.0733  -20.3986  -52.3007 C.ar      23 UNK        -0.0193 
     12 C12         2.3622  -20.8166  -51.9562 C.ar      23 UNK        -0.1150 
     13 C13         3.2429  -19.9509  -51.3001 C.ar      23 UNK        -0.0193 
     14 C14         2.8294  -18.6453  -51.0154 C.ar      23 UNK        -0.1150 
     15 C15         4.6348  -20.4459  -50.9158 C.3       23 UNK        -0.0205 
     16 S16         5.2389  -19.8708  -49.2877 S.3       23 UNK        -0.2404 
     17 C17         3.8652  -20.2679  -48.1516 C.3       23 UNK        -0.0398 
     18 CA          3.8818  -21.7316  -47.6365 C.3       11 UNK         0.1400 
     19 N           3.3890  -21.8010  -46.2610 N.am      11 UNK        -0.5000 
     20 C           3.9858  -22.4497  -45.2528 C.2       10 UNK         0.5000 
     21 O           5.0214  -23.1039  -45.3805 O.2       10 UNK        -0.5000 
     22 CA          3.3314  -22.3512  -43.8569 C.3       10 UNK         0.1400 
     23 CB          4.0956  -21.3534  -42.9732 C.3       10 UNK        -0.1800 
     24 N           1.9198  -21.9661  -43.8874 N.am      10 UNK        -0.5000 
     25 C           0.9385  -22.7248  -44.3900 C.2       9 UNK         0.5000 
     26 O           1.1139  -23.8549  -44.8428 O.2       9 UNK        -0.5000 
     27 CA         -0.4639  -22.0996  -44.4569 C.3       9 UNK         0.1400 
     28 CB         -1.2408  -22.3814  -43.1637 C.3       9 UNK        -0.1800 
     29 N          -0.4691  -20.6627  -44.7521 N.am      9 UNK        -0.5000 
     30 C           0.0639  -20.1084  -45.8525 C.2       8 UNK         0.5000 
     31 O           0.6632  -20.7462  -46.7150 O.2       8 UNK        -0.5000 
     32 CA         -0.0270  -18.5819  -45.9930 C.3       8 UNK         0.1400 
     33 CB         -1.4150  -18.1725  -46.4981 C.3       8 UNK        -0.1800 
     34 N           0.2829  -17.8942  -44.7424 N.am      8 UNK        -0.5000 
     35 C           1.4877  -17.9211  -44.1540 C.2       7 UNK         0.5000 
     36 O           2.4786  -18.4639  -44.6437 O.2       7 UNK        -0.5000 
     37 CA          1.5767  -17.3084  -42.7446 C.3       7 UNK         0.1400 
     38 CB          1.6049  -15.7741  -42.7901 C.3       7 UNK        -0.1800 
     39 N           0.4826  -17.7560  -41.8803 N.am      7 UNK        -0.5000 
     40 C           0.3146  -19.0238  -41.4785 C.2       6 UNK         0.5000 
     41 O           1.0756  -19.9438  -41.7795 O.2       6 UNK        -0.5000 
     42 CA         -0.9170  -19.3221  -40.6037 C.3       6 UNK         0.1400 
     43 CB         -0.5790  -19.1168  -39.1195 C.3       6 UNK        -0.1800 
     44 N          -2.1129  -18.5419  -40.9346 N.am      6 UNK        -0.5000 
     45 C          -2.7528  -18.5439  -42.1131 C.2       5 UNK         0.5000 
     46 O          -2.3268  -19.1258  -43.1118 O.2       5 UNK        -0.5000 
     47 CA         -4.1017  -17.7939  -42.1814 C.3       5 UNK         0.1400 
     48 CB         -4.5398  -17.1593  -40.8453 C.3       5 UNK        -0.1800 
     49 N          -4.0611  -16.7473  -43.1974 N.am      5 UNK        -0.5000 
     50 C          -4.3552  -16.9066  -44.4940 C.2       4 UNK         0.5000 
     51 O          -4.7588  -17.9625  -44.9778 O.2       4 UNK        -0.5000 
     52 CA         -4.1949  -15.6764  -45.4132 C.3       4 UNK         0.1400 
     53 CB         -5.5560  -15.2321  -45.9724 C.3       4 UNK        -0.1800 
     54 N          -3.5468  -14.5247  -44.7737 N.am      4 UNK        -0.5000 
     55 C          -2.2411  -14.4537  -44.4936 C.2       3 UNK         0.5000 
     56 O          -1.4465  -15.3742  -44.7019 O.2       3 UNK        -0.5000 
     57 CA         -1.7359  -13.1560  -43.8502 C.3       3 UNK         0.1400 
     58 CB         -1.8302  -13.2236  -42.3173 C.3       3 UNK        -0.1800 
     59 N          -0.3475  -13.0136  -44.2538 N.am      3 UNK        -0.5000 
     60 C           0.3190  -11.8798  -44.4856 C.2       2 UNK         0.5000 
     61 O          -0.1174  -10.7574  -44.2287 O.2       2 UNK        -0.5000 
     62 CA          1.7007  -12.0385  -45.1552 C.3       2 UNK         0.1400 
     63 CB          2.8157  -12.0469  -44.0988 C.3       2 UNK        -0.1800 
     64 N           1.7949  -13.2621  -45.9600 N.am      2 UNK        -0.5000 
     65 C           1.1115  -13.4980  -47.0878 C.2       1 UNK         0.5000 
     66 O           0.4255  -12.6433  -47.6511 O.2       1 UNK        -0.5000 
     67 C           3.0538  -22.6591  -48.5495 C.2       11 UNK         0.5000 
     68 O           3.6216  -23.4815  -49.2689 O.2       11 UNK        -0.5000 
     69 N           1.7247  -22.5023  -48.5083 N.am      12 UNK        -0.5000 
     70 CA          0.7636  -23.1380  -49.4085 C.3       12 UNK         0.1400 
     71 CB         -0.4650  -22.2192  -49.5203 C.3       12 UNK        -0.1800 
     72 C           0.3267  -24.5442  -48.9613 C.2       12 UNK         0.5000 
     73 O          -0.2963  -25.2495  -49.7549 O.2       12 UNK        -0.5000 
     74 N           0.6212  -24.9132  -47.7047 N.am      13 UNK        -0.5000 
     75 CA          0.2154  -26.1487  -47.0172 C.3       13 UNK         0.1400 
     76 CB          0.7353  -27.4048  -47.7482 C.3       13 UNK        -0.1800 
     77 C          -1.2972  -26.2240  -46.7037 C.2       13 UNK         0.5000 
     78 O          -1.7910  -27.2914  -46.3364 O.2       13 UNK        -0.5000 
     79 N          -2.0022  -25.0934  -46.8192 N.am      14 UNK        -0.5000 
     80 CA         -3.4117  -24.9097  -46.4973 C.3       14 UNK         0.1400 
     81 CB         -4.2868  -25.3496  -47.6832 C.3       14 UNK        -0.1800 
     82 C          -3.6200  -23.4244  -46.1819 C.2       14 UNK         0.5000 
     83 O          -2.9534  -22.5828  -46.7877 O.2       14 UNK        -0.5000 
     84 N          -4.5249  -23.1204  -45.2448 N.am      15 UNK        -0.5000 
     85 CA         -4.8282  -21.7646  -44.7789 C.3       15 UNK         0.1400 
     86 CB         -5.4589  -21.8489  -43.3774 C.3       15 UNK        -0.1800 
     87 C          -5.7019  -20.9858  -45.7830 C.2       15 UNK         0.5000 
     88 O          -6.8670  -20.6930  -45.5059 O.2       15 UNK        -0.5000 
     89 N          -5.1137  -20.6801  -46.9400 N.am      16 UNK        -0.5000 
     90 CA         -5.6449  -19.8160  -47.9807 C.3       16 UNK         0.1400 
     91 CB         -6.6070  -20.6054  -48.8851 C.3       16 UNK        -0.1800 
     92 C          -4.4535  -19.2477  -48.7630 C.2       16 UNK         0.5000 
     93 O          -3.4507  -19.9438  -48.9356 O.2       16 UNK        -0.5000 
     94 N          -4.5773  -17.9943  -49.2118 N.am      17 UNK        -0.5000 
     95 CA         -3.5561  -17.2951  -49.9926 C.3       17 UNK         0.1400 
     96 CB         -3.7702  -15.7809  -49.8257 C.3       17 UNK        -0.1800 
     97 C          -3.5785  -17.7065  -51.4785 C.2       17 UNK         0.5000 
     98 O          -4.4473  -18.4736  -51.8991 O.2       17 UNK        -0.5000 
     99 N          -2.6413  -17.1656  -52.2691 N.am      18 UNK        -0.5000 
    100 CA        -2.5907  -17.3331  -53.7260 C.3       18 UNK         0.1400 
    101 CB        -1.3759  -16.5787  -54.2865 C.3       18 UNK        -0.1800 
    102 C         -3.8893  -16.8605  -54.4131 C.2       18 UNK         0.5000 
    103 O         -4.4972  -15.8844  -53.9688 O.2       18 UNK        -0.5000 
    104 N         -4.2960  -17.5947  -55.4541 N.am      19 UNK        -0.5000 
    105 CA        -5.5575  -17.5343  -56.2011 C.3       19 UNK         0.1400 
    106 CB        -5.9152  -16.1082  -56.6647 C.3       19 UNK        -0.1800 
    107 C         -6.7365  -18.2224  -55.4835 C.2       19 UNK         0.5000 
    108 O         -7.6466  -18.6915  -56.1685 O.2       19 UNK        -0.5000 
    109 N         -6.7037  -18.3124  -54.1461 N.am      20 UNK        -0.5000 
    110 CA        -7.6455  -19.1042  -53.3532 C.3       20 UNK         0.1400 
    111 CB        -7.8904  -18.4233  -51.9971 C.3       20 UNK        -0.1800 
    112 C         -7.1290  -20.5451  -53.1879 C.2       20 UNK         0.5000 
    113 O         -7.8892  -21.4900  -53.4026 O.2       20 UNK        -0.5000 
    114 N         -5.8410  -20.6813  -52.8451 N.am      21 UNK        -0.5000 
    115 CA        -5.0878  -21.9314  -52.8371 C.3       21 UNK         0.1400 
    116 CB        -4.0095  -21.8698  -51.7348 C.3       21 UNK        -0.1800 
    117 C         -4.5143  -22.1902  -54.2447 C.2       21 UNK         0.5000 
    118 O         -5.2673  -22.5588  -55.1476 O.2       21 UNK        -0.5000 
    119 N         -3.1977  -22.0119  -54.4093 N.am      22 UNK        -0.5000 
    120 CA        -2.4771  -22.1741  -55.6787 C.3       22 UNK         0.1400 
    121 C         -2.8090  -21.0681  -56.7208 C.2       22 UNK         0.5000 
    122 N         -2.7441  -21.3793  -58.0080 N.am      22 UNK        -0.7600 
    123 O         -3.0912  -19.9235  -56.3747 O.2       22 UNK        -0.5000 
    124 C124       -0.9508  -22.3267  -55.4476 C.3       23 UNK        -0.0398 
    125 S125       -0.1165  -20.8581  -54.7439 S.3       23 UNK        -0.2404 
    126 C126        0.1202  -21.3485  -53.0087 C.3       23 UNK        -0.0205 
    127 H127        4.8400  -16.1303  -48.8323 H         1 UNK         0.0600 
    128 H128        5.1150  -17.0999  -47.3841 H         1 UNK         0.0600 
    129 H129        5.6686  -15.4228  -47.4407 H         1 UNK         0.0600 
    130 H130        2.7764  -15.3287  -48.9984 H         1 UNK         0.3000 
    131 H131        0.8688  -15.5946  -46.8603 H         1 UNK         0.0600 
    132 H132       -0.7888  -14.8645  -48.5649 H         1 UNK         0.0800 
    133 H133        0.4913  -14.4992  -49.6949 H         1 UNK         0.0800 
    134 H134        0.4474  -16.4042  -51.7329 H         1 UNK         0.0800 
    135 H135        1.9451  -16.1643  -50.8655 H         1 UNK         0.0800 
    136 H136       -0.3409  -18.7854  -52.2188 H         1 UNK         0.1150 
    137 H137        2.6789  -21.8226  -52.1934 H         1 UNK         0.1150 
    138 H138        3.5036  -17.9652  -50.5150 H         1 UNK         0.1150 
    139 H139        4.6648  -21.5361  -50.9247 H         1 UNK         0.0800 
    140 H140        5.3392  -20.1176  -51.6809 H         1 UNK         0.0800 
    141 H141        2.9032  -19.9890  -48.5840 H         1 UNK         0.0800 
    142 H142        3.9893  -19.5856  -47.3086 H         1 UNK         0.0800 
    143 H143        4.9133  -22.0893  -47.6622 H         1 UNK         0.0600 
    144 H144        2.5167  -21.3182  -46.0773 H         1 UNK         0.3000 
    145 H145        3.4005  -23.3380  -43.3947 H         1 UNK         0.0600 
    146 H146        3.6853  -21.3257  -41.9635 H         1 UNK         0.0600 
    147 H147        5.1477  -21.6286  -42.8895 H         1 UNK         0.0600 
    148 H148        4.0511  -20.3424  -43.3797 H         1 UNK         0.0600 
    149 H149        1.6827  -21.0627  -43.4916 H         1 UNK         0.3000 
    150 H150       -0.9779  -22.5938  -45.2774 H         1 UNK         0.0600 
    151 H151       -1.3828  -23.4537  -43.0245 H         1 UNK         0.0600 
    152 H152       -2.2279  -21.9224  -43.1773 H         1 UNK         0.0600 
    153 H153       -0.7076  -22.0090  -42.2903 H         1 UNK         0.0600 
    154 H154       -0.9752  -20.0635  -44.1051 H         1 UNK         0.3000 
    155 H155        0.7105  -18.2721  -46.7363 H         1 UNK         0.0600 
    156 H156       -2.1963  -18.4373  -45.7871 H         1 UNK         0.0600 
    157 H157       -1.4676  -17.1017  -46.6883 H         1 UNK         0.0600 
    158 H158       -1.6427  -18.6761  -47.4373 H         1 UNK         0.0600 
    159 H159       -0.4814  -17.4095  -44.2904 H         1 UNK         0.3000 
    160 H160        2.5153  -17.6462  -42.2996 H         1 UNK         0.0600 
    161 H161        1.7772  -15.3534  -41.7994 H         1 UNK         0.0600 
    162 H162        0.6687  -15.3677  -43.1657 H         1 UNK         0.0600 
    163 H163        2.4062  -15.4176  -43.4372 H         1 UNK         0.0600 
    164 H164       -0.1958  -17.0654  -41.5968 H         1 UNK         0.3000 
    165 H165       -1.1711  -20.3733  -40.7441 H         1 UNK         0.0600 
    166 H166       -1.4037  -19.4305  -38.4791 H         1 UNK         0.0600 
    167 H167        0.2940  -19.7046  -38.8323 H         1 UNK         0.0600 
    168 H168       -0.3587  -18.0719  -38.8973 H         1 UNK         0.0600 
    169 H169       -2.5313  -18.0307  -40.1712 H         1 UNK         0.3000 
    170 H170       -4.8564  -18.5336  -42.4554 H         1 UNK         0.0600 
    171 H171       -3.8393  -16.3960  -40.5034 H         1 UNK         0.0600 
    172 H172       -5.5163  -16.6847  -40.9456 H         1 UNK         0.0600 
    173 H173       -4.6352  -17.9101  -40.0597 H         1 UNK         0.0600 
    174 H174       -3.7208  -15.8452  -42.9027 H         1 UNK         0.3000 
    175 H175       -3.5768  -15.9908  -46.2563 H         1 UNK         0.0600 
    176 H176       -5.4421  -14.4153  -46.6854 H         1 UNK         0.0600 
    177 H177       -6.2261  -14.8977  -45.1796 H         1 UNK         0.0600 
    178 H178       -6.0507  -16.0505  -46.4974 H         1 UNK         0.0600 
    179 H179       -4.1420  -13.7370  -44.5597 H         1 UNK         0.3000 
    180 H180       -2.3217  -12.3153  -44.2280 H         1 UNK         0.0600 
    181 H181       -1.2681  -14.0678  -41.9155 H         1 UNK         0.0600 
    182 H182       -2.8656  -13.3309  -41.9924 H         1 UNK         0.0600 
    183 H183       -1.4388  -12.3150  -41.8595 H         1 UNK         0.0600 
    184 H184        0.0729  -13.8874  -44.5426 H         1 UNK         0.3000 
    185 H185        1.8538  -11.1814  -45.8141 H         1 UNK         0.0600 
    186 H186        2.7124  -12.8862  -43.4102 H         1 UNK         0.0600 
    187 H187        3.7994  -12.1134  -44.5639 H         1 UNK         0.0600 
    188 H188        2.7977  -11.1317  -43.5057 H         1 UNK         0.0600 
    189 H189        2.3898  -14.0090  -45.6102 H         1 UNK         0.3000 
    190 H190        1.3307  -21.8144  -47.8649 H         1 UNK         0.3000 
    191 H191        1.2135  -23.2306  -50.3989 H         1 UNK         0.0600 
    192 H192       -0.1860  -21.2182  -49.8484 H         1 UNK         0.0600 
    193 H193       -1.1876  -22.6092  -50.2377 H         1 UNK         0.0600 
    194 H194       -0.9789  -22.1155  -48.5642 H         1 UNK         0.0600 
    195 H195        1.1207  -24.2511  -47.1244 H         1 UNK         0.3000 
    196 H196        0.7126  -26.1249  -46.0475 H         1 UNK         0.0600 
    197 H197        0.6044  -28.2952  -47.1324 H         1 UNK         0.0600 
    198 H198        1.7989  -27.3203  -47.9711 H         1 UNK         0.0600 
    199 H199        0.2069  -27.5812  -48.6851 H         1 UNK         0.0600 
    200 H200       -1.5325  -24.2451  -47.1079 H         1 UNK         0.3000 
    201 H201       -3.6623  -25.4993  -45.6129 H         1 UNK         0.0600 
    202 H202       -4.1479  -26.4074  -47.9069 H         1 UNK         0.0600 
    203 H203       -4.0513  -24.7831  -48.5854 H         1 UNK         0.0600 
    204 H204       -5.3448  -25.1988  -47.4659 H         1 UNK         0.0600 
    205 H205       -5.0597  -23.8643  -44.8204 H         1 UNK         0.3000 
    206 H206       -3.8936  -21.2072  -44.6816 H         1 UNK         0.0600 
    207 H207       -4.7801  -22.3220  -42.6676 H         1 UNK         0.0600 
    208 H208       -5.6861  -20.8540  -42.9929 H         1 UNK         0.0600 
    209 H209       -6.3885  -22.4191  -43.3860 H         1 UNK         0.0600 
    210 H210       -4.1623  -21.0024  -47.1065 H         1 UNK         0.3000 
    211 H211       -6.1802  -18.9853  -47.5156 H         1 UNK         0.0600 
    212 H212       -6.8961  -20.0225  -49.7584 H         1 UNK         0.0600 
    213 H213       -6.1565  -21.5313  -49.2409 H         1 UNK         0.0600 
    214 H214       -7.5205  -20.8673  -48.3513 H         1 UNK         0.0600 
    215 H215       -5.4477  -17.5038  -49.0730 H         1 UNK         0.3000 
    216 H216       -2.5771  -17.5553  -49.5906 H         1 UNK         0.0600 
    217 H217       -2.9823  -15.2103  -50.3183 H         1 UNK         0.0600 
    218 H218       -3.7586  -15.4950  -48.7738 H         1 UNK         0.0600 
    219 H219       -4.7224  -15.4609  -50.2508 H         1 UNK         0.0600 
    220 H220       -1.9835  -16.5148  -51.8687 H         1 UNK         0.3000 
    221 H221       -2.4586  -18.3985  -53.9293 H         1 UNK         0.0600 
    222 H222       -1.4126  -15.5168  -54.0408 H         1 UNK         0.0600 
    223 H223       -0.4422  -16.9854  -53.8999 H         1 UNK         0.0600 
    224 H224       -1.3331  -16.6634  -55.3733 H         1 UNK         0.0600 
    225 H225       -3.7208  -18.3950  -55.7219 H         1 UNK         0.3000 
    226 H226       -5.3717  -18.1229  -57.1009 H         1 UNK         0.0600 
    227 H227       -5.0708  -15.6281  -57.1592 H         1 UNK         0.0600 
    228 H228       -6.7395  -16.1323  -57.3783 H         1 UNK         0.0600 
    229 H229       -6.2294  -15.4736  -55.8361 H         1 UNK         0.0600 
    230 H230       -5.9197  -17.9096  -53.6495 H         1 UNK         0.3000 
    231 H231       -8.6078  -19.1542  -53.8672 H         1 UNK         0.0600 
    232 H232       -6.9717  -18.2985  -51.4262 H         1 UNK         0.0600 
    233 H233       -8.5808  -19.0078  -51.3879 H         1 UNK         0.0600 
    234 H234       -8.3325  -17.4360  -52.1311 H         1 UNK         0.0600 
    235 H235       -5.3065  -19.8413  -52.6283 H         1 UNK         0.3000 
    236 H236       -5.7564  -22.7617  -52.6010 H         1 UNK         0.0600 
    237 H237       -4.4651  -21.7991  -50.7494 H         1 UNK         0.0600 
    238 H238       -3.3937  -22.7701  -51.7306 H         1 UNK         0.0600 
    239 H239       -3.3490  -21.0091  -51.8462 H         1 UNK         0.0600 
    240 H240       -2.6555  -21.6629  -53.6352 H         1 UNK         0.3000 
    241 H241       -2.8232  -23.1170  -56.1072 H         1 UNK         0.0600 
    242 H242       -2.5089  -22.3089  -58.3199 H         1 UNK         0.3800 
    243 H243       -2.9422  -20.6657  -58.6919 H         1 UNK         0.3800 
    244 H244       -0.7641  -23.1909  -54.8092 H         1 UNK         0.0800 
    245 H245       -0.4585  -22.5617  -56.3927 H         1 UNK         0.0800 
    246 H246       -0.8405  -21.3507  -52.4935 H         1 UNK         0.0800 
    247 H247        0.5024  -22.3694  -52.9634 H         1 UNK         0.0800 
@<TRIPOS>BOND
     1    1    2 1    
     2    1  127 1    
     3    1  128 1    
     4    1  129 1    
     5    2    3 2    
     6    2    4 am   BACKBONE|DICT|INTERRES
     7    4    5 1    
     8    4  130 1    
     9    5    6 1    
    10    5   65 1    
    11    5  131 1    
    12    6    7 1    
    13    6  132 1    
    14    6  133 1    
    15    7    8 1    
    16    8    9 1    
    17    8  134 1    
    18    8  135 1    
    19    9   10 ar   
    20    9   14 ar   
    21   10   11 ar   
    22   10  136 1    
    23   11   12 ar   
    24   11  126 1    
    25   12   13 ar   
    26   12  137 1    
    27   13   14 ar   
    28   13   15 1    
    29   14  138 1    
    30   15   16 1    
    31   15  139 1    
    32   15  140 1    
    33   16   17 1    
    34   17   18 1    
    35   17  141 1    
    36   17  142 1    
    37   18   19 1    
    38   18   67 1    
    39   18  143 1    
    40   19   20 am   BACKBONE|DICT|INTERRES
    41   19  144 1    
    42   20   21 2    
    43   20   22 1    
    44   22   23 1    
    45   22   24 1    
    46   22  145 1    
    47   23  146 1    
    48   23  147 1    
    49   23  148 1    
    50   24   25 am   BACKBONE|DICT|INTERRES
    51   24  149 1    
    52   25   26 2    
    53   25   27 1    
    54   27   28 1    
    55   27   29 1    
    56   27  150 1    
    57   28  151 1    
    58   28  152 1    
    59   28  153 1    
    60   29   30 am   BACKBONE|DICT|INTERRES
    61   29  154 1    
    62   30   31 2    
    63   30   32 1    
    64   32   33 1    
    65   32   34 1    
    66   32  155 1    
    67   33  156 1    
    68   33  157 1    
    69   33  158 1    
    70   34   35 am   BACKBONE|DICT|INTERRES
    71   34  159 1    
    72   35   36 2    
    73   35   37 1    
    74   37   38 1    
    75   37   39 1    
    76   37  160 1    
    77   38  161 1    
    78   38  162 1    
    79   38  163 1    
    80   39   40 am   BACKBONE|DICT|INTERRES
    81   39  164 1    
    82   40   41 2    
    83   40   42 1    
    84   42   43 1    
    85   42   44 1    
    86   42  165 1    
    87   43  166 1    
    88   43  167 1    
    89   43  168 1    
    90   44   45 am   BACKBONE|DICT|INTERRES
    91   44  169 1    
    92   45   46 2    
    93   45   47 1    
    94   47   48 1    
    95   47   49 1    
    96   47  170 1    
    97   48  171 1    
    98   48  172 1    
    99   48  173 1    
   100   49   50 am   BACKBONE|DICT|INTERRES
   101   49  174 1    
   102   50   51 2    
   103   50   52 1    
   104   52   53 1    
   105   52   54 1    
   106   52  175 1    
   107   53  176 1    
   108   53  177 1    
   109   53  178 1    
   110   54   55 am   BACKBONE|DICT|INTERRES
   111   54  179 1    
   112   55   56 2    
   113   55   57 1    
   114   57   58 1    
   115   57   59 1    
   116   57  180 1    
   117   58  181 1    
   118   58  182 1    
   119   58  183 1    
   120   59   60 am   BACKBONE|DICT|INTERRES
   121   59  184 1    
   122   60   61 2    
   123   60   62 1    
   124   62   63 1    
   125   62   64 1    
   126   62  185 1    
   127   63  186 1    
   128   63  187 1    
   129   63  188 1    
   130   64   65 am   BACKBONE|DICT|INTERRES
   131   64  189 1    
   132   65   66 2    
   133   67   68 2    
   134   67   69 am   BACKBONE|DICT|INTERRES
   135   69   70 1    
   136   69  190 1    
   137   70   71 1    
   138   70   72 1    
   139   70  191 1    
   140   71  192 1    
   141   71  193 1    
   142   71  194 1    
   143   72   73 2    
   144   72   74 am   BACKBONE|DICT|INTERRES
   145   74   75 1    
   146   74  195 1    
   147   75   76 1    
   148   75   77 1    
   149   75  196 1    
   150   76  197 1    
   151   76  198 1    
   152   76  199 1    
   153   77   78 2    
   154   77   79 am   BACKBONE|DICT|INTERRES
   155   79   80 1    
   156   79  200 1    
   157   80   81 1    
   158   80   82 1    
   159   80  201 1    
   160   81  202 1    
   161   81  203 1    
   162   81  204 1    
   163   82   83 2    
   164   82   84 am   BACKBONE|DICT|INTERRES
   165   84   85 1    
   166   84  205 1    
   167   85   86 1    
   168   85   87 1    
   169   85  206 1    
   170   86  207 1    
   171   86  208 1    
   172   86  209 1    
   173   87   88 2    
   174   87   89 am   BACKBONE|DICT|INTERRES
   175   89   90 1    
   176   89  210 1    
   177   90   91 1    
   178   90   92 1    
   179   90  211 1    
   180   91  212 1    
   181   91  213 1    
   182   91  214 1    
   183   92   93 2    
   184   92   94 am   BACKBONE|DICT|INTERRES
   185   94   95 1    
   186   94  215 1    
   187   95   96 1    
   188   95   97 1    
   189   95  216 1    
   190   96  217 1    
   191   96  218 1    
   192   96  219 1    
   193   97   98 2    
   194   97   99 am   BACKBONE|DICT|INTERRES
   195   99  100 1    
   196   99  220 1    
   197  100  101 1    
   198  100  102 1    
   199  100  221 1    
   200  101  222 1    
   201  101  223 1    
   202  101  224 1    
   203  102  103 2    
   204  102  104 am   BACKBONE|DICT|INTERRES
   205  104  105 1    
   206  104  225 1    
   207  105  106 1    
   208  105  107 1    
   209  105  226 1    
   210  106  227 1    
   211  106  228 1    
   212  106  229 1    
   213  107  108 2    
   214  107  109 am   BACKBONE|DICT|INTERRES
   215  109  110 1    
   216  109  230 1    
   217  110  111 1    
   218  110  112 1    
   219  110  231 1    
   220  111  232 1    
   221  111  233 1    
   222  111  234 1    
   223  112  113 2    
   224  112  114 am   BACKBONE|DICT|INTERRES
   225  114  115 1    
   226  114  235 1    
   227  115  116 1    
   228  115  117 1    
   229  115  236 1    
   230  116  237 1    
   231  116  238 1    
   232  116  239 1    
   233  117  118 2    
   234  117  119 am   BACKBONE|DICT|INTERRES
   235  119  120 1    
   236  119  240 1    
   237  120  121 1    
   238  120  124 1    
   239  120  241 1    
   240  121  122 am   BACKBONE|DICT|INTERRES
   241  121  123 2    
   242  122  242 1    
   243  122  243 1    
   244  124  125 1    
   245  124  244 1    
   246  124  245 1    
   247  125  126 1    
   248  126  246 1    
   249  126  247 1    
@<TRIPOS>SUBSTRUCTURE
     1 UNK         1 GROUP             0       ****    0 ROOT    
