@<TRIPOS>MOLECULE
3R540
247   249    1
SMALL
USER_CHARGES


@<TRIPOS>ATOM
      1 CA          0.0908  -12.2953  -47.0113 C.3       0 UNK        -0.1800 
      2 C           1.4738  -11.8855  -47.4952 C.2       0 UNK         0.5000 
      3 O           1.6709  -10.7341  -47.8852 O.2       0 UNK        -0.5000 
      4 N           2.4326  -12.8183  -47.4614 N.am      1 UNK        -0.5000 
      5 CA          3.8298  -12.6237  -47.8646 C.3       1 UNK         0.1400 
      6 C6          4.5941  -13.9663  -47.9523 C.3       23 UNK        -0.0398 
      7 S7          4.0029  -14.9898  -49.3396 S.3       23 UNK        -0.2404 
      8 C8          2.8896  -16.1491  -48.4912 C.3       23 UNK        -0.0205 
      9 C9          2.1922  -17.0508  -49.4934 C.ar      23 UNK        -0.0193 
     10 C10         1.0708  -16.5908  -50.1887 C.ar      23 UNK        -0.1150 
     11 C11         0.4298  -17.4105  -51.1214 C.ar      23 UNK        -0.0193 
     12 C12         0.9205  -18.6971  -51.3594 C.ar      23 UNK        -0.1150 
     13 C13         2.0334  -19.1726  -50.6593 C.ar      23 UNK        -0.0193 
     14 C14         2.6663  -18.3434  -49.7288 C.ar      23 UNK        -0.1150 
     15 C15         2.5483  -20.5865  -50.8937 C.3       23 UNK        -0.0205 
     16 S16         1.3257  -21.8616  -50.4459 S.3       23 UNK        -0.2404 
     17 C17         0.7915  -21.3012  -48.7930 C.3       23 UNK        -0.0398 
     18 CA          0.2842  -22.4505  -47.8950 C.3       11 UNK         0.1400 
     19 N           0.2202  -22.0454  -46.4895 N.am      11 UNK        -0.5000 
     20 C          -0.0048  -22.8784  -45.4644 C.2       10 UNK         0.5000 
     21 O          -0.1224  -24.0970  -45.5864 O.2       10 UNK        -0.5000 
     22 CA         -0.1768  -22.2387  -44.0757 C.3       10 UNK         0.1400 
     23 CB          1.1892  -21.9464  -43.4378 C.3       10 UNK        -0.1800 
     24 N          -0.9801  -21.0154  -44.1183 N.am      10 UNK        -0.5000 
     25 C          -2.2703  -20.9711  -44.4817 C.2       9 UNK         0.5000 
     26 O          -2.9328  -21.9700  -44.7591 O.2       9 UNK        -0.5000 
     27 CA         -2.9194  -19.5802  -44.6027 C.3       9 UNK         0.1400 
     28 CB         -3.3525  -19.0581  -43.2255 C.3       9 UNK        -0.1800 
     29 N          -2.0472  -18.6007  -45.2524 N.am      9 UNK        -0.5000 
     30 C          -1.6061  -18.6913  -46.5158 C.2       8 UNK         0.5000 
     31 O          -1.9188  -19.6002  -47.2837 O.2       8 UNK        -0.5000 
     32 CA         -0.5980  -17.6232  -46.9764 C.3       8 UNK         0.1400 
     33 CB         -1.3039  -16.3168  -47.3698 C.3       8 UNK        -0.1800 
     34 N           0.4100  -17.3488  -45.9520 N.am      8 UNK        -0.5000 
     35 C           1.3368  -18.2318  -45.5539 C.2       7 UNK         0.5000 
     36 O           1.4819  -19.3464  -46.0558 O.2       7 UNK        -0.5000 
     37 CA          2.2084  -17.8165  -44.3562 C.3       7 UNK         0.1400 
     38 CB          3.3897  -16.9439  -44.8072 C.3       7 UNK        -0.1800 
     39 N           1.4299  -17.1089  -43.3378 N.am      7 UNK        -0.5000 
     40 C           0.5317  -17.7065  -42.5393 C.2       6 UNK         0.5000 
     41 O           0.2920  -18.9121  -42.5728 O.2       6 UNK        -0.5000 
     42 CA         -0.2604  -16.8142  -41.5640 C.3       6 UNK         0.1400 
     43 CB          0.4895  -16.6817  -40.2305 C.3       6 UNK        -0.1800 
     44 N          -0.5376  -15.4798  -42.0926 N.am      6 UNK        -0.5000 
     45 C          -1.2544  -15.2175  -43.1947 C.2       5 UNK         0.5000 
     46 O          -1.8218  -16.0824  -43.8606 O.2       5 UNK        -0.5000 
     47 CA         -1.2902  -13.7500  -43.6644 C.3       5 UNK         0.1400 
     48 CB         -2.5485  -13.0447  -43.1398 C.3       5 UNK        -0.1800 
     49 N          -0.1050  -12.9813  -43.2680 N.am      5 UNK        -0.5000 
     50 C           1.1530  -13.2665  -43.6277 C.2       4 UNK         0.5000 
     51 O           1.4478  -14.1911  -44.3887 O.2       4 UNK        -0.5000 
     52 CA          2.2477  -12.3603  -43.0391 C.3       4 UNK         0.1400 
     53 CB          3.5939  -13.0934  -42.9064 C.3       4 UNK        -0.1800 
     54 N           2.4015  -11.1637  -43.8659 N.am      4 UNK        -0.5000 
     55 C           1.5907  -10.0955  -43.7982 C.2       3 UNK         0.5000 
     56 O           0.6809  -10.0041  -42.9717 O.2       3 UNK        -0.5000 
     57 CA          1.7694   -8.9618  -44.8318 C.3       3 UNK         0.1400 
     58 CB          1.6967   -7.5603  -44.1902 C.3       3 UNK        -0.1800 
     59 N           2.9432   -9.1046  -45.6984 N.am      3 UNK        -0.5000 
     60 C           4.2390   -8.9453  -45.3864 C.2       2 UNK         0.5000 
     61 O           4.6445   -8.5852  -44.2806 O.2       2 UNK        -0.5000 
     62 CA          5.2421   -9.2903  -46.5132 C.3       2 UNK         0.1400 
     63 CB          6.6788   -9.5161  -45.9967 C.3       2 UNK        -0.1800 
     64 N           4.7936  -10.4278  -47.3306 N.am      2 UNK        -0.5000 
     65 C           4.5135  -11.6596  -46.8800 C.2       1 UNK         0.5000 
     66 O           4.7000  -12.0216  -45.7195 O.2       1 UNK        -0.5000 
     67 C          -1.0626  -23.0266  -48.3846 C.2       11 UNK         0.5000 
     68 O          -1.0738  -24.0946  -48.9948 O.2       11 UNK        -0.5000 
     69 N          -2.1744  -22.3513  -48.0583 N.am      12 UNK        -0.5000 
     70 CA         -3.5361  -22.8090  -48.3421 C.3       12 UNK         0.1400 
     71 CB         -4.5427  -21.7170  -47.9526 C.3       12 UNK        -0.1800 
     72 C          -3.8716  -24.1448  -47.6540 C.2       12 UNK         0.5000 
     73 O          -4.4371  -25.0307  -48.2939 O.2       12 UNK        -0.5000 
     74 N          -3.4778  -24.2909  -46.3808 N.am      13 UNK        -0.5000 
     75 CA         -3.6134  -25.5256  -45.6065 C.3       13 UNK         0.1400 
     76 CB         -3.2294  -25.2682  -44.1420 C.3       13 UNK        -0.1800 
     77 C          -2.7959  -26.6894  -46.1973 C.2       13 UNK         0.5000 
     78 O          -3.3309  -27.7891  -46.3429 O.2       13 UNK        -0.5000 
     79 N          -1.5390  -26.4190  -46.5799 N.am      14 UNK        -0.5000 
     80 CA         -0.6495  -27.3661  -47.2607 C.3       14 UNK         0.1400 
     81 CB          0.7581  -26.7614  -47.3711 C.3       14 UNK        -0.1800 
     82 C          -1.1699  -27.7946  -48.6473 C.2       14 UNK         0.5000 
     83 O          -0.9794  -28.9455  -49.0407 O.2       14 UNK        -0.5000 
     84 N          -1.8633  -26.8788  -49.3354 N.am      15 UNK        -0.5000 
     85 CA         -2.5658  -27.1030  -50.5992 C.3       15 UNK         0.1400 
     86 CB         -2.6726  -25.7637  -51.3490 C.3       15 UNK        -0.1800 
     87 C          -3.9510  -27.7701  -50.4277 C.2       15 UNK         0.5000 
     88 O          -4.7013  -27.8404  -51.4008 O.2       15 UNK        -0.5000 
     89 N          -4.2721  -28.2485  -49.2153 N.am      16 UNK        -0.5000 
     90 CA         -5.4932  -28.9630  -48.8286 C.3       16 UNK         0.1400 
     91 CB         -5.6237  -30.2987  -49.5914 C.3       16 UNK        -0.1800 
     92 C          -6.7570  -28.0835  -48.9087 C.2       16 UNK         0.5000 
     93 O          -7.7976  -28.5307  -49.3940 O.2       16 UNK        -0.5000 
     94 N          -6.6310  -26.8445  -48.4139 N.am      17 UNK        -0.5000 
     95 CA         -7.6541  -25.7961  -48.3334 C.3       17 UNK         0.1400 
     96 CB         -8.8820  -26.2540  -47.5180 C.3       17 UNK        -0.1800 
     97 C          -8.0237  -25.1846  -49.7000 C.2       17 UNK         0.5000 
     98 O          -9.0865  -24.5735  -49.8301 O.2       17 UNK        -0.5000 
     99 N          -7.1291  -25.3233  -50.6868 N.am      18 UNK        -0.5000 
    100 CA        -7.1884  -24.6138  -51.9630 C.3       18 UNK         0.1400 
    101 CB        -6.3136  -25.3547  -52.9850 C.3       18 UNK        -0.1800 
    102 C         -6.7229  -23.1533  -51.8032 C.2       18 UNK         0.5000 
    103 O         -6.1165  -22.7994  -50.7898 O.2       18 UNK        -0.5000 
    104 N         -6.9951  -22.3320  -52.8252 N.am      19 UNK        -0.5000 
    105 CA        -6.6637  -20.9038  -52.8554 C.3       19 UNK         0.1400 
    106 CB        -7.3719  -20.2541  -54.0547 C.3       19 UNK        -0.1800 
    107 C         -5.1531  -20.5973  -52.9009 C.2       19 UNK         0.5000 
    108 O         -4.7657  -19.4778  -52.5704 O.2       19 UNK        -0.5000 
    109 N         -4.3376  -21.5698  -53.3429 N.am      20 UNK        -0.5000 
    110 CA        -2.8683  -21.5294  -53.4299 C.3       20 UNK         0.1400 
    111 CB        -2.2495  -21.5480  -52.0171 C.3       20 UNK        -0.1800 
    112 C         -2.3144  -20.3796  -54.3040 C.2       20 UNK         0.5000 
    113 O         -1.1812  -19.9423  -54.1038 O.2       20 UNK        -0.5000 
    114 N         -3.1380  -19.9098  -55.2538 N.am      21 UNK        -0.5000 
    115 CA        -2.9295  -18.7550  -56.1346 C.3       21 UNK         0.1400 
    116 CB        -1.7284  -18.9843  -57.0763 C.3       21 UNK        -0.1800 
    117 C         -2.8567  -17.3983  -55.3952 C.2       21 UNK         0.5000 
    118 O         -2.3840  -16.4200  -55.9775 O.2       21 UNK        -0.5000 
    119 N         -3.3348  -17.3422  -54.1444 N.am      22 UNK        -0.5000 
    120 CA        -3.4449  -16.1109  -53.3506 C.3       22 UNK         0.1400 
    121 C         -4.5896  -15.1878  -53.8557 C.2       22 UNK         0.5000 
    122 N         -4.4405  -13.8767  -53.7224 N.am      22 UNK        -0.7600 
    123 O         -5.6270  -15.6454  -54.3313 O.2       22 UNK        -0.5000 
    124 C124       -3.6251  -16.4140  -51.8390 C.3       23 UNK        -0.0398 
    125 S125       -2.3236  -17.4247  -51.0398 S.3       23 UNK        -0.2404 
    126 C126       -0.7907  -16.9044  -51.8698 C.3       23 UNK        -0.0205 
    127 H127       -0.6482  -12.1194  -47.7928 H         1 UNK         0.0600 
    128 H128       -0.1899  -11.7099  -46.1359 H         1 UNK         0.0600 
    129 H129        0.0554  -13.3511  -46.7430 H         1 UNK         0.0600 
    130 H130        2.2203  -13.7179  -47.0571 H         1 UNK         0.3000 
    131 H131        3.8352  -12.1638  -48.8554 H         1 UNK         0.0600 
    132 H132        5.6580  -13.7878  -48.1189 H         1 UNK         0.0800 
    133 H133        4.5243  -14.5233  -47.0159 H         1 UNK         0.0800 
    134 H134        2.1438  -15.6034  -47.9129 H         1 UNK         0.0800 
    135 H135        3.4629  -16.7455  -47.7811 H         1 UNK         0.0800 
    136 H136        0.6998  -15.5923  -50.0049 H         1 UNK         0.1150 
    137 H137        0.4230  -19.3372  -52.0746 H         1 UNK         0.1150 
    138 H138        3.5288  -18.7032  -49.1855 H         1 UNK         0.1150 
    139 H139        2.8120  -20.7017  -51.9457 H         1 UNK         0.0800 
    140 H140        3.4629  -20.7646  -50.3260 H         1 UNK         0.0800 
    141 H141        0.0352  -20.5228  -48.9076 H         1 UNK         0.0800 
    142 H142        1.6469  -20.8236  -48.3135 H         1 UNK         0.0800 
    143 H143        1.0177  -23.2581  -47.9475 H         1 UNK         0.0600 
    144 H144        0.3473  -21.0577  -46.2962 H         1 UNK         0.3000 
    145 H145       -0.6988  -22.9581  -43.4416 H         1 UNK         0.0600 
    146 H146        1.0765  -21.5825  -42.4165 H         1 UNK         0.0600 
    147 H147        1.8016  -22.8480  -43.3954 H         1 UNK         0.0600 
    148 H148        1.7455  -21.1967  -44.0008 H         1 UNK         0.0600 
    149 H149       -0.5167  -20.1577  -43.8337 H         1 UNK         0.3000 
    150 H150       -3.8135  -19.6840  -45.2206 H         1 UNK         0.0600 
    151 H151       -4.0536  -19.7462  -42.7516 H         1 UNK         0.0600 
    152 H152       -3.8494  -18.0911  -43.3074 H         1 UNK         0.0600 
    153 H153       -2.5026  -18.9429  -42.5537 H         1 UNK         0.0600 
    154 H154       -1.7886  -17.7855  -44.7029 H         1 UNK         0.3000 
    155 H155       -0.0887  -18.0128  -47.8603 H         1 UNK         0.0600 
    156 H156       -2.0526  -16.4983  -48.1413 H         1 UNK         0.0600 
    157 H157       -0.5958  -15.5920  -47.7703 H         1 UNK         0.0600 
    158 H158       -1.8133  -15.8567  -46.5234 H         1 UNK         0.0600 
    159 H159        0.3377  -16.4705  -45.4589 H         1 UNK         0.3000 
    160 H160        2.6148  -18.7250  -43.9065 H         1 UNK         0.0600 
    161 H161        3.0581  -16.0401  -45.3180 H         1 UNK         0.0600 
    162 H162        4.0348  -17.4920  -45.4946 H         1 UNK         0.0600 
    163 H163        4.0036  -16.6411  -43.9589 H         1 UNK         0.0600 
    164 H164        1.5334  -16.1027  -43.3058 H         1 UNK         0.3000 
    165 H165       -1.2180  -17.3005  -41.3702 H         1 UNK         0.0600 
    166 H166       -0.0967  -16.1217  -39.5016 H         1 UNK         0.0600 
    167 H167        0.6920  -17.6625  -39.7978 H         1 UNK         0.0600 
    168 H168        1.4467  -16.1737  -40.3548 H         1 UNK         0.0600 
    169 H169       -0.1141  -14.7036  -41.6067 H         1 UNK         0.3000 
    170 H170       -1.3342  -13.7607  -44.7547 H         1 UNK         0.0600 
    171 H171       -3.4503  -13.5806  -43.4393 H         1 UNK         0.0600 
    172 H172       -2.5500  -12.9809  -42.0510 H         1 UNK         0.0600 
    173 H173       -2.6268  -12.0322  -43.5363 H         1 UNK         0.0600 
    174 H174       -0.2646  -12.1641  -42.6929 H         1 UNK         0.3000 
    175 H175        1.9457  -12.0630  -42.0325 H         1 UNK         0.0600 
    176 H176        3.9187  -13.5375  -43.8470 H         1 UNK         0.0600 
    177 H177        4.3800  -12.4202  -42.5644 H         1 UNK         0.0600 
    178 H178        3.5196  -13.9042  -42.1810 H         1 UNK         0.0600 
    179 H179        3.1311  -11.1991  -44.5685 H         1 UNK         0.3000 
    180 H180        0.9126   -9.0487  -45.5015 H         1 UNK         0.0600 
    181 H181        2.4581   -7.4224  -43.4225 H         1 UNK         0.0600 
    182 H182        0.7284   -7.3993  -43.7150 H         1 UNK         0.0600 
    183 H183        1.8235   -6.7762  -44.9365 H         1 UNK         0.0600 
    184 H184        2.7284   -9.4507  -46.6284 H         1 UNK         0.3000 
    185 H185        5.2630   -8.4236  -47.1752 H         1 UNK         0.0600 
    186 H186        7.0634   -8.6197  -45.5090 H         1 UNK         0.0600 
    187 H187        6.7278  -10.3280  -45.2706 H         1 UNK         0.0600 
    188 H188        7.3583   -9.7560  -46.8144 H         1 UNK         0.0600 
    189 H189        4.5721  -10.2086  -48.2925 H         1 UNK         0.3000 
    190 H190       -2.0842  -21.4506  -47.5943 H         1 UNK         0.3000 
    191 H191       -3.6163  -22.9692  -49.4181 H         1 UNK         0.0600 
    192 H192       -4.4925  -21.4780  -46.8909 H         1 UNK         0.0600 
    193 H193       -5.5635  -22.0334  -48.1704 H         1 UNK         0.0600 
    194 H194       -4.3607  -20.7994  -48.5127 H         1 UNK         0.0600 
    195 H195       -3.0677  -23.4935  -45.9013 H         1 UNK         0.3000 
    196 H196       -4.6658  -25.8156  -45.6316 H         1 UNK         0.0600 
    197 H197       -3.3525  -26.1705  -43.5418 H         1 UNK         0.0600 
    198 H198       -3.8585  -24.4951  -43.7005 H         1 UNK         0.0600 
    199 H199       -2.1919  -24.9488  -44.0457 H         1 UNK         0.0600 
    200 H200       -1.1557  -25.4967  -46.3884 H         1 UNK         0.3000 
    201 H201       -0.5858  -28.2634  -46.6419 H         1 UNK         0.0600 
    202 H202        1.1644  -26.5268  -46.3871 H         1 UNK         0.0600 
    203 H203        0.7569  -25.8437  -47.9595 H         1 UNK         0.0600 
    204 H204        1.4468  -27.4583  -47.8501 H         1 UNK         0.0600 
    205 H205       -1.9072  -25.9344  -48.9650 H         1 UNK         0.3000 
    206 H206       -1.9636  -27.7775  -51.2109 H         1 UNK         0.0600 
    207 H207       -1.7003  -25.2779  -51.4334 H         1 UNK         0.0600 
    208 H208       -3.0409  -25.9135  -52.3637 H         1 UNK         0.0600 
    209 H209       -3.3492  -25.0720  -50.8461 H         1 UNK         0.0600 
    210 H210       -3.6131  -28.0978  -48.4610 H         1 UNK         0.3000 
    211 H211       -5.3707  -29.2086  -47.7728 H         1 UNK         0.0600 
    212 H212       -5.8140  -30.1454  -50.6539 H         1 UNK         0.0600 
    213 H213       -6.4481  -30.8933  -49.1964 H         1 UNK         0.0600 
    214 H214       -4.7180  -30.8974  -49.4951 H         1 UNK         0.0600 
    215 H215       -5.7020  -26.5345  -48.1430 H         1 UNK         0.3000 
    216 H216       -7.1885  -24.9837  -47.7738 H         1 UNK         0.0600 
    217 H217       -9.5420  -25.4130  -47.3025 H         1 UNK         0.0600 
    218 H218       -8.5835  -26.6828  -46.5614 H         1 UNK         0.0600 
    219 H219       -9.4722  -26.9986  -48.0524 H         1 UNK         0.0600 
    220 H220       -6.2709  -25.8150  -50.4827 H         1 UNK         0.3000 
    221 H221       -8.2199  -24.6132  -52.3216 H         1 UNK         0.0600 
    222 H222       -5.2620  -25.3269  -52.7039 H         1 UNK         0.0600 
    223 H223       -6.6083  -26.4008  -53.0722 H         1 UNK         0.0600 
    224 H224       -6.4002  -24.9110  -53.9772 H         1 UNK         0.0600 
    225 H225       -7.4911  -22.6942  -53.6270 H         1 UNK         0.3000 
    226 H226       -7.0548  -20.4497  -51.9424 H         1 UNK         0.0600 
    227 H227       -8.4532  -20.3752  -53.9877 H         1 UNK         0.0600 
    228 H228       -7.1698  -19.1826  -54.0960 H         1 UNK         0.0600 
    229 H229       -7.0424  -20.6866  -55.0002 H         1 UNK         0.0600 
    230 H230       -4.7667  -22.4417  -53.6163 H         1 UNK         0.3000 
    231 H231       -2.5672  -22.4511  -53.9294 H         1 UNK         0.0600 
    232 H232       -2.5968  -22.4099  -51.4490 H         1 UNK         0.0600 
    233 H233       -2.4960  -20.6485  -51.4519 H         1 UNK         0.0600 
    234 H234       -1.1630  -21.6154  -52.0653 H         1 UNK         0.0600 
    235 H235       -4.0456  -20.3465  -55.3249 H         1 UNK         0.3000 
    236 H236       -3.8221  -18.6979  -56.7589 H         1 UNK         0.0600 
    237 H237       -1.6825  -18.2140  -57.8468 H         1 UNK         0.0600 
    238 H238       -0.7803  -18.9615  -56.5386 H         1 UNK         0.0600 
    239 H239       -1.8033  -19.9450  -57.5856 H         1 UNK         0.0600 
    240 H240       -3.7244  -18.1762  -53.7170 H         1 UNK         0.3000 
    241 H241       -2.5165  -15.5534  -53.4802 H         1 UNK         0.0600 
    242 H242       -5.1812  -13.2671  -54.0336 H         1 UNK         0.3800 
    243 H243       -3.6028  -13.4731  -53.3321 H         1 UNK         0.3800 
    244 H244       -3.6842  -15.4791  -51.2792 H         1 UNK         0.0800 
    245 H245       -4.5781  -16.9186  -51.6710 H         1 UNK         0.0800 
    246 H246       -0.7582  -15.8160  -51.9338 H         1 UNK         0.0800 
    247 H247       -0.7781  -17.2845  -52.8924 H         1 UNK         0.0800 
@<TRIPOS>BOND
     1    1    2 1    
     2    1  127 1    
     3    1  128 1    
     4    1  129 1    
     5    2    3 2    
     6    2    4 am   BACKBONE|DICT|INTERRES
     7    4    5 1    
     8    4  130 1    
     9    5    6 1    
    10    5   65 1    
    11    5  131 1    
    12    6    7 1    
    13    6  132 1    
    14    6  133 1    
    15    7    8 1    
    16    8    9 1    
    17    8  134 1    
    18    8  135 1    
    19    9   10 ar   
    20    9   14 ar   
    21   10   11 ar   
    22   10  136 1    
    23   11   12 ar   
    24   11  126 1    
    25   12   13 ar   
    26   12  137 1    
    27   13   14 ar   
    28   13   15 1    
    29   14  138 1    
    30   15   16 1    
    31   15  139 1    
    32   15  140 1    
    33   16   17 1    
    34   17   18 1    
    35   17  141 1    
    36   17  142 1    
    37   18   19 1    
    38   18   67 1    
    39   18  143 1    
    40   19   20 am   BACKBONE|DICT|INTERRES
    41   19  144 1    
    42   20   21 2    
    43   20   22 1    
    44   22   23 1    
    45   22   24 1    
    46   22  145 1    
    47   23  146 1    
    48   23  147 1    
    49   23  148 1    
    50   24   25 am   BACKBONE|DICT|INTERRES
    51   24  149 1    
    52   25   26 2    
    53   25   27 1    
    54   27   28 1    
    55   27   29 1    
    56   27  150 1    
    57   28  151 1    
    58   28  152 1    
    59   28  153 1    
    60   29   30 am   BACKBONE|DICT|INTERRES
    61   29  154 1    
    62   30   31 2    
    63   30   32 1    
    64   32   33 1    
    65   32   34 1    
    66   32  155 1    
    67   33  156 1    
    68   33  157 1    
    69   33  158 1    
    70   34   35 am   BACKBONE|DICT|INTERRES
    71   34  159 1    
    72   35   36 2    
    73   35   37 1    
    74   37   38 1    
    75   37   39 1    
    76   37  160 1    
    77   38  161 1    
    78   38  162 1    
    79   38  163 1    
    80   39   40 am   BACKBONE|DICT|INTERRES
    81   39  164 1    
    82   40   41 2    
    83   40   42 1    
    84   42   43 1    
    85   42   44 1    
    86   42  165 1    
    87   43  166 1    
    88   43  167 1    
    89   43  168 1    
    90   44   45 am   BACKBONE|DICT|INTERRES
    91   44  169 1    
    92   45   46 2    
    93   45   47 1    
    94   47   48 1    
    95   47   49 1    
    96   47  170 1    
    97   48  171 1    
    98   48  172 1    
    99   48  173 1    
   100   49   50 am   BACKBONE|DICT|INTERRES
   101   49  174 1    
   102   50   51 2    
   103   50   52 1    
   104   52   53 1    
   105   52   54 1    
   106   52  175 1    
   107   53  176 1    
   108   53  177 1    
   109   53  178 1    
   110   54   55 am   BACKBONE|DICT|INTERRES
   111   54  179 1    
   112   55   56 2    
   113   55   57 1    
   114   57   58 1    
   115   57   59 1    
   116   57  180 1    
   117   58  181 1    
   118   58  182 1    
   119   58  183 1    
   120   59   60 am   BACKBONE|DICT|INTERRES
   121   59  184 1    
   122   60   61 2    
   123   60   62 1    
   124   62   63 1    
   125   62   64 1    
   126   62  185 1    
   127   63  186 1    
   128   63  187 1    
   129   63  188 1    
   130   64   65 am   BACKBONE|DICT|INTERRES
   131   64  189 1    
   132   65   66 2    
   133   67   68 2    
   134   67   69 am   BACKBONE|DICT|INTERRES
   135   69   70 1    
   136   69  190 1    
   137   70   71 1    
   138   70   72 1    
   139   70  191 1    
   140   71  192 1    
   141   71  193 1    
   142   71  194 1    
   143   72   73 2    
   144   72   74 am   BACKBONE|DICT|INTERRES
   145   74   75 1    
   146   74  195 1    
   147   75   76 1    
   148   75   77 1    
   149   75  196 1    
   150   76  197 1    
   151   76  198 1    
   152   76  199 1    
   153   77   78 2    
   154   77   79 am   BACKBONE|DICT|INTERRES
   155   79   80 1    
   156   79  200 1    
   157   80   81 1    
   158   80   82 1    
   159   80  201 1    
   160   81  202 1    
   161   81  203 1    
   162   81  204 1    
   163   82   83 2    
   164   82   84 am   BACKBONE|DICT|INTERRES
   165   84   85 1    
   166   84  205 1    
   167   85   86 1    
   168   85   87 1    
   169   85  206 1    
   170   86  207 1    
   171   86  208 1    
   172   86  209 1    
   173   87   88 2    
   174   87   89 am   BACKBONE|DICT|INTERRES
   175   89   90 1    
   176   89  210 1    
   177   90   91 1    
   178   90   92 1    
   179   90  211 1    
   180   91  212 1    
   181   91  213 1    
   182   91  214 1    
   183   92   93 2    
   184   92   94 am   BACKBONE|DICT|INTERRES
   185   94   95 1    
   186   94  215 1    
   187   95   96 1    
   188   95   97 1    
   189   95  216 1    
   190   96  217 1    
   191   96  218 1    
   192   96  219 1    
   193   97   98 2    
   194   97   99 am   BACKBONE|DICT|INTERRES
   195   99  100 1    
   196   99  220 1    
   197  100  101 1    
   198  100  102 1    
   199  100  221 1    
   200  101  222 1    
   201  101  223 1    
   202  101  224 1    
   203  102  103 2    
   204  102  104 am   BACKBONE|DICT|INTERRES
   205  104  105 1    
   206  104  225 1    
   207  105  106 1    
   208  105  107 1    
   209  105  226 1    
   210  106  227 1    
   211  106  228 1    
   212  106  229 1    
   213  107  108 2    
   214  107  109 am   BACKBONE|DICT|INTERRES
   215  109  110 1    
   216  109  230 1    
   217  110  111 1    
   218  110  112 1    
   219  110  231 1    
   220  111  232 1    
   221  111  233 1    
   222  111  234 1    
   223  112  113 2    
   224  112  114 am   BACKBONE|DICT|INTERRES
   225  114  115 1    
   226  114  235 1    
   227  115  116 1    
   228  115  117 1    
   229  115  236 1    
   230  116  237 1    
   231  116  238 1    
   232  116  239 1    
   233  117  118 2    
   234  117  119 am   BACKBONE|DICT|INTERRES
   235  119  120 1    
   236  119  240 1    
   237  120  121 1    
   238  120  124 1    
   239  120  241 1    
   240  121  122 am   BACKBONE|DICT|INTERRES
   241  121  123 2    
   242  122  242 1    
   243  122  243 1    
   244  124  125 1    
   245  124  244 1    
   246  124  245 1    
   247  125  126 1    
   248  126  246 1    
   249  126  247 1    
@<TRIPOS>SUBSTRUCTURE
     1 UNK         1 GROUP             0       ****    0 ROOT    
