@<TRIPOS>MOLECULE
3R540
247   249    1
SMALL
USER_CHARGES


@<TRIPOS>ATOM
      1 CA          6.8092   -9.0095  -49.3625 C.3       0 UNK        -0.1800 
      2 C           6.4267  -10.3715  -48.7998 C.2       0 UNK         0.5000 
      3 O           6.9132  -10.7529  -47.7348 O.2       0 UNK        -0.5000 
      4 N           5.5656  -11.1075  -49.5132 N.am      1 UNK        -0.5000 
      5 CA          5.0304  -12.4067  -49.0983 C.3       1 UNK         0.1400 
      6 C6          4.3792  -13.1450  -50.2959 C.3       23 UNK        -0.0398 
      7 S7          4.0327  -14.9026  -49.9479 S.3       23 UNK        -0.2404 
      8 C8          3.3647  -15.4666  -51.5449 C.3       23 UNK        -0.0205 
      9 C9          2.2568  -16.4879  -51.3374 C.ar      23 UNK        -0.0193 
     10 C10         0.9276  -16.1548  -51.6148 C.ar      23 UNK        -0.1150 
     11 C11        -0.1008  -17.0708  -51.3739 C.ar      23 UNK        -0.0193 
     12 C12         0.2126  -18.3362  -50.8665 C.ar      23 UNK        -0.1150 
     13 C13         1.5413  -18.6906  -50.6056 C.ar      23 UNK        -0.0193 
     14 C14         2.5570  -17.7614  -50.8462 C.ar      23 UNK        -0.1150 
     15 C15         1.8951  -20.0790  -50.0860 C.3       23 UNK        -0.0205 
     16 S16         2.2491  -20.0903  -48.2972 S.3       23 UNK        -0.2404 
     17 C17         0.5733  -19.9820  -47.5944 C.3       23 UNK        -0.0398 
     18 CA          0.0466  -21.3494  -47.0992 C.3       11 UNK         0.1400 
     19 N           0.7808  -21.8471  -45.9307 N.am      11 UNK        -0.5000 
     20 C           0.6553  -23.0839  -45.4276 C.2       10 UNK         0.5000 
     21 O          -0.0906  -23.9412  -45.8985 O.2       10 UNK        -0.5000 
     22 CA          1.4472  -23.3891  -44.1451 C.3       10 UNK         0.1400 
     23 CB          2.9250  -23.6561  -44.4659 C.3       10 UNK        -0.1800 
     24 N           1.3492  -22.3158  -43.1551 N.am      10 UNK        -0.5000 
     25 C           0.2189  -21.8989  -42.5718 C.2       9 UNK         0.5000 
     26 O          -0.8873  -22.3786  -42.8191 O.2       9 UNK        -0.5000 
     27 CA          0.3251  -20.7208  -41.5860 C.3       9 UNK         0.1400 
     28 CB          0.8754  -21.1703  -40.2204 C.3       9 UNK        -0.1800 
     29 N           1.0587  -19.5673  -42.1197 N.am      9 UNK        -0.5000 
     30 C           2.3611  -19.4522  -42.4247 C.2       8 UNK         0.5000 
     31 O           3.1909  -20.3491  -42.2723 O.2       8 UNK        -0.5000 
     32 CA          2.7970  -18.1146  -43.0401 C.3       8 UNK         0.1400 
     33 CB          2.4300  -18.0974  -44.5302 C.3       8 UNK        -0.1800 
     34 N           2.1434  -16.9958  -42.3606 N.am      8 UNK        -0.5000 
     35 C           2.6950  -16.2936  -41.3603 C.2       7 UNK         0.5000 
     36 O           3.8606  -16.4308  -40.9872 O.2       7 UNK        -0.5000 
     37 CA          1.7869  -15.2810  -40.6315 C.3       7 UNK         0.1400 
     38 CB          1.8405  -13.9076  -41.3185 C.3       7 UNK        -0.1800 
     39 N           0.3927  -15.7172  -40.5508 N.am      7 UNK        -0.5000 
     40 C          -0.0429  -16.7961  -39.8843 C.2       6 UNK         0.5000 
     41 O           0.6719  -17.4793  -39.1514 O.2       6 UNK        -0.5000 
     42 CA         -1.5182  -17.2015  -40.0910 C.3       6 UNK         0.1400 
     43 CB         -2.3567  -16.8200  -38.8617 C.3       6 UNK        -0.1800 
     44 N          -2.1511  -16.6358  -41.2899 N.am      6 UNK        -0.5000 
     45 C          -1.7570  -16.8402  -42.5535 C.2       5 UNK         0.5000 
     46 O          -0.7687  -17.5160  -42.8593 O.2       5 UNK        -0.5000 
     47 CA         -2.5834  -16.1393  -43.6417 C.3       5 UNK         0.1400 
     48 CB         -2.3572  -14.6184  -43.6081 C.3       5 UNK        -0.1800 
     49 N          -2.1743  -16.6406  -44.9458 N.am      5 UNK        -0.5000 
     50 C          -2.9742  -16.9927  -45.9541 C.2       4 UNK         0.5000 
     51 O          -4.2018  -16.8979  -45.9265 O.2       4 UNK        -0.5000 
     52 CA         -2.2540  -17.5280  -47.2067 C.3       4 UNK         0.1400 
     53 CB         -3.2072  -18.1156  -48.2595 C.3       4 UNK        -0.1800 
     54 N          -1.4231  -16.4979  -47.8315 N.am      4 UNK        -0.5000 
     55 C          -0.2228  -16.1044  -47.3863 C.2       3 UNK         0.5000 
     56 O           0.3322  -16.6266  -46.4190 O.2       3 UNK        -0.5000 
     57 CA          0.4694  -14.9683  -48.1652 C.3       3 UNK         0.1400 
     58 CB         -0.4956  -13.8327  -48.5678 C.3       3 UNK        -0.1800 
     59 N           1.6525  -14.4297  -47.4904 N.am      3 UNK        -0.5000 
     60 C           1.7167  -13.7714  -46.3229 C.2       2 UNK         0.5000 
     61 O           0.7416  -13.5060  -45.6191 O.2       2 UNK        -0.5000 
     62 CA          3.1192  -13.3077  -45.8726 C.3       2 UNK         0.1400 
     63 CB          3.7005  -14.2702  -44.8250 C.3       2 UNK        -0.1800 
     64 N           4.0728  -13.1896  -46.9801 N.am      2 UNK        -0.5000 
     65 C           4.0377  -12.2403  -47.9250 C.2       1 UNK         0.5000 
     66 O           3.2452  -11.2948  -47.9190 O.2       1 UNK        -0.5000 
     67 C          -1.4711  -21.2707  -46.8424 C.2       11 UNK         0.5000 
     68 O          -2.2440  -21.4987  -47.7720 O.2       11 UNK        -0.5000 
     69 N          -1.8731  -20.9601  -45.6012 N.am      12 UNK        -0.5000 
     70 CA         -3.2740  -20.9319  -45.1813 C.3       12 UNK         0.1400 
     71 CB         -3.4068  -20.1937  -43.8404 C.3       12 UNK        -0.1800 
     72 C          -3.8626  -22.3490  -45.0953 C.2       12 UNK         0.5000 
     73 O          -4.9366  -22.5930  -45.6443 O.2       12 UNK        -0.5000 
     74 N          -3.1254  -23.2627  -44.4479 N.am      13 UNK        -0.5000 
     75 CA         -3.4870  -24.6717  -44.2822 C.3       13 UNK         0.1400 
     76 CB         -2.4746  -25.3461  -43.3439 C.3       13 UNK        -0.1800 
     77 C          -3.5830  -25.4339  -45.6168 C.2       13 UNK         0.5000 
     78 O          -4.5069  -26.2269  -45.8002 O.2       13 UNK        -0.5000 
     79 N          -2.6434  -25.1600  -46.5310 N.am      14 UNK        -0.5000 
     80 CA         -2.5937  -25.7418  -47.8726 C.3       14 UNK         0.1400 
     81 CB         -1.1425  -25.6867  -48.3762 C.3       14 UNK        -0.1800 
     82 C          -3.5317  -25.0487  -48.8806 C.2       14 UNK         0.5000 
     83 O          -3.6491  -25.5334  -50.0064 O.2       14 UNK        -0.5000 
     84 N          -4.1356  -23.9125  -48.4980 N.am      15 UNK        -0.5000 
     85 CA         -4.9792  -23.0362  -49.3207 C.3       15 UNK         0.1400 
     86 CB         -6.3277  -23.7144  -49.6359 C.3       15 UNK        -0.1800 
     87 C          -4.2469  -22.5474  -50.5873 C.2       15 UNK         0.5000 
     88 O          -4.7875  -22.6293  -51.6926 O.2       15 UNK        -0.5000 
     89 N          -3.0112  -22.0675  -50.3923 N.am      16 UNK        -0.5000 
     90 CA         -2.0439  -21.6557  -51.4156 C.3       16 UNK         0.1400 
     91 CB         -2.5448  -20.4165  -52.1831 C.3       16 UNK        -0.1800 
     92 C          -1.6103  -22.8112  -52.3436 C.2       16 UNK         0.5000 
     93 O          -1.3605  -22.5894  -53.5276 O.2       16 UNK        -0.5000 
     94 N          -1.5304  -24.0239  -51.7749 N.am      17 UNK        -0.5000 
     95 CA         -1.2839  -25.3051  -52.4464 C.3       17 UNK         0.1400 
     96 CB          0.1165  -25.3474  -53.0940 C.3       17 UNK        -0.1800 
     97 C          -2.4303  -25.6544  -53.4156 C.2       17 UNK         0.5000 
     98 O          -2.1950  -25.9180  -54.5963 O.2       17 UNK        -0.5000 
     99 N          -3.6565  -25.6295  -52.8721 N.am      18 UNK        -0.5000 
    100 CA        -4.9386  -25.8585  -53.5431 C.3       18 UNK         0.1400 
    101 CB        -5.0700  -27.3336  -53.9759 C.3       18 UNK        -0.1800 
    102 C         -5.1956  -24.8596  -54.6913 C.2       18 UNK         0.5000 
    103 O         -5.5742  -25.2613  -55.7936 O.2       18 UNK        -0.5000 
    104 N         -4.9875  -23.5699  -54.4017 N.am      19 UNK        -0.5000 
    105 CA        -5.1863  -22.4508  -55.3238 C.3       19 UNK         0.1400 
    106 CB        -3.8228  -21.8924  -55.7662 C.3       19 UNK        -0.1800 
    107 C         -6.0919  -21.3847  -54.6827 C.2       19 UNK         0.5000 
    108 O         -5.8866  -20.1881  -54.8948 O.2       19 UNK        -0.5000 
    109 N         -7.0758  -21.8473  -53.8947 N.am      20 UNK        -0.5000 
    110 CA        -8.1457  -21.0766  -53.2495 C.3       20 UNK         0.1400 
    111 CB        -9.1599  -20.5995  -54.3098 C.3       20 UNK        -0.1800 
    112 C         -7.6373  -19.9243  -52.3577 C.2       20 UNK         0.5000 
    113 O         -8.2503  -18.8552  -52.3251 O.2       20 UNK        -0.5000 
    114 N         -6.4993  -20.1474  -51.6813 N.am      21 UNK        -0.5000 
    115 CA        -5.7957  -19.1870  -50.8189 C.3       21 UNK         0.1400 
    116 CB        -6.6234  -18.9027  -49.5473 C.3       21 UNK        -0.1800 
    117 C         -5.3615  -17.9008  -51.5616 C.2       21 UNK         0.5000 
    118 O         -5.2946  -16.8329  -50.9525 O.2       21 UNK        -0.5000 
    119 N         -5.0950  -18.0310  -52.8693 N.am      22 UNK        -0.5000 
    120 CA        -4.8337  -16.9434  -53.8278 C.3       22 UNK         0.1400 
    121 C         -6.0870  -16.0757  -54.1678 C.2       22 UNK         0.5000 
    122 N         -7.3010  -16.4603  -53.7889 N.am      22 UNK        -0.7600 
    123 O         -5.9665  -15.0419  -54.8200 O.2       22 UNK        -0.5000 
    124 C124       -3.5907  -16.0702  -53.4838 C.3       23 UNK        -0.0398 
    125 S125       -2.0305  -17.0133  -53.3595 S.3       23 UNK        -0.2404 
    126 C126       -1.5458  -16.6726  -51.6399 C.3       23 UNK        -0.0205 
    127 H127        6.3130   -8.8089  -50.3123 H         1 UNK         0.0600 
    128 H128        7.8859   -8.9591  -49.5243 H         1 UNK         0.0600 
    129 H129        6.5314   -8.2227  -48.6611 H         1 UNK         0.0600 
    130 H130        5.1780  -10.7236  -50.3631 H         1 UNK         0.3000 
    131 H131        5.8758  -13.0062  -48.7526 H         1 UNK         0.0600 
    132 H132        3.4559  -12.6500  -50.6035 H         1 UNK         0.0800 
    133 H133        5.0473  -13.1096  -51.1579 H         1 UNK         0.0800 
    134 H134        2.9910  -14.6152  -52.1158 H         1 UNK         0.0800 
    135 H135        4.1675  -15.9073  -52.1375 H         1 UNK         0.0800 
    136 H136        0.6879  -15.1724  -51.9971 H         1 UNK         0.1150 
    137 H137       -0.5786  -19.0440  -50.6761 H         1 UNK         0.1150 
    138 H138        3.5842  -18.0239  -50.6342 H         1 UNK         0.1150 
    139 H139        1.1015  -20.7926  -50.3078 H         1 UNK         0.0800 
    140 H140        2.7779  -20.4411  -50.6151 H         1 UNK         0.0800 
    141 H141       -0.0914  -19.5538  -48.3451 H         1 UNK         0.0800 
    142 H142        0.5999  -19.2651  -46.7738 H         1 UNK         0.0800 
    143 H143        0.1841  -22.0747  -47.9046 H         1 UNK         0.0600 
    144 H144        1.4272  -21.2087  -45.4922 H         1 UNK         0.3000 
    145 H145        1.0240  -24.2924  -43.7010 H         1 UNK         0.0600 
    146 H146        3.0274  -24.4588  -45.1974 H         1 UNK         0.0600 
    147 H147        3.4163  -22.7724  -44.8752 H         1 UNK         0.0600 
    148 H148        3.4723  -23.9590  -43.5731 H         1 UNK         0.0600 
    149 H149        2.2084  -21.8370  -42.8974 H         1 UNK         0.3000 
    150 H150       -0.6927  -20.3638  -41.4217 H         1 UNK         0.0600 
    151 H151        0.8910  -20.3418  -39.5122 H         1 UNK         0.0600 
    152 H152        1.8882  -21.5665  -40.2945 H         1 UNK         0.0600 
    153 H153        0.2510  -21.9543  -39.7904 H         1 UNK         0.0600 
    154 H154        0.4623  -18.7774  -42.3557 H         1 UNK         0.3000 
    155 H155        3.8824  -18.0306  -42.9555 H         1 UNK         0.0600 
    156 H156        1.3620  -18.2572  -44.6778 H         1 UNK         0.0600 
    157 H157        2.9575  -18.8814  -45.0747 H         1 UNK         0.0600 
    158 H158        2.6893  -17.1479  -44.9954 H         1 UNK         0.0600 
    159 H159        1.1666  -16.8447  -42.5823 H         1 UNK         0.3000 
    160 H160        2.1664  -15.1707  -39.6136 H         1 UNK         0.0600 
    161 H161        2.8697  -13.5632  -41.4287 H         1 UNK         0.0600 
    162 H162        1.3084  -13.1560  -40.7352 H         1 UNK         0.0600 
    163 H163        1.3931  -13.9361  -42.3128 H         1 UNK         0.0600 
    164 H164       -0.2737  -15.2065  -41.1097 H         1 UNK         0.3000 
    165 H165       -1.5378  -18.2884  -40.1921 H         1 UNK         0.0600 
    166 H166       -3.3789  -17.1884  -38.9505 H         1 UNK         0.0600 
    167 H167       -1.9370  -17.2507  -37.9515 H         1 UNK         0.0600 
    168 H168       -2.3986  -15.7388  -38.7240 H         1 UNK         0.0600 
    169 H169       -2.9630  -16.0580  -41.1251 H         1 UNK         0.3000 
    170 H170       -3.6375  -16.3607  -43.4623 H         1 UNK         0.0600 
    171 H171       -2.9268  -14.1208  -44.3933 H         1 UNK         0.0600 
    172 H172       -2.6742  -14.1876  -42.6579 H         1 UNK         0.0600 
    173 H173       -1.3055  -14.3658  -43.7523 H         1 UNK         0.0600 
    174 H174       -1.1720  -16.7627  -45.0640 H         1 UNK         0.3000 
    175 H175       -1.6134  -18.3386  -46.8635 H         1 UNK         0.0600 
    176 H176       -3.8336  -17.3422  -48.7036 H         1 UNK         0.0600 
    177 H177       -2.6547  -18.6081  -49.0592 H         1 UNK         0.0600 
    178 H178       -3.8654  -18.8656  -47.8205 H         1 UNK         0.0600 
    179 H179       -1.8396  -15.9996  -48.6032 H         1 UNK         0.3000 
    180 H180        0.8497  -15.4243  -49.0749 H         1 UNK         0.0600 
    181 H181        0.0396  -13.0226  -49.0637 H         1 UNK         0.0600 
    182 H182       -1.0088  -13.4123  -47.7023 H         1 UNK         0.0600 
    183 H183       -1.2569  -14.1816  -49.2655 H         1 UNK         0.0600 
    184 H184        2.5267  -14.6116  -47.9631 H         1 UNK         0.3000 
    185 H185        3.0025  -12.3264  -45.4077 H         1 UNK         0.0600 
    186 H186        3.9711  -15.2286  -45.2676 H         1 UNK         0.0600 
    187 H187        4.5942  -13.8530  -44.3610 H         1 UNK         0.0600 
    188 H188        2.9838  -14.4691  -44.0286 H         1 UNK         0.0600 
    189 H189        4.7584  -13.9273  -47.0578 H         1 UNK         0.3000 
    190 H190       -1.1792  -20.8381  -44.8790 H         1 UNK         0.3000 
    191 H191       -3.8457  -20.3758  -45.9269 H         1 UNK         0.0600 
    192 H192       -2.9017  -20.7163  -43.0288 H         1 UNK         0.0600 
    193 H193       -4.4550  -20.0901  -43.5580 H         1 UNK         0.0600 
    194 H194       -2.9875  -19.1920  -43.9001 H         1 UNK         0.0600 
    195 H195       -2.2627  -22.9652  -43.9993 H         1 UNK         0.3000 
    196 H196       -4.4696  -24.7088  -43.8076 H         1 UNK         0.0600 
    197 H197       -2.7268  -26.3951  -43.1838 H         1 UNK         0.0600 
    198 H198       -2.4597  -24.8617  -42.3674 H         1 UNK         0.0600 
    199 H199       -1.4630  -25.3080  -43.7499 H         1 UNK         0.0600 
    200 H200       -1.8740  -24.5456  -46.2763 H         1 UNK         0.3000 
    201 H201       -2.8928  -26.7903  -47.8151 H         1 UNK         0.0600 
    202 H202       -0.4633  -26.1685  -47.6725 H         1 UNK         0.0600 
    203 H203       -0.8028  -24.6597  -48.5171 H         1 UNK         0.0600 
    204 H204       -1.0359  -26.2064  -49.3280 H         1 UNK         0.0600 
    205 H205       -3.9679  -23.5876  -47.5549 H         1 UNK         0.3000 
    206 H206       -5.1839  -22.1488  -48.7197 H         1 UNK         0.0600 
    207 H207       -6.9984  -23.0283  -50.1546 H         1 UNK         0.0600 
    208 H208       -6.2031  -24.5926  -50.2703 H         1 UNK         0.0600 
    209 H209       -6.8306  -24.0302  -48.7219 H         1 UNK         0.0600 
    210 H210       -2.6902  -21.9889  -49.4273 H         1 UNK         0.3000 
    211 H211       -1.1446  -21.3637  -50.8743 H         1 UNK         0.0600 
    212 H212       -3.4560  -20.6194  -52.7439 H         1 UNK         0.0600 
    213 H213       -1.7964  -20.0651  -52.8942 H         1 UNK         0.0600 
    214 H214       -2.7473  -19.5914  -51.5033 H         1 UNK         0.0600 
    215 H215       -1.8015  -24.0943  -50.8056 H         1 UNK         0.3000 
    216 H216       -1.3019  -26.0711  -51.6708 H         1 UNK         0.0600 
    217 H217        0.3346  -26.3447  -53.4773 H         1 UNK         0.0600 
    218 H218        0.8927  -25.1010  -52.3697 H         1 UNK         0.0600 
    219 H219        0.2048  -24.6537  -53.9302 H         1 UNK         0.0600 
    220 H220       -3.7209  -25.4329  -51.8754 H         1 UNK         0.3000 
    221 H221       -5.7094  -25.6666  -52.7952 H         1 UNK         0.0600 
    222 H222       -4.3509  -27.5951  -54.7527 H         1 UNK         0.0600 
    223 H223       -4.9121  -28.0063  -53.1329 H         1 UNK         0.0600 
    224 H224       -6.0660  -27.5375  -54.3704 H         1 UNK         0.0600 
    225 H225       -4.7247  -23.3160  -53.4514 H         1 UNK         0.3000 
    226 H226       -5.7127  -22.7887  -56.2183 H         1 UNK         0.0600 
    227 H227       -3.1867  -22.6791  -56.1723 H         1 UNK         0.0600 
    228 H228       -3.9426  -21.1362  -56.5426 H         1 UNK         0.0600 
    229 H229       -3.2904  -21.4278  -54.9379 H         1 UNK         0.0600 
    230 H230       -7.1172  -22.8467  -53.7551 H         1 UNK         0.3000 
    231 H231       -8.6635  -21.7669  -52.5822 H         1 UNK         0.0600 
    232 H232       -8.7194  -19.8663  -54.9865 H         1 UNK         0.0600 
    233 H233       -9.5245  -21.4329  -54.9101 H         1 UNK         0.0600 
    234 H234      -10.0290  -20.1346  -53.8428 H         1 UNK         0.0600 
    235 H235       -6.0398  -21.0425  -51.8170 H         1 UNK         0.3000 
    236 H236       -4.8746  -19.6709  -50.4979 H         1 UNK         0.0600 
    237 H237       -7.5538  -18.3828  -49.7766 H         1 UNK         0.0600 
    238 H238       -6.8752  -19.8271  -49.0276 H         1 UNK         0.0600 
    239 H239       -6.0732  -18.2782  -48.8441 H         1 UNK         0.0600 
    240 H240       -5.2321  -18.9381  -53.2998 H         1 UNK         0.3000 
    241 H241       -4.6070  -17.4546  -54.7639 H         1 UNK         0.0600 
    242 H242       -8.0933  -15.8876  -54.0319 H         1 UNK         0.3800 
    243 H243       -7.4495  -17.3118  -53.2569 H         1 UNK         0.3800 
    244 H244       -3.4311  -15.3230  -54.2627 H         1 UNK         0.0800 
    245 H245       -3.7633  -15.5023  -52.5694 H         1 UNK         0.0800 
    246 H246       -2.2212  -17.1996  -50.9663 H         1 UNK         0.0800 
    247 H247       -1.6709  -15.6091  -51.4314 H         1 UNK         0.0800 
@<TRIPOS>BOND
     1    1    2 1    
     2    1  127 1    
     3    1  128 1    
     4    1  129 1    
     5    2    3 2    
     6    2    4 am   BACKBONE|DICT|INTERRES
     7    4    5 1    
     8    4  130 1    
     9    5    6 1    
    10    5   65 1    
    11    5  131 1    
    12    6    7 1    
    13    6  132 1    
    14    6  133 1    
    15    7    8 1    
    16    8    9 1    
    17    8  134 1    
    18    8  135 1    
    19    9   10 ar   
    20    9   14 ar   
    21   10   11 ar   
    22   10  136 1    
    23   11   12 ar   
    24   11  126 1    
    25   12   13 ar   
    26   12  137 1    
    27   13   14 ar   
    28   13   15 1    
    29   14  138 1    
    30   15   16 1    
    31   15  139 1    
    32   15  140 1    
    33   16   17 1    
    34   17   18 1    
    35   17  141 1    
    36   17  142 1    
    37   18   19 1    
    38   18   67 1    
    39   18  143 1    
    40   19   20 am   BACKBONE|DICT|INTERRES
    41   19  144 1    
    42   20   21 2    
    43   20   22 1    
    44   22   23 1    
    45   22   24 1    
    46   22  145 1    
    47   23  146 1    
    48   23  147 1    
    49   23  148 1    
    50   24   25 am   BACKBONE|DICT|INTERRES
    51   24  149 1    
    52   25   26 2    
    53   25   27 1    
    54   27   28 1    
    55   27   29 1    
    56   27  150 1    
    57   28  151 1    
    58   28  152 1    
    59   28  153 1    
    60   29   30 am   BACKBONE|DICT|INTERRES
    61   29  154 1    
    62   30   31 2    
    63   30   32 1    
    64   32   33 1    
    65   32   34 1    
    66   32  155 1    
    67   33  156 1    
    68   33  157 1    
    69   33  158 1    
    70   34   35 am   BACKBONE|DICT|INTERRES
    71   34  159 1    
    72   35   36 2    
    73   35   37 1    
    74   37   38 1    
    75   37   39 1    
    76   37  160 1    
    77   38  161 1    
    78   38  162 1    
    79   38  163 1    
    80   39   40 am   BACKBONE|DICT|INTERRES
    81   39  164 1    
    82   40   41 2    
    83   40   42 1    
    84   42   43 1    
    85   42   44 1    
    86   42  165 1    
    87   43  166 1    
    88   43  167 1    
    89   43  168 1    
    90   44   45 am   BACKBONE|DICT|INTERRES
    91   44  169 1    
    92   45   46 2    
    93   45   47 1    
    94   47   48 1    
    95   47   49 1    
    96   47  170 1    
    97   48  171 1    
    98   48  172 1    
    99   48  173 1    
   100   49   50 am   BACKBONE|DICT|INTERRES
   101   49  174 1    
   102   50   51 2    
   103   50   52 1    
   104   52   53 1    
   105   52   54 1    
   106   52  175 1    
   107   53  176 1    
   108   53  177 1    
   109   53  178 1    
   110   54   55 am   BACKBONE|DICT|INTERRES
   111   54  179 1    
   112   55   56 2    
   113   55   57 1    
   114   57   58 1    
   115   57   59 1    
   116   57  180 1    
   117   58  181 1    
   118   58  182 1    
   119   58  183 1    
   120   59   60 am   BACKBONE|DICT|INTERRES
   121   59  184 1    
   122   60   61 2    
   123   60   62 1    
   124   62   63 1    
   125   62   64 1    
   126   62  185 1    
   127   63  186 1    
   128   63  187 1    
   129   63  188 1    
   130   64   65 am   BACKBONE|DICT|INTERRES
   131   64  189 1    
   132   65   66 2    
   133   67   68 2    
   134   67   69 am   BACKBONE|DICT|INTERRES
   135   69   70 1    
   136   69  190 1    
   137   70   71 1    
   138   70   72 1    
   139   70  191 1    
   140   71  192 1    
   141   71  193 1    
   142   71  194 1    
   143   72   73 2    
   144   72   74 am   BACKBONE|DICT|INTERRES
   145   74   75 1    
   146   74  195 1    
   147   75   76 1    
   148   75   77 1    
   149   75  196 1    
   150   76  197 1    
   151   76  198 1    
   152   76  199 1    
   153   77   78 2    
   154   77   79 am   BACKBONE|DICT|INTERRES
   155   79   80 1    
   156   79  200 1    
   157   80   81 1    
   158   80   82 1    
   159   80  201 1    
   160   81  202 1    
   161   81  203 1    
   162   81  204 1    
   163   82   83 2    
   164   82   84 am   BACKBONE|DICT|INTERRES
   165   84   85 1    
   166   84  205 1    
   167   85   86 1    
   168   85   87 1    
   169   85  206 1    
   170   86  207 1    
   171   86  208 1    
   172   86  209 1    
   173   87   88 2    
   174   87   89 am   BACKBONE|DICT|INTERRES
   175   89   90 1    
   176   89  210 1    
   177   90   91 1    
   178   90   92 1    
   179   90  211 1    
   180   91  212 1    
   181   91  213 1    
   182   91  214 1    
   183   92   93 2    
   184   92   94 am   BACKBONE|DICT|INTERRES
   185   94   95 1    
   186   94  215 1    
   187   95   96 1    
   188   95   97 1    
   189   95  216 1    
   190   96  217 1    
   191   96  218 1    
   192   96  219 1    
   193   97   98 2    
   194   97   99 am   BACKBONE|DICT|INTERRES
   195   99  100 1    
   196   99  220 1    
   197  100  101 1    
   198  100  102 1    
   199  100  221 1    
   200  101  222 1    
   201  101  223 1    
   202  101  224 1    
   203  102  103 2    
   204  102  104 am   BACKBONE|DICT|INTERRES
   205  104  105 1    
   206  104  225 1    
   207  105  106 1    
   208  105  107 1    
   209  105  226 1    
   210  106  227 1    
   211  106  228 1    
   212  106  229 1    
   213  107  108 2    
   214  107  109 am   BACKBONE|DICT|INTERRES
   215  109  110 1    
   216  109  230 1    
   217  110  111 1    
   218  110  112 1    
   219  110  231 1    
   220  111  232 1    
   221  111  233 1    
   222  111  234 1    
   223  112  113 2    
   224  112  114 am   BACKBONE|DICT|INTERRES
   225  114  115 1    
   226  114  235 1    
   227  115  116 1    
   228  115  117 1    
   229  115  236 1    
   230  116  237 1    
   231  116  238 1    
   232  116  239 1    
   233  117  118 2    
   234  117  119 am   BACKBONE|DICT|INTERRES
   235  119  120 1    
   236  119  240 1    
   237  120  121 1    
   238  120  124 1    
   239  120  241 1    
   240  121  122 am   BACKBONE|DICT|INTERRES
   241  121  123 2    
   242  122  242 1    
   243  122  243 1    
   244  124  125 1    
   245  124  244 1    
   246  124  245 1    
   247  125  126 1    
   248  126  246 1    
   249  126  247 1    
@<TRIPOS>SUBSTRUCTURE
     1 UNK         1 GROUP             0       ****    0 ROOT    
