@<TRIPOS>MOLECULE
3R540
247   249    1
SMALL
USER_CHARGES


@<TRIPOS>ATOM
      1 CA          5.7622  -14.3500  -47.0040 C.3       0 UNK        -0.1800 
      2 C           4.5992  -13.4781  -46.5567 C.2       0 UNK         0.5000 
      3 O           4.4942  -13.1604  -45.3728 O.2       0 UNK        -0.5000 
      4 N           3.7368  -13.0750  -47.4996 N.am      1 UNK        -0.5000 
      5 CA          2.5027  -12.3077  -47.2673 C.3       1 UNK         0.1400 
      6 C6          1.6883  -12.0842  -48.5689 C.3       23 UNK        -0.0398 
      7 S7          1.5137  -13.5640  -49.6224 S.3       23 UNK        -0.2404 
      8 C8          0.2270  -14.4849  -48.7298 C.3       23 UNK        -0.0205 
      9 C9         -0.2050  -15.7267  -49.4943 C.ar      23 UNK        -0.0193 
     10 C10        -1.5244  -15.8551  -49.9347 C.ar      23 UNK        -0.1150 
     11 C11        -1.9496  -17.0194  -50.5788 C.ar      23 UNK        -0.0193 
     12 C12        -1.0310  -18.0447  -50.8271 C.ar      23 UNK        -0.1150 
     13 C13         0.2998  -17.9190  -50.4117 C.ar      23 UNK        -0.0193 
     14 C14         0.7013  -16.7644  -49.7332 C.ar      23 UNK        -0.1150 
     15 C15         1.3127  -19.0181  -50.7035 C.3       23 UNK        -0.0205 
     16 S16         1.6467  -20.0604  -49.2466 S.3       23 UNK        -0.2404 
     17 C17         0.0615  -20.9401  -49.1030 C.3       23 UNK        -0.0398 
     18 CA          0.1046  -22.1308  -48.1152 C.3       11 UNK         0.1400 
     19 N           0.1953  -21.7074  -46.7132 N.am      11 UNK        -0.5000 
     20 C           0.3084  -22.5405  -45.6667 C.2       10 UNK         0.5000 
     21 O           0.4135  -23.7624  -45.7720 O.2       10 UNK        -0.5000 
     22 CA          0.2291  -21.9167  -44.2612 C.3       10 UNK         0.1400 
     23 CB          1.5563  -21.2480  -43.8744 C.3       10 UNK        -0.1800 
     24 N          -0.8698  -20.9591  -44.1326 N.am      10 UNK        -0.5000 
     25 C          -2.1675  -21.2676  -44.2734 C.2       9 UNK         0.5000 
     26 O          -2.5831  -22.4056  -44.4832 O.2       9 UNK        -0.5000 
     27 CA         -3.1695  -20.1028  -44.2249 C.3       9 UNK         0.1400 
     28 CB         -3.5134  -19.7242  -42.7765 C.3       9 UNK        -0.1800 
     29 N          -2.6763  -18.9289  -44.9412 N.am      9 UNK        -0.5000 
     30 C          -2.4838  -18.8773  -46.2668 C.2       8 UNK         0.5000 
     31 O          -2.7401  -19.8032  -47.0374 O.2       8 UNK        -0.5000 
     32 CA         -1.8544  -17.5832  -46.8066 C.3       8 UNK         0.1400 
     33 CB         -2.9160  -16.4777  -46.9172 C.3       8 UNK        -0.1800 
     34 N          -0.7441  -17.1168  -45.9733 N.am      8 UNK        -0.5000 
     35 C           0.4088  -17.7874  -45.8179 C.2       7 UNK         0.5000 
     36 O           0.6519  -18.8556  -46.3740 O.2       7 UNK        -0.5000 
     37 CA          1.4368  -17.2152  -44.8217 C.3       7 UNK         0.1400 
     38 CB          2.3791  -16.2244  -45.5202 C.3       7 UNK        -0.1800 
     39 N           0.8140  -16.5667  -43.6681 N.am      7 UNK        -0.5000 
     40 C          -0.0215  -17.1760  -42.8121 C.2       6 UNK         0.5000 
     41 O          -0.2575  -18.3838  -42.8432 O.2       6 UNK        -0.5000 
     42 CA         -0.7626  -16.2959  -41.7850 C.3       6 UNK         0.1400 
     43 CB         -0.1328  -16.4550  -40.3934 C.3       6 UNK        -0.1800 
     44 N          -0.8005  -14.8717  -42.1264 N.am      6 UNK        -0.5000 
     45 C          -1.3256  -14.3297  -43.2364 C.2       5 UNK         0.5000 
     46 O          -1.9034  -14.9810  -44.1066 O.2       5 UNK        -0.5000 
     47 CA         -1.1089  -12.8150  -43.4328 C.3       5 UNK         0.1400 
     48 CB         -2.3618  -12.0329  -43.0121 C.3       5 UNK        -0.1800 
     49 N           0.0515  -12.3018  -42.6947 N.am      5 UNK        -0.5000 
     50 C           1.3225  -12.6388  -42.9519 C.2       4 UNK         0.5000 
     51 O           1.6588  -13.3867  -43.8716 O.2       4 UNK        -0.5000 
     52 CA          2.3731  -12.1346  -41.9578 C.3       4 UNK         0.1400 
     53 CB          2.6225  -13.1966  -40.8690 C.3       4 UNK        -0.1800 
     54 N           3.6120  -11.8292  -42.6641 N.am      4 UNK        -0.5000 
     55 C           4.5945  -11.0601  -42.1774 C.2       3 UNK         0.5000 
     56 O           4.5785  -10.5569  -41.0530 O.2       3 UNK        -0.5000 
     57 CA          5.7791  -10.7709  -43.1122 C.3       3 UNK         0.1400 
     58 CB          6.7563  -11.9567  -43.1568 C.3       3 UNK        -0.1800 
     59 N           5.3158  -10.4496  -44.4611 N.am      3 UNK        -0.5000 
     60 C           4.8750   -9.2384  -44.8326 C.2       2 UNK         0.5000 
     61 O           4.8712   -8.2578  -44.0873 O.2       2 UNK        -0.5000 
     62 CA          4.3590   -9.0790  -46.2758 C.3       2 UNK         0.1400 
     63 CB          5.4521   -8.4767  -47.1721 C.3       2 UNK        -0.1800 
     64 N           3.9059  -10.3369  -46.8664 N.am      2 UNK        -0.5000 
     65 C           2.7486  -10.9479  -46.5767 C.2       1 UNK         0.5000 
     66 O           1.9046  -10.4877  -45.8074 O.2       1 UNK        -0.5000 
     67 C          -1.1102  -23.0486  -48.3527 C.2       11 UNK         0.5000 
     68 O          -0.9498  -24.1278  -48.9248 O.2       11 UNK        -0.5000 
     69 N          -2.2939  -22.6160  -47.8942 N.am      12 UNK        -0.5000 
     70 CA         -3.5459  -23.3591  -48.0323 C.3       12 UNK         0.1400 
     71 CB         -4.7201  -22.4912  -47.5591 C.3       12 UNK        -0.1800 
     72 C          -3.5282  -24.7144  -47.3035 C.2       12 UNK         0.5000 
     73 O          -3.9852  -25.7085  -47.8667 O.2       12 UNK        -0.5000 
     74 N          -2.9654  -24.7434  -46.0875 N.am      13 UNK        -0.5000 
     75 CA         -2.7781  -25.9537  -45.2876 C.3       13 UNK         0.1400 
     76 CB         -2.3285  -25.5718  -43.8693 C.3       13 UNK        -0.1800 
     77 C          -1.7849  -26.9434  -45.9217 C.2       13 UNK         0.5000 
     78 O          -2.0375  -28.1482  -45.8942 O.2       13 UNK        -0.5000 
     79 N          -0.6885  -26.4237  -46.4927 N.am      14 UNK        -0.5000 
     80 CA          0.3284  -27.2090  -47.1933 C.3       14 UNK         0.1400 
     81 CB          1.5644  -26.3365  -47.4609 C.3       14 UNK        -0.1800 
     82 C          -0.1973  -27.8275  -48.5008 C.2       14 UNK         0.5000 
     83 O           0.0860  -28.9943  -48.7762 O.2       14 UNK        -0.5000 
     84 N          -0.9607  -27.0435  -49.2739 N.am      15 UNK        -0.5000 
     85 CA         -1.5902  -27.4833  -50.5197 C.3       15 UNK         0.1400 
     86 CB         -2.0312  -26.2501  -51.3208 C.3       15 UNK        -0.1800 
     87 C          -2.7955  -28.4139  -50.2947 C.2       15 UNK         0.5000 
     88 O          -3.0642  -29.2632  -51.1450 O.2       15 UNK        -0.5000 
     89 N          -3.5117  -28.2058  -49.1789 N.am      16 UNK        -0.5000 
     90 CA         -4.8170  -28.7821  -48.8360 C.3       16 UNK         0.1400 
     91 CB         -4.7181  -30.3070  -48.6234 C.3       16 UNK        -0.1800 
     92 C          -5.9051  -28.3686  -49.8520 C.2       16 UNK         0.5000 
     93 O          -6.7658  -29.1744  -50.2116 O.2       16 UNK        -0.5000 
     94 N          -5.8211  -27.1162  -50.3154 N.am      17 UNK        -0.5000 
     95 CA         -6.6108  -26.5211  -51.3880 C.3       17 UNK         0.1400 
     96 CB         -6.1927  -27.1286  -52.7440 C.3       17 UNK        -0.1800 
     97 C          -6.3850  -25.0002  -51.3750 C.2       17 UNK         0.5000 
     98 O          -5.5836  -24.5042  -50.5781 O.2       17 UNK        -0.5000 
     99 N          -7.0749  -24.2827  -52.2708 N.am      18 UNK        -0.5000 
    100 CA        -6.9243  -22.8432  -52.4950 C.3       18 UNK         0.1400 
    101 CB        -8.1583  -22.3226  -53.2538 C.3       18 UNK        -0.1800 
    102 C         -5.6069  -22.5249  -53.2334 C.2       18 UNK         0.5000 
    103 O         -5.6152  -22.2579  -54.4381 O.2       18 UNK        -0.5000 
    104 N         -4.4924  -22.6065  -52.4965 N.am      19 UNK        -0.5000 
    105 CA        -3.1281  -22.3326  -52.9460 C.3       19 UNK         0.1400 
    106 CB        -2.1809  -22.4612  -51.7478 C.3       19 UNK        -0.1800 
    107 C         -2.9895  -20.9349  -53.5705 C.2       19 UNK         0.5000 
    108 O         -3.4653  -19.9636  -52.9846 O.2       19 UNK        -0.5000 
    109 N         -2.3683  -20.8688  -54.7565 N.am      20 UNK        -0.5000 
    110 CA        -2.1710  -19.6621  -55.5740 C.3       20 UNK         0.1400 
    111 CB        -1.1798  -18.7004  -54.8841 C.3       20 UNK        -0.1800 
    112 C         -3.4875  -18.9629  -55.9935 C.2       20 UNK         0.5000 
    113 O         -3.4706  -17.7745  -56.3179 O.2       20 UNK        -0.5000 
    114 N         -4.5979  -19.7190  -55.9871 N.am      21 UNK        -0.5000 
    115 CA        -5.9780  -19.2855  -56.2222 C.3       21 UNK         0.1400 
    116 CB        -6.1672  -18.7787  -57.6679 C.3       21 UNK        -0.1800 
    117 C         -6.4938  -18.2954  -55.1545 C.2       21 UNK         0.5000 
    118 O         -7.3165  -17.4314  -55.4653 O.2       21 UNK        -0.5000 
    119 N         -6.0221  -18.4461  -53.9120 N.am      22 UNK        -0.5000 
    120 CA        -6.4197  -17.6439  -52.7494 C.3       22 UNK         0.1400 
    121 C         -6.5360  -18.4990  -51.4562 C.2       22 UNK         0.5000 
    122 N         -6.9116  -17.9000  -50.3334 N.am      22 UNK        -0.7600 
    123 O         -6.3224  -19.7080  -51.4535 O.2       22 UNK        -0.5000 
    124 C124       -5.5661  -16.3508  -52.5921 C.3       23 UNK        -0.0398 
    125 S125       -3.7501  -16.5683  -52.6362 S.3       23 UNK        -0.2404 
    126 C126       -3.4130  -17.1777  -50.9571 C.3       23 UNK        -0.0205 
    127 H127        5.7464  -14.5272  -48.0796 H         1 UNK         0.0600 
    128 H128        5.7194  -15.3149  -46.4988 H         1 UNK         0.0600 
    129 H129        6.7083  -13.8720  -46.7499 H         1 UNK         0.0600 
    130 H130        3.8758  -13.3744  -48.4546 H         1 UNK         0.3000 
    131 H131        1.8907  -12.9016  -46.5860 H         1 UNK         0.0600 
    132 H132        2.1641  -11.3198  -49.1865 H         1 UNK         0.0800 
    133 H133        0.6938  -11.7004  -48.3336 H         1 UNK         0.0800 
    134 H134        0.6027  -14.7837  -47.7517 H         1 UNK         0.0800 
    135 H135       -0.6255  -13.8285  -48.5487 H         1 UNK         0.0800 
    136 H136       -2.2345  -15.0623  -49.7457 H         1 UNK         0.1150 
    137 H137       -1.3572  -18.9403  -51.3376 H         1 UNK         0.1150 
    138 H138        1.7232  -16.6710  -49.3932 H         1 UNK         0.1150 
    139 H139        0.9759  -19.6415  -51.5333 H         1 UNK         0.0800 
    140 H140        2.2495  -18.5639  -51.0294 H         1 UNK         0.0800 
    141 H141       -0.1906  -21.2863  -50.1051 H         1 UNK         0.0800 
    142 H142       -0.7136  -20.2275  -48.8169 H         1 UNK         0.0800 
    143 H143        0.9960  -22.7230  -48.3326 H         1 UNK         0.0600 
    144 H144        0.1749  -20.7043  -46.5454 H         1 UNK         0.3000 
    145 H145        0.0413  -22.7245  -43.5509 H         1 UNK         0.0600 
    146 H146        1.5068  -20.8198  -42.8730 H         1 UNK         0.0600 
    147 H147        2.3712  -21.9729  -43.8800 H         1 UNK         0.0600 
    148 H148        1.8251  -20.4514  -44.5669 H         1 UNK         0.0600 
    149 H149       -0.6198  -19.9999  -43.9123 H         1 UNK         0.3000 
    150 H150       -4.0879  -20.4331  -44.7148 H         1 UNK         0.0600 
    151 H151       -3.9269  -20.5796  -42.2408 H         1 UNK         0.0600 
    152 H152       -4.2584  -18.9292  -42.7427 H         1 UNK         0.0600 
    153 H153       -2.6369  -19.3866  -42.2236 H         1 UNK         0.0600 
    154 H154       -2.3965  -18.1366  -44.3824 H         1 UNK         0.3000 
    155 H155       -1.4610  -17.7958  -47.8013 H         1 UNK         0.0600 
    156 H156       -2.4787  -15.5370  -47.2500 H         1 UNK         0.0600 
    157 H157       -3.6886  -16.7538  -47.6356 H         1 UNK         0.0600 
    158 H158       -3.4086  -16.2913  -45.9623 H         1 UNK         0.0600 
    159 H159       -0.9080  -16.2775  -45.4289 H         1 UNK         0.3000 
    160 H160        2.0363  -18.0477  -44.4494 H         1 UNK         0.0600 
    161 H161        1.8499  -15.3307  -45.8490 H         1 UNK         0.0600 
    162 H162        2.8449  -16.6742  -46.3980 H         1 UNK         0.0600 
    163 H163        3.1800  -15.9052  -44.8528 H         1 UNK         0.0600 
    164 H164        0.9615  -15.5691  -43.5813 H         1 UNK         0.3000 
    165 H165       -1.7938  -16.6518  -41.7404 H         1 UNK         0.0600 
    166 H166       -0.6975  -15.9078  -39.6384 H         1 UNK         0.0600 
    167 H167       -0.1172  -17.5025  -40.0886 H         1 UNK         0.0600 
    168 H168        0.8958  -16.0924  -40.3740 H         1 UNK         0.0600 
    169 H169       -0.3497  -14.2483  -41.4743 H         1 UNK         0.3000 
    170 H170       -0.9367  -12.6435  -44.4976 H         1 UNK         0.0600 
    171 H171       -3.2387  -12.3752  -43.5634 H         1 UNK         0.0600 
    172 H172       -2.5746  -12.1533  -41.9492 H         1 UNK         0.0600 
    173 H173       -2.2483  -10.9677  -43.2145 H         1 UNK         0.0600 
    174 H174       -0.1476  -11.6881  -41.9175 H         1 UNK         0.3000 
    175 H175        1.9996  -11.2195  -41.4932 H         1 UNK         0.0600 
    176 H176        1.6999  -13.4453  -40.3436 H         1 UNK         0.0600 
    177 H177        3.0178  -14.1199  -41.2950 H         1 UNK         0.0600 
    178 H178        3.3315  -12.8448  -40.1198 H         1 UNK         0.0600 
    179 H179        3.6897  -12.2259  -43.5969 H         1 UNK         0.3000 
    180 H180        6.3236   -9.9131  -42.7112 H         1 UNK         0.0600 
    181 H181        6.2746  -12.8739  -43.4950 H         1 UNK         0.0600 
    182 H182        7.1684  -12.1540  -42.1665 H         1 UNK         0.0600 
    183 H183        7.5945  -11.7525  -43.8231 H         1 UNK         0.0600 
    184 H184        5.2128  -11.2308  -45.0976 H         1 UNK         0.3000 
    185 H185        3.5174   -8.3833  -46.2506 H         1 UNK         0.0600 
    186 H186        5.7963   -7.5192  -46.7788 H         1 UNK         0.0600 
    187 H187        6.3204   -9.1328  -47.2446 H         1 UNK         0.0600 
    188 H188        5.0806   -8.2970  -48.1811 H         1 UNK         0.0600 
    189 H189        4.5392  -10.7923  -47.5077 H         1 UNK         0.3000 
    190 H190       -2.3532  -21.7051  -47.4478 H         1 UNK         0.3000 
    191 H191       -3.6820  -23.5614  -49.0953 H         1 UNK         0.0600 
    192 H192       -4.6242  -22.2234  -46.5065 H         1 UNK         0.0600 
    193 H193       -5.6672  -23.0179  -47.6832 H         1 UNK         0.0600 
    194 H194       -4.7838  -21.5682  -48.1359 H         1 UNK         0.0600 
    195 H195       -2.6561  -23.8705  -45.6666 H         1 UNK         0.3000 
    196 H196       -3.7445  -26.4567  -45.2126 H         1 UNK         0.0600 
    197 H197       -2.1853  -26.4589  -43.2511 H         1 UNK         0.0600 
    198 H198       -3.0736  -24.9481  -43.3751 H         1 UNK         0.0600 
    199 H199       -1.3867  -25.0219  -43.8808 H         1 UNK         0.0600 
    200 H200       -0.5274  -25.4230  -46.4321 H         1 UNK         0.3000 
    201 H201        0.6311  -28.0280  -46.5375 H         1 UNK         0.0600 
    202 H202        1.9982  -25.9734  -46.5292 H         1 UNK         0.0600 
    203 H203        1.3213  -25.4694  -48.0758 H         1 UNK         0.0600 
    204 H204        2.3382  -26.9026  -47.9809 H         1 UNK         0.0600 
    205 H205       -1.0975  -26.0720  -49.0066 H         1 UNK         0.3000 
    206 H206       -0.8501  -28.0277  -51.1099 H         1 UNK         0.0600 
    207 H207       -1.1841  -25.5992  -51.5377 H         1 UNK         0.0600 
    208 H208       -2.4746  -26.5380  -52.2748 H         1 UNK         0.0600 
    209 H209       -2.7759  -25.6686  -50.7754 H         1 UNK         0.0600 
    210 H210       -3.2323  -27.4323  -48.5849 H         1 UNK         0.3000 
    211 H211       -5.1044  -28.3359  -47.8830 H         1 UNK         0.0600 
    212 H212       -4.5052  -30.8360  -49.5525 H         1 UNK         0.0600 
    213 H213       -5.6532  -30.7058  -48.2288 H         1 UNK         0.0600 
    214 H214       -3.9329  -30.5533  -47.9086 H         1 UNK         0.0600 
    215 H215       -5.1407  -26.4824  -49.9086 H         1 UNK         0.3000 
    216 H216       -7.6690  -26.7135  -51.2018 H         1 UNK         0.0600 
    217 H217       -5.1384  -26.9441  -52.9544 H         1 UNK         0.0600 
    218 H218       -6.7713  -26.7088  -53.5672 H         1 UNK         0.0600 
    219 H219       -6.3506  -28.2068  -52.7662 H         1 UNK         0.0600 
    220 H220       -7.6952  -24.7649  -52.9048 H         1 UNK         0.3000 
    221 H221       -6.8945  -22.3405  -51.5260 H         1 UNK         0.0600 
    222 H222       -9.0709  -22.4859  -52.6804 H         1 UNK         0.0600 
    223 H223       -8.2767  -22.8117  -54.2214 H         1 UNK         0.0600 
    224 H224       -8.0767  -21.2496  -53.4343 H         1 UNK         0.0600 
    225 H225       -4.6007  -22.8953  -51.5322 H         1 UNK         0.3000 
    226 H226       -2.8664  -23.0909  -53.6864 H         1 UNK         0.0600 
    227 H227       -2.2664  -23.4384  -51.2788 H         1 UNK         0.0600 
    228 H228       -1.1424  -22.3357  -52.0559 H         1 UNK         0.0600 
    229 H229       -2.3995  -21.7100  -50.9874 H         1 UNK         0.0600 
    230 H230       -2.0256  -21.7262  -55.1674 H         1 UNK         0.3000 
    231 H231       -1.7069  -19.9985  -56.5020 H         1 UNK         0.0600 
    232 H232       -1.5972  -18.2749  -53.9715 H         1 UNK         0.0600 
    233 H233       -0.9163  -17.8696  -55.5393 H         1 UNK         0.0600 
    234 H234       -0.2532  -19.2102  -54.6206 H         1 UNK         0.0600 
    235 H235       -4.5090  -20.6773  -55.6720 H         1 UNK         0.3000 
    236 H236       -6.5913  -20.1809  -56.1120 H         1 UNK         0.0600 
    237 H237       -7.2228  -18.6171  -57.8892 H         1 UNK         0.0600 
    238 H238       -5.6514  -17.8337  -57.8391 H         1 UNK         0.0600 
    239 H239       -5.7931  -19.5024  -58.3920 H         1 UNK         0.0600 
    240 H240       -5.3317  -19.1627  -53.7105 H         1 UNK         0.3000 
    241 H241       -7.4488  -17.3228  -52.9207 H         1 UNK         0.0600 
    242 H242       -7.0017  -18.4577  -49.4990 H         1 UNK         0.3800 
    243 H243       -7.1406  -16.9196  -50.2975 H         1 UNK         0.3800 
    244 H244       -5.8388  -15.7973  -51.6931 H         1 UNK         0.0800 
    245 H245       -5.8127  -15.6800  -53.4159 H         1 UNK         0.0800 
    246 H246       -3.6969  -18.2288  -50.8902 H         1 UNK         0.0800 
    247 H247       -4.0373  -16.6446  -50.2388 H         1 UNK         0.0800 
@<TRIPOS>BOND
     1    1    2 1    
     2    1  127 1    
     3    1  128 1    
     4    1  129 1    
     5    2    3 2    
     6    2    4 am   BACKBONE|DICT|INTERRES
     7    4    5 1    
     8    4  130 1    
     9    5    6 1    
    10    5   65 1    
    11    5  131 1    
    12    6    7 1    
    13    6  132 1    
    14    6  133 1    
    15    7    8 1    
    16    8    9 1    
    17    8  134 1    
    18    8  135 1    
    19    9   10 ar   
    20    9   14 ar   
    21   10   11 ar   
    22   10  136 1    
    23   11   12 ar   
    24   11  126 1    
    25   12   13 ar   
    26   12  137 1    
    27   13   14 ar   
    28   13   15 1    
    29   14  138 1    
    30   15   16 1    
    31   15  139 1    
    32   15  140 1    
    33   16   17 1    
    34   17   18 1    
    35   17  141 1    
    36   17  142 1    
    37   18   19 1    
    38   18   67 1    
    39   18  143 1    
    40   19   20 am   BACKBONE|DICT|INTERRES
    41   19  144 1    
    42   20   21 2    
    43   20   22 1    
    44   22   23 1    
    45   22   24 1    
    46   22  145 1    
    47   23  146 1    
    48   23  147 1    
    49   23  148 1    
    50   24   25 am   BACKBONE|DICT|INTERRES
    51   24  149 1    
    52   25   26 2    
    53   25   27 1    
    54   27   28 1    
    55   27   29 1    
    56   27  150 1    
    57   28  151 1    
    58   28  152 1    
    59   28  153 1    
    60   29   30 am   BACKBONE|DICT|INTERRES
    61   29  154 1    
    62   30   31 2    
    63   30   32 1    
    64   32   33 1    
    65   32   34 1    
    66   32  155 1    
    67   33  156 1    
    68   33  157 1    
    69   33  158 1    
    70   34   35 am   BACKBONE|DICT|INTERRES
    71   34  159 1    
    72   35   36 2    
    73   35   37 1    
    74   37   38 1    
    75   37   39 1    
    76   37  160 1    
    77   38  161 1    
    78   38  162 1    
    79   38  163 1    
    80   39   40 am   BACKBONE|DICT|INTERRES
    81   39  164 1    
    82   40   41 2    
    83   40   42 1    
    84   42   43 1    
    85   42   44 1    
    86   42  165 1    
    87   43  166 1    
    88   43  167 1    
    89   43  168 1    
    90   44   45 am   BACKBONE|DICT|INTERRES
    91   44  169 1    
    92   45   46 2    
    93   45   47 1    
    94   47   48 1    
    95   47   49 1    
    96   47  170 1    
    97   48  171 1    
    98   48  172 1    
    99   48  173 1    
   100   49   50 am   BACKBONE|DICT|INTERRES
   101   49  174 1    
   102   50   51 2    
   103   50   52 1    
   104   52   53 1    
   105   52   54 1    
   106   52  175 1    
   107   53  176 1    
   108   53  177 1    
   109   53  178 1    
   110   54   55 am   BACKBONE|DICT|INTERRES
   111   54  179 1    
   112   55   56 2    
   113   55   57 1    
   114   57   58 1    
   115   57   59 1    
   116   57  180 1    
   117   58  181 1    
   118   58  182 1    
   119   58  183 1    
   120   59   60 am   BACKBONE|DICT|INTERRES
   121   59  184 1    
   122   60   61 2    
   123   60   62 1    
   124   62   63 1    
   125   62   64 1    
   126   62  185 1    
   127   63  186 1    
   128   63  187 1    
   129   63  188 1    
   130   64   65 am   BACKBONE|DICT|INTERRES
   131   64  189 1    
   132   65   66 2    
   133   67   68 2    
   134   67   69 am   BACKBONE|DICT|INTERRES
   135   69   70 1    
   136   69  190 1    
   137   70   71 1    
   138   70   72 1    
   139   70  191 1    
   140   71  192 1    
   141   71  193 1    
   142   71  194 1    
   143   72   73 2    
   144   72   74 am   BACKBONE|DICT|INTERRES
   145   74   75 1    
   146   74  195 1    
   147   75   76 1    
   148   75   77 1    
   149   75  196 1    
   150   76  197 1    
   151   76  198 1    
   152   76  199 1    
   153   77   78 2    
   154   77   79 am   BACKBONE|DICT|INTERRES
   155   79   80 1    
   156   79  200 1    
   157   80   81 1    
   158   80   82 1    
   159   80  201 1    
   160   81  202 1    
   161   81  203 1    
   162   81  204 1    
   163   82   83 2    
   164   82   84 am   BACKBONE|DICT|INTERRES
   165   84   85 1    
   166   84  205 1    
   167   85   86 1    
   168   85   87 1    
   169   85  206 1    
   170   86  207 1    
   171   86  208 1    
   172   86  209 1    
   173   87   88 2    
   174   87   89 am   BACKBONE|DICT|INTERRES
   175   89   90 1    
   176   89  210 1    
   177   90   91 1    
   178   90   92 1    
   179   90  211 1    
   180   91  212 1    
   181   91  213 1    
   182   91  214 1    
   183   92   93 2    
   184   92   94 am   BACKBONE|DICT|INTERRES
   185   94   95 1    
   186   94  215 1    
   187   95   96 1    
   188   95   97 1    
   189   95  216 1    
   190   96  217 1    
   191   96  218 1    
   192   96  219 1    
   193   97   98 2    
   194   97   99 am   BACKBONE|DICT|INTERRES
   195   99  100 1    
   196   99  220 1    
   197  100  101 1    
   198  100  102 1    
   199  100  221 1    
   200  101  222 1    
   201  101  223 1    
   202  101  224 1    
   203  102  103 2    
   204  102  104 am   BACKBONE|DICT|INTERRES
   205  104  105 1    
   206  104  225 1    
   207  105  106 1    
   208  105  107 1    
   209  105  226 1    
   210  106  227 1    
   211  106  228 1    
   212  106  229 1    
   213  107  108 2    
   214  107  109 am   BACKBONE|DICT|INTERRES
   215  109  110 1    
   216  109  230 1    
   217  110  111 1    
   218  110  112 1    
   219  110  231 1    
   220  111  232 1    
   221  111  233 1    
   222  111  234 1    
   223  112  113 2    
   224  112  114 am   BACKBONE|DICT|INTERRES
   225  114  115 1    
   226  114  235 1    
   227  115  116 1    
   228  115  117 1    
   229  115  236 1    
   230  116  237 1    
   231  116  238 1    
   232  116  239 1    
   233  117  118 2    
   234  117  119 am   BACKBONE|DICT|INTERRES
   235  119  120 1    
   236  119  240 1    
   237  120  121 1    
   238  120  124 1    
   239  120  241 1    
   240  121  122 am   BACKBONE|DICT|INTERRES
   241  121  123 2    
   242  122  242 1    
   243  122  243 1    
   244  124  125 1    
   245  124  244 1    
   246  124  245 1    
   247  125  126 1    
   248  126  246 1    
   249  126  247 1    
@<TRIPOS>SUBSTRUCTURE
     1 UNK         1 GROUP             0       ****    0 ROOT    
