@<TRIPOS>MOLECULE
3R540
247   249    1
SMALL
USER_CHARGES


@<TRIPOS>ATOM
      1 CA          8.6622  -13.1342  -48.9280 C.3       0 UNK        -0.1800 
      2 C           7.7548  -14.2057  -48.3403 C.2       0 UNK         0.5000 
      3 O           8.1826  -15.3493  -48.1867 O.2       0 UNK        -0.5000 
      4 N           6.5078  -13.8352  -48.0220 N.am      1 UNK        -0.5000 
      5 CA          5.4798  -14.6886  -47.4139 C.3       1 UNK         0.1400 
      6 C6          4.1106  -13.9772  -47.2920 C.3       23 UNK        -0.0398 
      7 S7          3.3504  -13.6208  -48.9108 S.3       23 UNK        -0.2404 
      8 C8          1.8534  -14.6594  -48.8509 C.3       23 UNK        -0.0205 
      9 C9          2.0748  -16.0533  -49.4235 C.ar      23 UNK        -0.0193 
     10 C10         1.4401  -16.4260  -50.6137 C.ar      23 UNK        -0.1150 
     11 C11         1.5996  -17.7143  -51.1322 C.ar      23 UNK        -0.0193 
     12 C12         2.4362  -18.6176  -50.4743 C.ar      23 UNK        -0.1150 
     13 C13         3.0714  -18.2640  -49.2810 C.ar      23 UNK        -0.0193 
     14 C14         2.8732  -16.9860  -48.7513 C.ar      23 UNK        -0.1150 
     15 C15         3.9716  -19.2694  -48.5744 C.3       23 UNK        -0.0205 
     16 S16         3.0949  -20.2277  -47.2959 S.3       23 UNK        -0.2404 
     17 C17         1.6777  -20.8881  -48.2366 C.3       23 UNK        -0.0398 
     18 CA          0.8924  -21.9840  -47.4832 C.3       11 UNK         0.1400 
     19 N           0.2687  -21.4932  -46.2524 N.am      11 UNK        -0.5000 
     20 C          -0.3474  -22.2643  -45.3467 C.2       10 UNK         0.5000 
     21 O          -0.4294  -23.4905  -45.4346 O.2       10 UNK        -0.5000 
     22 CA         -1.0214  -21.5415  -44.1662 C.3       10 UNK         0.1400 
     23 CB          0.0177  -21.1085  -43.1212 C.3       10 UNK        -0.1800 
     24 N          -1.8160  -20.3843  -44.5842 N.am      10 UNK        -0.5000 
     25 C          -2.9099  -20.4587  -45.3563 C.2       9 UNK         0.5000 
     26 O          -3.3662  -21.5140  -45.7936 O.2       9 UNK        -0.5000 
     27 CA         -3.5995  -19.1347  -45.7307 C.3       9 UNK         0.1400 
     28 CB         -4.4488  -18.6118  -44.5629 C.3       9 UNK        -0.1800 
     29 N          -2.6579  -18.1005  -46.1519 N.am      9 UNK        -0.5000 
     30 C          -1.8573  -18.1914  -47.2236 C.2       8 UNK         0.5000 
     31 O          -1.8396  -19.1524  -47.9916 O.2       8 UNK        -0.5000 
     32 CA         -0.8582  -17.0401  -47.4296 C.3       8 UNK         0.1400 
     33 CB         -1.5804  -15.7965  -47.9697 C.3       8 UNK        -0.1800 
     34 N          -0.1206  -16.6983  -46.2089 N.am      8 UNK        -0.5000 
     35 C           0.5916  -17.5713  -45.4797 C.2       7 UNK         0.5000 
     36 O           0.7011  -18.7633  -45.7508 O.2       7 UNK        -0.5000 
     37 CA          1.2430  -17.0465  -44.1923 C.3       7 UNK         0.1400 
     38 CB          2.5133  -16.2484  -44.5086 C.3       7 UNK        -0.1800 
     39 N           0.3150  -16.2451  -43.3969 N.am      7 UNK        -0.5000 
     40 C          -0.7980  -16.7339  -42.8303 C.2       6 UNK         0.5000 
     41 O          -1.1103  -17.9255  -42.8396 O.2       6 UNK        -0.5000 
     42 CA         -1.7545  -15.7044  -42.2078 C.3       6 UNK         0.1400 
     43 CB         -1.2823  -15.2781  -40.8095 C.3       6 UNK        -0.1800 
     44 N          -1.9113  -14.5293  -43.0667 N.am      6 UNK        -0.5000 
     45 C          -2.5437  -14.5520  -44.2492 C.2       5 UNK         0.5000 
     46 O          -3.0861  -15.5559  -44.7114 O.2       5 UNK        -0.5000 
     47 CA         -2.5618  -13.2477  -45.0673 C.3       5 UNK         0.1400 
     48 CB         -3.8127  -12.4229  -44.7299 C.3       5 UNK        -0.1800 
     49 N          -1.3747  -12.4129  -44.8841 N.am      5 UNK        -0.5000 
     50 C          -0.1230  -12.7505  -45.2238 C.2       4 UNK         0.5000 
     51 O           0.1782  -13.8404  -45.7137 O.2       4 UNK        -0.5000 
     52 CA          0.9812  -11.6969  -44.9727 C.3       4 UNK         0.1400 
     53 CB          0.4653  -10.3910  -44.3282 C.3       4 UNK        -0.1800 
     54 N           2.1194  -12.1926  -44.1917 N.am      4 UNK        -0.5000 
     55 C           2.1023  -12.9144  -43.0626 C.2       3 UNK         0.5000 
     56 O           1.0801  -13.3991  -42.5736 O.2       3 UNK        -0.5000 
     57 CA          3.4655  -13.1241  -42.3636 C.3       3 UNK         0.1400 
     58 CB          3.3980  -14.1619  -41.2271 C.3       3 UNK        -0.1800 
     59 N           4.5546  -13.4813  -43.2835 N.am      3 UNK        -0.5000 
     60 C           5.2396  -12.6165  -44.0467 C.2       2 UNK         0.5000 
     61 O           4.9500  -11.4234  -44.1324 O.2       2 UNK        -0.5000 
     62 CA          6.4187  -13.1565  -44.8786 C.3       2 UNK         0.1400 
     63 CB          7.7503  -12.7870  -44.2083 C.3       2 UNK        -0.1800 
     64 N           6.3710  -14.6130  -45.0429 N.am      2 UNK        -0.5000 
     65 C           5.9045  -15.3415  -46.0715 C.2       1 UNK         0.5000 
     66 O           5.8249  -16.5645  -45.9764 O.2       1 UNK        -0.5000 
     67 C          -0.1478  -22.6219  -48.4221 C.2       11 UNK         0.5000 
     68 O           0.0975  -23.7094  -48.9434 O.2       11 UNK        -0.5000 
     69 N          -1.3006  -21.9600  -48.5967 N.am      12 UNK        -0.5000 
     70 CA         -2.4088  -22.4573  -49.4070 C.3       12 UNK         0.1400 
     71 CB         -3.4608  -21.3600  -49.5801 C.3       12 UNK        -0.1800 
     72 C          -3.0379  -23.7377  -48.8355 C.2       12 UNK         0.5000 
     73 O          -3.3463  -24.6427  -49.6073 O.2       12 UNK        -0.5000 
     74 N          -3.1798  -23.8232  -47.5058 N.am      13 UNK        -0.5000 
     75 CA         -3.6409  -25.0234  -46.8057 C.3       13 UNK         0.1400 
     76 CB         -3.8642  -24.7124  -45.3187 C.3       13 UNK        -0.1800 
     77 C          -2.6857  -26.2169  -46.9848 C.2       13 UNK         0.5000 
     78 O          -3.1515  -27.3268  -47.2439 O.2       13 UNK        -0.5000 
     79 N          -1.3724  -25.9614  -46.8972 N.am      14 UNK        -0.5000 
     80 CA         -0.3192  -26.9491  -47.1449 C.3       14 UNK         0.1400 
     81 CB          1.0364  -26.3711  -46.7110 C.3       14 UNK        -0.1800 
     82 C          -0.2718  -27.4222  -48.6120 C.2       14 UNK         0.5000 
     83 O          -0.0569  -28.6087  -48.8620 O.2       14 UNK        -0.5000 
     84 N          -0.4981  -26.4940  -49.5510 N.am      15 UNK        -0.5000 
     85 CA         -0.5533  -26.7476  -50.9928 C.3       15 UNK         0.1400 
     86 CB         -0.3428  -25.4164  -51.7323 C.3       15 UNK        -0.1800 
     87 C          -1.8639  -27.4116  -51.4649 C.2       15 UNK         0.5000 
     88 O          -1.9221  -27.8594  -52.6108 O.2       15 UNK        -0.5000 
     89 N          -2.8884  -27.4382  -50.5986 N.am      16 UNK        -0.5000 
     90 CA         -4.2712  -27.8550  -50.8626 C.3       16 UNK         0.1400 
     91 CB         -4.3504  -29.3554  -51.2137 C.3       16 UNK        -0.1800 
     92 C          -4.9688  -26.9416  -51.8961 C.2       16 UNK         0.5000 
     93 O          -5.7103  -27.4169  -52.7578 O.2       16 UNK        -0.5000 
     94 N          -4.7097  -25.6352  -51.7744 N.am      17 UNK        -0.5000 
     95 CA         -5.2134  -24.5522  -52.6170 C.3       17 UNK         0.1400 
     96 CB         -4.0253  -23.9230  -53.3661 C.3       17 UNK        -0.1800 
     97 C          -5.9666  -23.5077  -51.7695 C.2       17 UNK         0.5000 
     98 O          -6.0573  -22.3430  -52.1626 O.2       17 UNK        -0.5000 
     99 N          -6.4956  -23.9276  -50.6105 N.am      18 UNK        -0.5000 
    100 CA        -7.1711  -23.0870  -49.6144 C.3       18 UNK         0.1400 
    101 CB        -7.5274  -23.9501  -48.3955 C.3       18 UNK        -0.1800 
    102 C         -8.4183  -22.3405  -50.1311 C.2       18 UNK         0.5000 
    103 O         -8.7825  -21.3130  -49.5605 O.2       18 UNK        -0.5000 
    104 N         -9.0334  -22.8483  -51.2083 N.am      19 UNK        -0.5000 
    105 CA       -10.1308  -22.1958  -51.9241 C.3       19 UNK         0.1400 
    106 CB       -10.7760  -23.2083  -52.8826 C.3       19 UNK        -0.1800 
    107 C         -9.6834  -20.9345  -52.6917 C.2       19 UNK         0.5000 
    108 O        -10.4765  -20.0026  -52.8309 O.2       19 UNK        -0.5000 
    109 N         -8.4303  -20.9230  -53.1688 N.am      20 UNK        -0.5000 
    110 CA        -7.8050  -19.7753  -53.8262 C.3       20 UNK         0.1400 
    111 CB        -6.7895  -20.2720  -54.8676 C.3       20 UNK        -0.1800 
    112 C         -7.1208  -18.8540  -52.8031 C.2       20 UNK         0.5000 
    113 O         -7.1522  -17.6340  -52.9706 O.2       20 UNK        -0.5000 
    114 N         -6.5075  -19.4548  -51.7700 N.am      21 UNK        -0.5000 
    115 CA        -5.8565  -18.8052  -50.6224 C.3       21 UNK         0.1400 
    116 CB        -6.9073  -18.0998  -49.7403 C.3       21 UNK        -0.1800 
    117 C         -4.6873  -17.8676  -51.0045 C.2       21 UNK         0.5000 
    118 O         -4.3892  -16.9318  -50.2613 O.2       21 UNK        -0.5000 
    119 N         -4.0738  -18.1150  -52.1719 N.am      22 UNK        -0.5000 
    120 CA        -3.0936  -17.2391  -52.8419 C.3       22 UNK         0.1400 
    121 C         -3.6700  -15.8562  -53.2896 C.2       22 UNK         0.5000 
    122 N         -4.9829  -15.6802  -53.3935 N.am      22 UNK        -0.7600 
    123 O         -2.9189  -14.9315  -53.5879 O.2       22 UNK        -0.5000 
    124 C124       -1.7492  -17.1176  -52.0665 C.3       23 UNK        -0.0398 
    125 S125       -0.8329  -18.6965  -52.0175 S.3       23 UNK        -0.2404 
    126 C126        0.8654  -18.1464  -52.3931 C.3       23 UNK        -0.0205 
    127 H127        9.0020  -13.4325  -49.9198 H         1 UNK         0.0600 
    128 H128        9.5376  -12.9956  -48.2936 H         1 UNK         0.0600 
    129 H129        8.1526  -12.1744  -49.0177 H         1 UNK         0.0600 
    130 H130        6.2196  -12.8877  -48.2193 H         1 UNK         0.3000 
    131 H131        5.3482  -15.5174  -48.1125 H         1 UNK         0.0600 
    132 H132        4.2046  -13.0314  -46.7598 H         1 UNK         0.0800 
    133 H133        3.4192  -14.5774  -46.7044 H         1 UNK         0.0800 
    134 H134        1.4828  -14.7390  -47.8295 H         1 UNK         0.0800 
    135 H135        1.0698  -14.1454  -49.4092 H         1 UNK         0.0800 
    136 H136        0.8032  -15.7201  -51.1271 H         1 UNK         0.1150 
    137 H137        2.5756  -19.6089  -50.8817 H         1 UNK         0.1150 
    138 H138        3.3427  -16.7233  -47.8157 H         1 UNK         0.1150 
    139 H139        4.4089  -19.9576  -49.2993 H         1 UNK         0.0800 
    140 H140        4.8093  -18.7477  -48.1086 H         1 UNK         0.0800 
    141 H141        2.0606  -21.2816  -49.1800 H         1 UNK         0.0800 
    142 H142        1.0125  -20.0588  -48.4865 H         1 UNK         0.0800 
    143 H143        1.5963  -22.7697  -47.2006 H         1 UNK         0.0600 
    144 H144        0.3269  -20.4880  -46.0895 H         1 UNK         0.3000 
    145 H145       -1.6995  -22.2526  -43.6901 H         1 UNK         0.0600 
    146 H146       -0.4631  -20.6732  -42.2451 H         1 UNK         0.0600 
    147 H147        0.6070  -21.9605  -42.7802 H         1 UNK         0.0600 
    148 H148        0.7109  -20.3691  -43.5229 H         1 UNK         0.0600 
    149 H149       -1.5020  -19.4762  -44.2601 H         1 UNK         0.3000 
    150 H150       -4.2663  -19.3355  -46.5718 H         1 UNK         0.0600 
    151 H151       -5.1653  -19.3645  -44.2317 H         1 UNK         0.0600 
    152 H152       -5.0163  -17.7278  -44.8547 H         1 UNK         0.0600 
    153 H153       -3.8313  -18.3428  -43.7049 H         1 UNK         0.0600 
    154 H154       -2.6215  -17.2602  -45.5821 H         1 UNK         0.3000 
    155 H155       -0.1280  -17.3668  -48.1717 H         1 UNK         0.0600 
    156 H156       -2.3769  -15.4742  -47.3017 H         1 UNK         0.0600 
    157 H157       -2.0434  -16.0050  -48.9326 H         1 UNK         0.0600 
    158 H158       -0.9009  -14.9577  -48.1085 H         1 UNK         0.0600 
    159 H159       -0.1365  -15.7235  -45.9217 H         1 UNK         0.3000 
    160 H160        1.5350  -17.9147  -43.5977 H         1 UNK         0.0600 
    161 H161        2.2759  -15.2634  -44.9050 H         1 UNK         0.0600 
    162 H162        3.1282  -16.7675  -45.2450 H         1 UNK         0.0600 
    163 H163        3.1262  -16.1189  -43.6197 H         1 UNK         0.0600 
    164 H164        0.4872  -15.2471  -43.3420 H         1 UNK         0.3000 
    165 H165       -2.7319  -16.1800  -42.1012 H         1 UNK         0.0600 
    166 H166       -1.9821  -14.5776  -40.3538 H         1 UNK         0.0600 
    167 H167       -1.2079  -16.1409  -40.1465 H         1 UNK         0.0600 
    168 H168       -0.3018  -14.8029  -40.8362 H         1 UNK         0.0600 
    169 H169       -1.4331  -13.6856  -42.7819 H         1 UNK         0.3000 
    170 H170       -2.6124  -13.5174  -46.1229 H         1 UNK         0.0600 
    171 H171       -4.7198  -13.0093  -44.8830 H         1 UNK         0.0600 
    172 H172       -3.8080  -12.0907  -43.6910 H         1 UNK         0.0600 
    173 H173       -3.8876  -11.5403  -45.3655 H         1 UNK         0.0600 
    174 H174       -1.5270  -11.5026  -44.4753 H         1 UNK         0.3000 
    175 H175        1.3761  -11.4453  -45.9579 H         1 UNK         0.0600 
    176 H176        0.0588  -10.5629  -43.3306 H         1 UNK         0.0600 
    177 H177        1.2709   -9.6629  -44.2310 H         1 UNK         0.0600 
    178 H178       -0.3094   -9.9216  -44.9359 H         1 UNK         0.0600 
    179 H179        3.0274  -11.8442  -44.4787 H         1 UNK         0.3000 
    180 H180        3.7155  -12.1674  -41.9003 H         1 UNK         0.0600 
    181 H181        3.0933  -15.1448  -41.5836 H         1 UNK         0.0600 
    182 H182        2.6790  -13.8581  -40.4651 H         1 UNK         0.0600 
    183 H183        4.3630  -14.2680  -40.7314 H         1 UNK         0.0600 
    184 H184        4.8228  -14.4535  -43.3002 H         1 UNK         0.3000 
    185 H185        6.3874  -12.6395  -45.8340 H         1 UNK         0.0600 
    186 H186        7.8370  -11.7076  -44.0754 H         1 UNK         0.0600 
    187 H187        7.8506  -13.2481  -43.2249 H         1 UNK         0.0600 
    188 H188        8.5971  -13.1063  -44.8165 H         1 UNK         0.0600 
    189 H189        6.6989  -15.1297  -44.2403 H         1 UNK         0.3000 
    190 H190       -1.4295  -21.0483  -48.1650 H         1 UNK         0.3000 
    191 H191       -2.0140  -22.6966  -50.3963 H         1 UNK         0.0600 
    192 H192       -3.0299  -20.4779  -50.0544 H         1 UNK         0.0600 
    193 H193       -4.2740  -21.7022  -50.2171 H         1 UNK         0.0600 
    194 H194       -3.8886  -21.0564  -48.6239 H         1 UNK         0.0600 
    195 H195       -2.9658  -23.0135  -46.9296 H         1 UNK         0.3000 
    196 H196       -4.6013  -25.3110  -47.2362 H         1 UNK         0.0600 
    197 H197       -4.2081  -25.5968  -44.7811 H         1 UNK         0.0600 
    198 H198       -4.6214  -23.9389  -45.1892 H         1 UNK         0.0600 
    199 H199       -2.9493  -24.3684  -44.8360 H         1 UNK         0.0600 
    200 H200       -1.0718  -25.0255  -46.6432 H         1 UNK         0.3000 
    201 H201       -0.5280  -27.8222  -46.5232 H         1 UNK         0.0600 
    202 H202        1.0284  -26.0989  -45.6554 H         1 UNK         0.0600 
    203 H203        1.2976  -25.4801  -47.2823 H         1 UNK         0.0600 
    204 H204        1.8354  -27.0994  -46.8542 H         1 UNK         0.0600 
    205 H205       -0.5882  -25.5246  -49.2606 H         1 UNK         0.3000 
    206 H206        0.2667  -27.4181  -51.2579 H         1 UNK         0.0600 
    207 H207        0.6050  -24.9551  -51.4544 H         1 UNK         0.0600 
    208 H208       -0.3272  -25.5639  -52.8129 H         1 UNK         0.0600 
    209 H209       -1.1397  -24.7062  -51.5104 H         1 UNK         0.0600 
    210 H210       -2.7326  -27.0116  -49.6946 H         1 UNK         0.3000 
    211 H211       -4.8087  -27.7124  -49.9240 H         1 UNK         0.0600 
    212 H212       -3.8975  -29.5736  -52.1810 H         1 UNK         0.0600 
    213 H213       -5.3874  -29.6898  -51.2580 H         1 UNK         0.0600 
    214 H214       -3.8461  -29.9624  -50.4618 H         1 UNK         0.0600 
    215 H215       -4.1132  -25.3371  -51.0008 H         1 UNK         0.3000 
    216 H216       -5.9234  -24.9376  -53.3508 H         1 UNK         0.0600 
    217 H217       -4.3591  -23.1489  -54.0581 H         1 UNK         0.0600 
    218 H218       -3.4891  -24.6708  -53.9507 H         1 UNK         0.0600 
    219 H219       -3.3145  -23.4660  -52.6763 H         1 UNK         0.0600 
    220 H220       -6.3743  -24.8996  -50.3679 H         1 UNK         0.3000 
    221 H221       -6.4581  -22.3262  -49.2916 H         1 UNK         0.0600 
    222 H222       -8.2084  -24.7595  -48.6612 H         1 UNK         0.0600 
    223 H223       -6.6362  -24.3913  -47.9515 H         1 UNK         0.0600 
    224 H224       -8.0111  -23.3540  -47.6205 H         1 UNK         0.0600 
    225 H225       -8.6792  -23.7078  -51.6005 H         1 UNK         0.3000 
    226 H226      -10.8827  -21.8905  -51.1933 H         1 UNK         0.0600 
    227 H227      -11.1601  -24.0738  -52.3424 H         1 UNK         0.0600 
    228 H228      -11.6157  -22.7604  -53.4157 H         1 UNK         0.0600 
    229 H229      -10.0659  -23.5655  -53.6296 H         1 UNK         0.0600 
    230 H230       -7.8206  -21.7054  -52.9630 H         1 UNK         0.3000 
    231 H231       -8.5651  -19.1919  -54.3502 H         1 UNK         0.0600 
    232 H232       -7.2720  -20.8970  -55.6191 H         1 UNK         0.0600 
    233 H233       -5.9889  -20.8556  -54.4120 H         1 UNK         0.0600 
    234 H234       -6.3270  -19.4339  -55.3905 H         1 UNK         0.0600 
    235 H235       -6.4700  -20.4697  -51.7780 H         1 UNK         0.3000 
    236 H236       -5.4277  -19.6043  -50.0228 H         1 UNK         0.0600 
    237 H237       -6.4655  -17.7507  -48.8062 H         1 UNK         0.0600 
    238 H238       -7.3401  -17.2337  -50.2418 H         1 UNK         0.0600 
    239 H239       -7.7208  -18.7757  -49.4780 H         1 UNK         0.0600 
    240 H240       -4.3873  -18.9098  -52.7086 H         1 UNK         0.3000 
    241 H241       -2.8689  -17.7351  -53.7867 H         1 UNK         0.0600 
    242 H242       -5.3342  -14.7859  -53.6964 H         1 UNK         0.3800 
    243 H243       -5.6399  -16.4226  -53.1725 H         1 UNK         0.3800 
    244 H244       -1.9112  -16.7739  -51.0473 H         1 UNK         0.0800 
    245 H245       -1.1101  -16.3673  -52.5317 H         1 UNK         0.0800 
    246 H246        0.8614  -17.3409  -53.1285 H         1 UNK         0.0800 
    247 H247        1.3971  -18.9740  -52.8650 H         1 UNK         0.0800 
@<TRIPOS>BOND
     1    1    2 1    
     2    1  127 1    
     3    1  128 1    
     4    1  129 1    
     5    2    3 2    
     6    2    4 am   BACKBONE|DICT|INTERRES
     7    4    5 1    
     8    4  130 1    
     9    5    6 1    
    10    5   65 1    
    11    5  131 1    
    12    6    7 1    
    13    6  132 1    
    14    6  133 1    
    15    7    8 1    
    16    8    9 1    
    17    8  134 1    
    18    8  135 1    
    19    9   10 ar   
    20    9   14 ar   
    21   10   11 ar   
    22   10  136 1    
    23   11   12 ar   
    24   11  126 1    
    25   12   13 ar   
    26   12  137 1    
    27   13   14 ar   
    28   13   15 1    
    29   14  138 1    
    30   15   16 1    
    31   15  139 1    
    32   15  140 1    
    33   16   17 1    
    34   17   18 1    
    35   17  141 1    
    36   17  142 1    
    37   18   19 1    
    38   18   67 1    
    39   18  143 1    
    40   19   20 am   BACKBONE|DICT|INTERRES
    41   19  144 1    
    42   20   21 2    
    43   20   22 1    
    44   22   23 1    
    45   22   24 1    
    46   22  145 1    
    47   23  146 1    
    48   23  147 1    
    49   23  148 1    
    50   24   25 am   BACKBONE|DICT|INTERRES
    51   24  149 1    
    52   25   26 2    
    53   25   27 1    
    54   27   28 1    
    55   27   29 1    
    56   27  150 1    
    57   28  151 1    
    58   28  152 1    
    59   28  153 1    
    60   29   30 am   BACKBONE|DICT|INTERRES
    61   29  154 1    
    62   30   31 2    
    63   30   32 1    
    64   32   33 1    
    65   32   34 1    
    66   32  155 1    
    67   33  156 1    
    68   33  157 1    
    69   33  158 1    
    70   34   35 am   BACKBONE|DICT|INTERRES
    71   34  159 1    
    72   35   36 2    
    73   35   37 1    
    74   37   38 1    
    75   37   39 1    
    76   37  160 1    
    77   38  161 1    
    78   38  162 1    
    79   38  163 1    
    80   39   40 am   BACKBONE|DICT|INTERRES
    81   39  164 1    
    82   40   41 2    
    83   40   42 1    
    84   42   43 1    
    85   42   44 1    
    86   42  165 1    
    87   43  166 1    
    88   43  167 1    
    89   43  168 1    
    90   44   45 am   BACKBONE|DICT|INTERRES
    91   44  169 1    
    92   45   46 2    
    93   45   47 1    
    94   47   48 1    
    95   47   49 1    
    96   47  170 1    
    97   48  171 1    
    98   48  172 1    
    99   48  173 1    
   100   49   50 am   BACKBONE|DICT|INTERRES
   101   49  174 1    
   102   50   51 2    
   103   50   52 1    
   104   52   53 1    
   105   52   54 1    
   106   52  175 1    
   107   53  176 1    
   108   53  177 1    
   109   53  178 1    
   110   54   55 am   BACKBONE|DICT|INTERRES
   111   54  179 1    
   112   55   56 2    
   113   55   57 1    
   114   57   58 1    
   115   57   59 1    
   116   57  180 1    
   117   58  181 1    
   118   58  182 1    
   119   58  183 1    
   120   59   60 am   BACKBONE|DICT|INTERRES
   121   59  184 1    
   122   60   61 2    
   123   60   62 1    
   124   62   63 1    
   125   62   64 1    
   126   62  185 1    
   127   63  186 1    
   128   63  187 1    
   129   63  188 1    
   130   64   65 am   BACKBONE|DICT|INTERRES
   131   64  189 1    
   132   65   66 2    
   133   67   68 2    
   134   67   69 am   BACKBONE|DICT|INTERRES
   135   69   70 1    
   136   69  190 1    
   137   70   71 1    
   138   70   72 1    
   139   70  191 1    
   140   71  192 1    
   141   71  193 1    
   142   71  194 1    
   143   72   73 2    
   144   72   74 am   BACKBONE|DICT|INTERRES
   145   74   75 1    
   146   74  195 1    
   147   75   76 1    
   148   75   77 1    
   149   75  196 1    
   150   76  197 1    
   151   76  198 1    
   152   76  199 1    
   153   77   78 2    
   154   77   79 am   BACKBONE|DICT|INTERRES
   155   79   80 1    
   156   79  200 1    
   157   80   81 1    
   158   80   82 1    
   159   80  201 1    
   160   81  202 1    
   161   81  203 1    
   162   81  204 1    
   163   82   83 2    
   164   82   84 am   BACKBONE|DICT|INTERRES
   165   84   85 1    
   166   84  205 1    
   167   85   86 1    
   168   85   87 1    
   169   85  206 1    
   170   86  207 1    
   171   86  208 1    
   172   86  209 1    
   173   87   88 2    
   174   87   89 am   BACKBONE|DICT|INTERRES
   175   89   90 1    
   176   89  210 1    
   177   90   91 1    
   178   90   92 1    
   179   90  211 1    
   180   91  212 1    
   181   91  213 1    
   182   91  214 1    
   183   92   93 2    
   184   92   94 am   BACKBONE|DICT|INTERRES
   185   94   95 1    
   186   94  215 1    
   187   95   96 1    
   188   95   97 1    
   189   95  216 1    
   190   96  217 1    
   191   96  218 1    
   192   96  219 1    
   193   97   98 2    
   194   97   99 am   BACKBONE|DICT|INTERRES
   195   99  100 1    
   196   99  220 1    
   197  100  101 1    
   198  100  102 1    
   199  100  221 1    
   200  101  222 1    
   201  101  223 1    
   202  101  224 1    
   203  102  103 2    
   204  102  104 am   BACKBONE|DICT|INTERRES
   205  104  105 1    
   206  104  225 1    
   207  105  106 1    
   208  105  107 1    
   209  105  226 1    
   210  106  227 1    
   211  106  228 1    
   212  106  229 1    
   213  107  108 2    
   214  107  109 am   BACKBONE|DICT|INTERRES
   215  109  110 1    
   216  109  230 1    
   217  110  111 1    
   218  110  112 1    
   219  110  231 1    
   220  111  232 1    
   221  111  233 1    
   222  111  234 1    
   223  112  113 2    
   224  112  114 am   BACKBONE|DICT|INTERRES
   225  114  115 1    
   226  114  235 1    
   227  115  116 1    
   228  115  117 1    
   229  115  236 1    
   230  116  237 1    
   231  116  238 1    
   232  116  239 1    
   233  117  118 2    
   234  117  119 am   BACKBONE|DICT|INTERRES
   235  119  120 1    
   236  119  240 1    
   237  120  121 1    
   238  120  124 1    
   239  120  241 1    
   240  121  122 am   BACKBONE|DICT|INTERRES
   241  121  123 2    
   242  122  242 1    
   243  122  243 1    
   244  124  125 1    
   245  124  244 1    
   246  124  245 1    
   247  125  126 1    
   248  126  246 1    
   249  126  247 1    
@<TRIPOS>SUBSTRUCTURE
     1 UNK         1 GROUP             0       ****    0 ROOT    
