@<TRIPOS>MOLECULE
3R540
247   249    1
SMALL
USER_CHARGES


@<TRIPOS>ATOM
      1 CA         -4.5558  -15.6514  -46.8377 C.3       0 UNK        -0.1800 
      2 C          -3.3225  -15.8093  -47.7127 C.2       0 UNK         0.5000 
      3 O          -2.6051  -16.7986  -47.5885 O.2       0 UNK        -0.5000 
      4 N          -3.0678  -14.8158  -48.5735 N.am      1 UNK        -0.5000 
      5 CA         -1.9758  -14.7033  -49.5559 C.3       1 UNK         0.1400 
      6 C6         -2.0411  -15.7659  -50.6957 C.3       23 UNK        -0.0398 
      7 S7         -0.9651  -17.2391  -50.5539 S.3       23 UNK        -0.2404 
      8 C8          0.1995  -16.9306  -51.9156 C.3       23 UNK        -0.0205 
      9 C9          1.2136  -18.0542  -52.0421 C.ar      23 UNK        -0.0193 
     10 C10         0.9972  -19.1034  -52.9390 C.ar      23 UNK        -0.1150 
     11 C11         1.9295  -20.1378  -53.0577 C.ar      23 UNK        -0.0193 
     12 C12         3.0871  -20.1171  -52.2723 C.ar      23 UNK        -0.1150 
     13 C13         3.3143  -19.0716  -51.3719 C.ar      23 UNK        -0.0193 
     14 C14         2.3755  -18.0402  -51.2670 C.ar      23 UNK        -0.1150 
     15 C15         4.5750  -19.0431  -50.5156 C.3       23 UNK        -0.0205 
     16 S16         4.6051  -20.3344  -49.2252 S.3       23 UNK        -0.2404 
     17 C17         3.0441  -20.0423  -48.3277 C.3       23 UNK        -0.0398 
     18 CA          2.2367  -21.3578  -48.1747 C.3       11 UNK         0.1400 
     19 N           2.5973  -22.0736  -46.9484 N.am      11 UNK        -0.5000 
     20 C           2.0931  -23.2488  -46.5431 C.2       10 UNK         0.5000 
     21 O           1.3205  -23.9339  -47.2119 O.2       10 UNK        -0.5000 
     22 CA          2.4759  -23.7064  -45.1226 C.3       10 UNK         0.1400 
     23 CB          3.6882  -24.6477  -45.1675 C.3       10 UNK        -0.1800 
     24 N           2.7648  -22.5842  -44.2241 N.am      10 UNK        -0.5000 
     25 C           1.8639  -21.6763  -43.8235 C.2       9 UNK         0.5000 
     26 O           0.6717  -21.7048  -44.1379 O.2       9 UNK        -0.5000 
     27 CA          2.4164  -20.4922  -43.0103 C.3       9 UNK         0.1400 
     28 CB          2.4694  -19.2329  -43.8917 C.3       9 UNK        -0.1800 
     29 N           1.6477  -20.2039  -41.7991 N.am      9 UNK        -0.5000 
     30 C           1.4977  -21.0442  -40.7654 C.2       8 UNK         0.5000 
     31 O           1.9563  -22.1877  -40.7504 O.2       8 UNK        -0.5000 
     32 CA          0.7505  -20.5356  -39.5190 C.3       8 UNK         0.1400 
     33 CB          1.7505  -20.0297  -38.4660 C.3       8 UNK        -0.1800 
     34 N          -0.2148  -19.4696  -39.8021 N.am      8 UNK        -0.5000 
     35 C          -1.4679  -19.4373  -39.3219 C.2       7 UNK         0.5000 
     36 O          -1.9581  -20.3365  -38.6370 O.2       7 UNK        -0.5000 
     37 CA         -2.3284  -18.1913  -39.6267 C.3       7 UNK         0.1400 
     38 CB         -2.3614  -17.2538  -38.4095 C.3       7 UNK        -0.1800 
     39 N          -1.8711  -17.4306  -40.7873 N.am      7 UNK        -0.5000 
     40 C          -1.9451  -17.8521  -42.0554 C.2       6 UNK         0.5000 
     41 O          -2.5183  -18.8871  -42.3945 O.2       6 UNK        -0.5000 
     42 CA         -1.2347  -16.9970  -43.1237 C.3       6 UNK         0.1400 
     43 CB         -2.2626  -16.2771  -44.0095 C.3       6 UNK        -0.1800 
     44 N          -0.2582  -16.0240  -42.6139 N.am      6 UNK        -0.5000 
     45 C           0.8491  -16.3337  -41.9189 C.2       5 UNK         0.5000 
     46 O           1.0962  -17.4751  -41.5296 O.2       5 UNK        -0.5000 
     47 CA          1.8483  -15.2100  -41.5861 C.3       5 UNK         0.1400 
     48 CB          3.1320  -15.3739  -42.4134 C.3       5 UNK        -0.1800 
     49 N           1.3069  -13.8694  -41.8018 N.am      5 UNK        -0.5000 
     50 C           0.4748  -13.2462  -40.9556 C.2       4 UNK         0.5000 
     51 O           0.0992  -13.7349  -39.8893 O.2       4 UNK        -0.5000 
     52 CA         -0.0427  -11.8540  -41.3726 C.3       4 UNK         0.1400 
     53 CB          0.7723  -10.7501  -40.6816 C.3       4 UNK        -0.1800 
     54 N          -0.0343  -11.6151  -42.8195 N.am      4 UNK        -0.5000 
     55 C          -0.7374  -12.3158  -43.7191 C.2       3 UNK         0.5000 
     56 O          -1.4588  -13.2668  -43.4171 O.2       3 UNK        -0.5000 
     57 CA         -0.6150  -11.9139  -45.2026 C.3       3 UNK         0.1400 
     58 CB          0.3611  -10.7461  -45.4730 C.3       3 UNK        -0.1800 
     59 N          -0.2862  -13.0685  -46.0428 N.am      3 UNK        -0.5000 
     60 C           0.8087  -13.8423  -45.9785 C.2       2 UNK         0.5000 
     61 O           1.7142  -13.6690  -45.1615 O.2       2 UNK        -0.5000 
     62 CA          0.9106  -15.0109  -46.9858 C.3       2 UNK         0.1400 
     63 CB          1.1925  -16.3433  -46.2708 C.3       2 UNK        -0.1800 
     64 N          -0.2944  -15.1633  -47.8059 N.am      2 UNK        -0.5000 
     65 C          -0.5752  -14.4897  -48.9284 C.2       1 UNK         0.5000 
     66 O           0.1964  -13.6777  -49.4399 O.2       1 UNK        -0.5000 
     67 C           0.7226  -21.0910  -48.2506 C.2       11 UNK         0.5000 
     68 O           0.1057  -21.4455  -49.2502 O.2       11 UNK        -0.5000 
     69 N           0.1441  -20.5317  -47.1778 N.am      12 UNK        -0.5000 
     70 CA         -1.2878  -20.2401  -47.0849 C.3       12 UNK         0.1400 
     71 CB         -1.5563  -19.3874  -45.8416 C.3       12 UNK        -0.1800 
     72 C          -2.1591  -21.5080  -47.0694 C.2       12 UNK         0.5000 
     73 O          -3.2457  -21.5035  -47.6490 O.2       12 UNK        -0.5000 
     74 N          -1.6584  -22.5761  -46.4324 N.am      13 UNK        -0.5000 
     75 CA         -2.3022  -23.8887  -46.3968 C.3       13 UNK         0.1400 
     76 CB         -1.5978  -24.7872  -45.3688 C.3       13 UNK        -0.1800 
     77 C          -2.3449  -24.5524  -47.7858 C.2       13 UNK         0.5000 
     78 O          -3.4049  -25.0252  -48.1966 O.2       13 UNK        -0.5000 
     79 N          -1.2088  -24.5380  -48.4981 N.am      14 UNK        -0.5000 
     80 CA         -1.0768  -25.0379  -49.8690 C.3       14 UNK         0.1400 
     81 CB          0.4094  -25.0735  -50.2568 C.3       14 UNK        -0.1800 
     82 C          -1.8794  -24.2033  -50.8831 C.2       14 UNK         0.5000 
     83 O          -2.5014  -24.7629  -51.7872 O.2       14 UNK        -0.5000 
     84 N          -1.8677  -22.8783  -50.7011 N.am      15 UNK        -0.5000 
     85 CA         -2.5900  -21.9099  -51.5193 C.3       15 UNK         0.1400 
     86 CB         -2.1016  -20.5026  -51.1629 C.3       15 UNK        -0.1800 
     87 C          -4.1169  -21.9730  -51.3637 C.2       15 UNK         0.5000 
     88 O          -4.8142  -21.4751  -52.2461 O.2       15 UNK        -0.5000 
     89 N          -4.5990  -22.5509  -50.2534 N.am      16 UNK        -0.5000 
     90 CA         -5.9858  -22.5195  -49.7820 C.3       16 UNK         0.1400 
     91 CB         -6.9226  -23.2946  -50.7323 C.3       16 UNK        -0.1800 
     92 C          -6.4298  -21.0671  -49.5132 C.2       16 UNK         0.5000 
     93 O          -7.4602  -20.6156  -50.0176 O.2       16 UNK        -0.5000 
     94 N          -5.5918  -20.3568  -48.7446 N.am      17 UNK        -0.5000 
     95 CA         -5.6510  -18.9281  -48.4481 C.3       17 UNK         0.1400 
     96 CB         -6.8821  -18.6010  -47.5714 C.3       17 UNK        -0.1800 
     97 C          -5.5307  -18.0848  -49.7352 C.2       17 UNK         0.5000 
     98 O          -4.6169  -18.3138  -50.5274 O.2       17 UNK        -0.5000 
     99 N          -6.4444  -17.1258  -49.9286 N.am      18 UNK        -0.5000 
    100 CA        -6.4512  -16.1597  -51.0302 C.3       18 UNK         0.1400 
    101 CB        -7.5055  -15.0844  -50.7223 C.3       18 UNK        -0.1800 
    102 C         -6.6732  -16.7564  -52.4381 C.2       18 UNK         0.5000 
    103 O         -6.5316  -16.0251  -53.4192 O.2       18 UNK        -0.5000 
    104 N         -7.0209  -18.0486  -52.5304 N.am      19 UNK        -0.5000 
    105 CA        -7.2375  -18.7654  -53.7895 C.3       19 UNK         0.1400 
    106 CB        -7.8886  -20.1239  -53.4923 C.3       19 UNK        -0.1800 
    107 C         -5.9618  -18.9424  -54.6400 C.2       19 UNK         0.5000 
    108 O         -6.0756  -19.0368  -55.8630 O.2       19 UNK        -0.5000 
    109 N         -4.7856  -18.9666  -53.9908 N.am      20 UNK        -0.5000 
    110 CA        -3.4490  -19.0854  -54.5903 C.3       20 UNK         0.1400 
    111 CB        -3.0904  -17.7988  -55.3626 C.3       20 UNK        -0.1800 
    112 C         -3.2616  -20.3726  -55.4261 C.2       20 UNK         0.5000 
    113 O         -2.6873  -20.3206  -56.5146 O.2       20 UNK        -0.5000 
    114 N         -3.7785  -21.4957  -54.9072 N.am      21 UNK        -0.5000 
    115 CA        -3.7678  -22.8177  -55.5338 C.3       21 UNK         0.1400 
    116 CB        -4.7316  -23.7466  -54.7711 C.3       21 UNK        -0.1800 
    117 C         -2.3493  -23.4116  -55.6700 C.2       21 UNK         0.5000 
    118 O         -1.7424  -23.2829  -56.7338 O.2       21 UNK        -0.5000 
    119 N         -1.8596  -24.0768  -54.6129 N.am      22 UNK        -0.5000 
    120 CA        -0.5564  -24.7700  -54.5504 C.3       22 UNK         0.1400 
    121 C         -0.4215  -25.9997  -55.5030 C.2       22 UNK         0.5000 
    122 N         -1.5114  -26.5818  -55.9889 N.am      22 UNK        -0.7600 
    123 O          0.6820  -26.4602  -55.7839 O.2       22 UNK        -0.5000 
    124 C124        0.6604  -23.8053  -54.6362 C.3       23 UNK        -0.0398 
    125 S125        0.6790  -22.5824  -53.2843 S.3       23 UNK        -0.2404 
    126 C126        1.6850  -21.2725  -54.0384 C.3       23 UNK        -0.0205 
    127 H127       -5.4208  -15.3608  -47.4341 H         1 UNK         0.0600 
    128 H128       -4.7887  -16.5873  -46.3301 H         1 UNK         0.0600 
    129 H129       -4.3837  -14.8893  -46.0776 H         1 UNK         0.0600 
    130 H130       -3.6987  -14.0262  -48.5731 H         1 UNK         0.3000 
    131 H131       -2.1980  -13.7499  -50.0388 H         1 UNK         0.0600 
    132 H132       -3.0645  -16.1194  -50.8187 H         1 UNK         0.0800 
    133 H133       -1.8099  -15.2708  -51.6396 H         1 UNK         0.0800 
    134 H134        0.7137  -15.9832  -51.7457 H         1 UNK         0.0800 
    135 H135       -0.3544  -16.8219  -52.8495 H         1 UNK         0.0800 
    136 H136        0.0983  -19.1210  -53.5391 H         1 UNK         0.1150 
    137 H137        3.8091  -20.9173  -52.3556 H         1 UNK         0.1150 
    138 H138        2.5412  -17.2277  -50.5733 H         1 UNK         0.1150 
    139 H139        5.4456  -19.1710  -51.1603 H         1 UNK         0.0800 
    140 H140        4.6932  -18.0689  -50.0384 H         1 UNK         0.0800 
    141 H141        2.4689  -19.2785  -48.8505 H         1 UNK         0.0800 
    142 H142        3.2731  -19.6020  -47.3564 H         1 UNK         0.0800 
    143 H143        2.4662  -22.0194  -49.0135 H         1 UNK         0.0600 
    144 H144        3.2503  -21.6091  -46.3364 H         1 UNK         0.3000 
    145 H145        1.6277  -24.2579  -44.7120 H         1 UNK         0.0600 
    146 H146        3.9243  -25.0347  -44.1761 H         1 UNK         0.0600 
    147 H147        3.4911  -25.5061  -45.8114 H         1 UNK         0.0600 
    148 H148        4.5759  -24.1449  -45.5534 H         1 UNK         0.0600 
    149 H149        3.7225  -22.4931  -43.9164 H         1 UNK         0.3000 
    150 H150        3.4357  -20.7280  -42.6975 H         1 UNK         0.0600 
    151 H151        3.0374  -19.4129  -44.8049 H         1 UNK         0.0600 
    152 H152        2.9557  -18.4087  -43.3710 H         1 UNK         0.0600 
    153 H153        1.4717  -18.9029  -44.1833 H         1 UNK         0.0600 
    154 H154        1.2964  -19.2540  -41.7201 H         1 UNK         0.3000 
    155 H155        0.2374  -21.4057  -39.1044 H         1 UNK         0.0600 
    156 H156        2.2904  -19.1496  -38.8179 H         1 UNK         0.0600 
    157 H157        2.4889  -20.7954  -38.2243 H         1 UNK         0.0600 
    158 H158        1.2439  -19.7634  -37.5382 H         1 UNK         0.0600 
    159 H159        0.1173  -18.6913  -40.3623 H         1 UNK         0.3000 
    160 H160       -3.3464  -18.5348  -39.8223 H         1 UNK         0.0600 
    161 H161       -1.3698  -16.8636  -38.1760 H         1 UNK         0.0600 
    162 H162       -2.7265  -17.7749  -37.5234 H         1 UNK         0.0600 
    163 H163       -3.0242  -16.4057  -38.5820 H         1 UNK         0.0600 
    164 H164       -1.3830  -16.5663  -40.6018 H         1 UNK         0.3000 
    165 H165       -0.6764  -17.6964  -43.7449 H         1 UNK         0.0600 
    166 H166       -1.7792  -15.7277  -44.8171 H         1 UNK         0.0600 
    167 H167       -2.9501  -16.9875  -44.4695 H         1 UNK         0.0600 
    168 H168       -2.8613  -15.5709  -43.4336 H         1 UNK         0.0600 
    169 H169       -0.4287  -15.0543  -42.8556 H         1 UNK         0.3000 
    170 H170        2.1146  -15.3141  -40.5321 H         1 UNK         0.0600 
    171 H171        3.6171  -16.3258  -42.1945 H         1 UNK         0.0600 
    172 H172        2.9294  -15.3489  -43.4841 H         1 UNK         0.0600 
    173 H173        3.8514  -14.5863  -42.1886 H         1 UNK         0.0600 
    174 H174        1.5455  -13.4186  -42.6756 H         1 UNK         0.3000 
    175 H175       -1.0773  -11.7792  -41.0315 H         1 UNK         0.0600 
    176 H176        1.8137  -10.7569  -41.0058 H         1 UNK         0.0600 
    177 H177        0.3600   -9.7632  -40.8928 H         1 UNK         0.0600 
    178 H178        0.7649  -10.8780  -39.5982 H         1 UNK         0.0600 
    179 H179        0.5500  -10.8601  -43.1482 H         1 UNK         0.3000 
    180 H180       -1.6101  -11.5869  -45.5071 H         1 UNK         0.0600 
    181 H181        1.3816  -10.9798  -45.1675 H         1 UNK         0.0600 
    182 H182        0.0522   -9.8421  -44.9467 H         1 UNK         0.0600 
    183 H183        0.3859  -10.5009  -46.5348 H         1 UNK         0.0600 
    184 H184       -0.9859  -13.3255  -46.7224 H         1 UNK         0.3000 
    185 H185        1.7573  -14.7969  -47.6409 H         1 UNK         0.0600 
    186 H186        0.4169  -16.5761  -45.5442 H         1 UNK         0.0600 
    187 H187        1.2490  -17.1700  -46.9796 H         1 UNK         0.0600 
    188 H188        2.1420  -16.3100  -45.7354 H         1 UNK         0.0600 
    189 H189       -0.9867  -15.8410  -47.4951 H         1 UNK         0.3000 
    190 H190        0.6994  -20.3386  -46.3582 H         1 UNK         0.3000 
    191 H191       -1.5707  -19.6498  -47.9590 H         1 UNK         0.0600 
    192 H192       -2.6194  -19.1635  -45.7437 H         1 UNK         0.0600 
    193 H193       -1.0341  -18.4353  -45.9149 H         1 UNK         0.0600 
    194 H194       -1.2380  -19.8866  -44.9258 H         1 UNK         0.0600 
    195 H195       -0.7651  -22.4862  -45.9674 H         1 UNK         0.3000 
    196 H196       -3.3325  -23.7442  -46.0647 H         1 UNK         0.0600 
    197 H197       -2.1137  -25.7433  -45.2726 H         1 UNK         0.0600 
    198 H198       -1.5842  -24.3235  -44.3822 H         1 UNK         0.0600 
    199 H199       -0.5678  -25.0010  -45.6524 H         1 UNK         0.0600 
    200 H200       -0.3677  -24.1544  -48.0739 H         1 UNK         0.3000 
    201 H201       -1.4631  -26.0587  -49.8963 H         1 UNK         0.0600 
    202 H202        0.9776  -25.7145  -49.5825 H         1 UNK         0.0600 
    203 H203        0.8561  -24.0785  -50.2262 H         1 UNK         0.0600 
    204 H204        0.5426  -25.4619  -51.2669 H         1 UNK         0.0600 
    205 H205       -1.2552  -22.4855  -49.9895 H         1 UNK         0.3000 
    206 H206       -2.3504  -22.1012  -52.5655 H         1 UNK         0.0600 
    207 H207       -1.0501  -20.3721  -51.4160 H         1 UNK         0.0600 
    208 H208       -2.6634  -19.7335  -51.6868 H         1 UNK         0.0600 
    209 H209       -2.2219  -20.2976  -50.1001 H         1 UNK         0.0600 
    210 H210       -3.9243  -22.9124  -49.5921 H         1 UNK         0.3000 
    211 H211       -5.9956  -23.0316  -48.8188 H         1 UNK         0.0600 
    212 H212       -6.9960  -22.8264  -51.7133 H         1 UNK         0.0600 
    213 H213       -7.9315  -23.3484  -50.3222 H         1 UNK         0.0600 
    214 H214       -6.5745  -24.3173  -50.8767 H         1 UNK         0.0600 
    215 H215       -4.7490  -20.8230  -48.4118 H         1 UNK         0.3000 
    216 H216       -4.7581  -18.7080  -47.8613 H         1 UNK         0.0600 
    217 H217       -6.8791  -17.5598  -47.2489 H         1 UNK         0.0600 
    218 H218       -6.8849  -19.2109  -46.6678 H         1 UNK         0.0600 
    219 H219       -7.8220  -18.7844  -48.0929 H         1 UNK         0.0600 
    220 H220       -7.1880  -17.0330  -49.2523 H         1 UNK         0.3000 
    221 H221       -5.4732  -15.6752  -51.0472 H         1 UNK         0.0600 
    222 H222       -8.5087  -15.5095  -50.6727 H         1 UNK         0.0600 
    223 H223       -7.3011  -14.5909  -49.7719 H         1 UNK         0.0600 
    224 H224       -7.5150  -14.3101  -51.4906 H         1 UNK         0.0600 
    225 H225       -7.1019  -18.5900  -51.6804 H         1 UNK         0.3000 
    226 H226       -7.9419  -18.1812  -54.3853 H         1 UNK         0.0600 
    227 H227       -7.2532  -20.7406  -52.8584 H         1 UNK         0.0600 
    228 H228       -8.8457  -20.0014  -52.9854 H         1 UNK         0.0600 
    229 H229       -8.0745  -20.6807  -54.4116 H         1 UNK         0.0600 
    230 H230       -4.8126  -18.9276  -52.9791 H         1 UNK         0.3000 
    231 H231       -2.7388  -19.1600  -53.7702 H         1 UNK         0.0600 
    232 H232       -2.0546  -17.8225  -55.7031 H         1 UNK         0.0600 
    233 H233       -3.2024  -16.9176  -54.7306 H         1 UNK         0.0600 
    234 H234       -3.7217  -17.6638  -56.2412 H         1 UNK         0.0600 
    235 H235       -4.2510  -21.4298  -54.0080 H         1 UNK         0.3000 
    236 H236       -4.1624  -22.7022  -56.5454 H         1 UNK         0.0600 
    237 H237       -4.7534  -24.7410  -55.2185 H         1 UNK         0.0600 
    238 H238       -4.4546  -23.8624  -53.7232 H         1 UNK         0.0600 
    239 H239       -5.7500  -23.3582  -54.7984 H         1 UNK         0.0600 
    240 H240       -2.4188  -24.1649  -53.7720 H         1 UNK         0.3000 
    241 H241       -0.5227  -25.2196  -53.5585 H         1 UNK         0.0600 
    242 H242       -1.4176  -27.3820  -56.5948 H         1 UNK         0.3800 
    243 H243       -2.4272  -26.2336  -55.7565 H         1 UNK         0.3800 
    244 H244        1.5989  -24.3581  -54.5734 H         1 UNK         0.0800 
    245 H245        0.6736  -23.2921  -55.5984 H         1 UNK         0.0800 
    246 H246        2.6353  -21.6910  -54.3735 H         1 UNK         0.0800 
    247 H247        1.1801  -20.8937  -54.9286 H         1 UNK         0.0800 
@<TRIPOS>BOND
     1    1    2 1    
     2    1  127 1    
     3    1  128 1    
     4    1  129 1    
     5    2    3 2    
     6    2    4 am   BACKBONE|DICT|INTERRES
     7    4    5 1    
     8    4  130 1    
     9    5    6 1    
    10    5   65 1    
    11    5  131 1    
    12    6    7 1    
    13    6  132 1    
    14    6  133 1    
    15    7    8 1    
    16    8    9 1    
    17    8  134 1    
    18    8  135 1    
    19    9   10 ar   
    20    9   14 ar   
    21   10   11 ar   
    22   10  136 1    
    23   11   12 ar   
    24   11  126 1    
    25   12   13 ar   
    26   12  137 1    
    27   13   14 ar   
    28   13   15 1    
    29   14  138 1    
    30   15   16 1    
    31   15  139 1    
    32   15  140 1    
    33   16   17 1    
    34   17   18 1    
    35   17  141 1    
    36   17  142 1    
    37   18   19 1    
    38   18   67 1    
    39   18  143 1    
    40   19   20 am   BACKBONE|DICT|INTERRES
    41   19  144 1    
    42   20   21 2    
    43   20   22 1    
    44   22   23 1    
    45   22   24 1    
    46   22  145 1    
    47   23  146 1    
    48   23  147 1    
    49   23  148 1    
    50   24   25 am   BACKBONE|DICT|INTERRES
    51   24  149 1    
    52   25   26 2    
    53   25   27 1    
    54   27   28 1    
    55   27   29 1    
    56   27  150 1    
    57   28  151 1    
    58   28  152 1    
    59   28  153 1    
    60   29   30 am   BACKBONE|DICT|INTERRES
    61   29  154 1    
    62   30   31 2    
    63   30   32 1    
    64   32   33 1    
    65   32   34 1    
    66   32  155 1    
    67   33  156 1    
    68   33  157 1    
    69   33  158 1    
    70   34   35 am   BACKBONE|DICT|INTERRES
    71   34  159 1    
    72   35   36 2    
    73   35   37 1    
    74   37   38 1    
    75   37   39 1    
    76   37  160 1    
    77   38  161 1    
    78   38  162 1    
    79   38  163 1    
    80   39   40 am   BACKBONE|DICT|INTERRES
    81   39  164 1    
    82   40   41 2    
    83   40   42 1    
    84   42   43 1    
    85   42   44 1    
    86   42  165 1    
    87   43  166 1    
    88   43  167 1    
    89   43  168 1    
    90   44   45 am   BACKBONE|DICT|INTERRES
    91   44  169 1    
    92   45   46 2    
    93   45   47 1    
    94   47   48 1    
    95   47   49 1    
    96   47  170 1    
    97   48  171 1    
    98   48  172 1    
    99   48  173 1    
   100   49   50 am   BACKBONE|DICT|INTERRES
   101   49  174 1    
   102   50   51 2    
   103   50   52 1    
   104   52   53 1    
   105   52   54 1    
   106   52  175 1    
   107   53  176 1    
   108   53  177 1    
   109   53  178 1    
   110   54   55 am   BACKBONE|DICT|INTERRES
   111   54  179 1    
   112   55   56 2    
   113   55   57 1    
   114   57   58 1    
   115   57   59 1    
   116   57  180 1    
   117   58  181 1    
   118   58  182 1    
   119   58  183 1    
   120   59   60 am   BACKBONE|DICT|INTERRES
   121   59  184 1    
   122   60   61 2    
   123   60   62 1    
   124   62   63 1    
   125   62   64 1    
   126   62  185 1    
   127   63  186 1    
   128   63  187 1    
   129   63  188 1    
   130   64   65 am   BACKBONE|DICT|INTERRES
   131   64  189 1    
   132   65   66 2    
   133   67   68 2    
   134   67   69 am   BACKBONE|DICT|INTERRES
   135   69   70 1    
   136   69  190 1    
   137   70   71 1    
   138   70   72 1    
   139   70  191 1    
   140   71  192 1    
   141   71  193 1    
   142   71  194 1    
   143   72   73 2    
   144   72   74 am   BACKBONE|DICT|INTERRES
   145   74   75 1    
   146   74  195 1    
   147   75   76 1    
   148   75   77 1    
   149   75  196 1    
   150   76  197 1    
   151   76  198 1    
   152   76  199 1    
   153   77   78 2    
   154   77   79 am   BACKBONE|DICT|INTERRES
   155   79   80 1    
   156   79  200 1    
   157   80   81 1    
   158   80   82 1    
   159   80  201 1    
   160   81  202 1    
   161   81  203 1    
   162   81  204 1    
   163   82   83 2    
   164   82   84 am   BACKBONE|DICT|INTERRES
   165   84   85 1    
   166   84  205 1    
   167   85   86 1    
   168   85   87 1    
   169   85  206 1    
   170   86  207 1    
   171   86  208 1    
   172   86  209 1    
   173   87   88 2    
   174   87   89 am   BACKBONE|DICT|INTERRES
   175   89   90 1    
   176   89  210 1    
   177   90   91 1    
   178   90   92 1    
   179   90  211 1    
   180   91  212 1    
   181   91  213 1    
   182   91  214 1    
   183   92   93 2    
   184   92   94 am   BACKBONE|DICT|INTERRES
   185   94   95 1    
   186   94  215 1    
   187   95   96 1    
   188   95   97 1    
   189   95  216 1    
   190   96  217 1    
   191   96  218 1    
   192   96  219 1    
   193   97   98 2    
   194   97   99 am   BACKBONE|DICT|INTERRES
   195   99  100 1    
   196   99  220 1    
   197  100  101 1    
   198  100  102 1    
   199  100  221 1    
   200  101  222 1    
   201  101  223 1    
   202  101  224 1    
   203  102  103 2    
   204  102  104 am   BACKBONE|DICT|INTERRES
   205  104  105 1    
   206  104  225 1    
   207  105  106 1    
   208  105  107 1    
   209  105  226 1    
   210  106  227 1    
   211  106  228 1    
   212  106  229 1    
   213  107  108 2    
   214  107  109 am   BACKBONE|DICT|INTERRES
   215  109  110 1    
   216  109  230 1    
   217  110  111 1    
   218  110  112 1    
   219  110  231 1    
   220  111  232 1    
   221  111  233 1    
   222  111  234 1    
   223  112  113 2    
   224  112  114 am   BACKBONE|DICT|INTERRES
   225  114  115 1    
   226  114  235 1    
   227  115  116 1    
   228  115  117 1    
   229  115  236 1    
   230  116  237 1    
   231  116  238 1    
   232  116  239 1    
   233  117  118 2    
   234  117  119 am   BACKBONE|DICT|INTERRES
   235  119  120 1    
   236  119  240 1    
   237  120  121 1    
   238  120  124 1    
   239  120  241 1    
   240  121  122 am   BACKBONE|DICT|INTERRES
   241  121  123 2    
   242  122  242 1    
   243  122  243 1    
   244  124  125 1    
   245  124  244 1    
   246  124  245 1    
   247  125  126 1    
   248  126  246 1    
   249  126  247 1    
@<TRIPOS>SUBSTRUCTURE
     1 UNK         1 GROUP             0       ****    0 ROOT    
