@<TRIPOS>MOLECULE
3R540
247   249    1
SMALL
USER_CHARGES


@<TRIPOS>ATOM
      1 CA         -1.7477  -10.1770  -52.5630 C.3       0 UNK        -0.1800 
      2 C          -0.5127  -11.0220  -52.2846 C.2       0 UNK         0.5000 
      3 O           0.4373  -10.9952  -53.0670 O.2       0 UNK        -0.5000 
      4 N          -0.5236  -11.7665  -51.1720 N.am      1 UNK        -0.5000 
      5 CA          0.5744  -12.6358  -50.7293 C.3       1 UNK         0.1400 
      6 C6          0.0963  -13.7044  -49.7138 C.3       23 UNK        -0.0398 
      7 S7         -0.7091  -13.0255  -48.2176 S.3       23 UNK        -0.2404 
      8 C8         -2.4769  -13.3198  -48.5515 C.3       23 UNK        -0.0205 
      9 C9         -2.8393  -14.7963  -48.4942 C.ar      23 UNK        -0.0193 
     10 C10        -3.0509  -15.5188  -49.6729 C.ar      23 UNK        -0.1150 
     11 C11        -3.3798  -16.8762  -49.6233 C.ar      23 UNK        -0.0193 
     12 C12        -3.5102  -17.5076  -48.3842 C.ar      23 UNK        -0.1150 
     13 C13        -3.2970  -16.7972  -47.2008 C.ar      23 UNK        -0.0193 
     14 C14        -2.9687  -15.4400  -47.2599 C.ar      23 UNK        -0.1150 
     15 C15        -3.3834  -17.5120  -45.8654 C.3       23 UNK        -0.0205 
     16 S16        -1.7331  -18.0831  -45.3667 S.3       23 UNK        -0.2404 
     17 C17        -2.1335  -19.5791  -44.4065 C.3       23 UNK        -0.0398 
     18 CA         -2.2384  -20.8288  -45.3134 C.3       11 UNK         0.1400 
     19 N          -1.0445  -21.0449  -46.1337 N.am      11 UNK        -0.5000 
     20 C          -1.0022  -21.8001  -47.2385 C.2       10 UNK         0.5000 
     21 O          -1.9721  -22.4042  -47.6959 O.2       10 UNK        -0.5000 
     22 CA          0.3624  -21.9255  -47.9367 C.3       10 UNK         0.1400 
     23 CB          0.5539  -20.7847  -48.9447 C.3       10 UNK        -0.1800 
     24 N           1.4807  -21.9473  -46.9911 N.am      10 UNK        -0.5000 
     25 C           1.7098  -22.9525  -46.1342 C.2       9 UNK         0.5000 
     26 O           1.0084  -23.9601  -46.0623 O.2       9 UNK        -0.5000 
     27 CA          2.8924  -22.7872  -45.1652 C.3       9 UNK         0.1400 
     28 CB          4.2119  -23.1717  -45.8511 C.3       9 UNK        -0.1800 
     29 N           3.0125  -21.4428  -44.5947 N.am      9 UNK        -0.5000 
     30 C           2.0772  -20.8406  -43.8488 C.2       8 UNK         0.5000 
     31 O           0.9481  -21.2989  -43.6568 O.2       8 UNK        -0.5000 
     32 CA          2.4639  -19.4917  -43.2213 C.3       8 UNK         0.1400 
     33 CB          1.8476  -18.3280  -44.0065 C.3       8 UNK        -0.1800 
     34 N           2.0197  -19.4291  -41.8300 N.am      8 UNK        -0.5000 
     35 C           2.6130  -20.0883  -40.8242 C.2       7 UNK         0.5000 
     36 O           3.6410  -20.7530  -40.9706 O.2       7 UNK        -0.5000 
     37 CA          1.9476  -20.0133  -39.4310 C.3       7 UNK         0.1400 
     38 CB          2.9643  -20.1411  -38.2766 C.3       7 UNK        -0.1800 
     39 N           1.0851  -18.8420  -39.2383 N.am      7 UNK        -0.5000 
     40 C           1.4457  -17.5509  -39.2513 C.2       6 UNK         0.5000 
     41 O           2.5984  -17.1481  -39.4186 O.2       6 UNK        -0.5000 
     42 CA          0.2985  -16.5377  -39.0768 C.3       6 UNK         0.1400 
     43 CB          0.6586  -15.4537  -38.0470 C.3       6 UNK        -0.1800 
     44 N          -0.0700  -15.8895  -40.3350 N.am      6 UNK        -0.5000 
     45 C          -0.4666  -16.4977  -41.4628 C.2       5 UNK         0.5000 
     46 O          -0.5630  -17.7196  -41.5873 O.2       5 UNK        -0.5000 
     47 CA         -0.8428  -15.5857  -42.6473 C.3       5 UNK         0.1400 
     48 CB         -2.3706  -15.4843  -42.7742 C.3       5 UNK        -0.1800 
     49 N          -0.2887  -14.2327  -42.5409 N.am      5 UNK        -0.5000 
     50 C           0.9872  -13.9212  -42.7965 C.2       4 UNK         0.5000 
     51 O           1.8389  -14.7426  -43.1421 O.2       4 UNK        -0.5000 
     52 CA          1.3876  -12.4479  -42.6029 C.3       4 UNK         0.1400 
     53 CB          2.0289  -12.2425  -41.2213 C.3       4 UNK        -0.1800 
     54 N           2.3338  -12.0362  -43.6385 N.am      4 UNK        -0.5000 
     55 C           1.9876  -11.7812  -44.9052 C.2       3 UNK         0.5000 
     56 O           0.8192  -11.7280  -45.2987 O.2       3 UNK        -0.5000 
     57 CA          3.1402  -11.5657  -45.8956 C.3       3 UNK         0.1400 
     58 CB          3.8222  -12.9004  -46.2494 C.3       3 UNK        -0.1800 
     59 N           2.6157  -10.9523  -47.1102 N.am      3 UNK        -0.5000 
     60 C           3.3073  -10.1871  -47.9609 C.2       2 UNK         0.5000 
     61 O           4.4956   -9.8996  -47.8026 O.2       2 UNK        -0.5000 
     62 CA          2.5339   -9.6562  -49.1889 C.3       2 UNK         0.1400 
     63 CB          3.4617   -9.1503  -50.3135 C.3       2 UNK        -0.1800 
     64 N           1.5548  -10.6121  -49.7223 N.am      2 UNK        -0.5000 
     65 C           1.7929  -11.8458  -50.1996 C.2       1 UNK         0.5000 
     66 O           2.9089  -12.3654  -50.2440 O.2       1 UNK        -0.5000 
     67 C          -2.5694  -22.0890  -44.4957 C.2       11 UNK         0.5000 
     68 O          -3.7298  -22.4988  -44.4595 O.2       11 UNK        -0.5000 
     69 N          -1.5371  -22.7218  -43.9178 N.am      12 UNK        -0.5000 
     70 CA         -1.6205  -24.0117  -43.2271 C.3       12 UNK         0.1400 
     71 CB         -0.2621  -24.3296  -42.5846 C.3       12 UNK        -0.1800 
     72 C          -2.0700  -25.1585  -44.1551 C.2       12 UNK         0.5000 
     73 O          -2.8006  -26.0475  -43.7180 O.2       12 UNK        -0.5000 
     74 N          -1.6694  -25.0833  -45.4310 N.am      13 UNK        -0.5000 
     75 CA         -2.0902  -25.9712  -46.5141 C.3       13 UNK         0.1400 
     76 CB         -1.0067  -25.9679  -47.6059 C.3       13 UNK        -0.1800 
     77 C          -3.4721  -25.6214  -47.1086 C.2       13 UNK         0.5000 
     78 O          -3.8434  -26.2261  -48.1129 O.2       13 UNK        -0.5000 
     79 N          -4.2050  -24.6671  -46.5132 N.am      14 UNK        -0.5000 
     80 CA         -5.5421  -24.2054  -46.9029 C.3       14 UNK         0.1400 
     81 CB         -6.5860  -25.3291  -46.7295 C.3       14 UNK        -0.1800 
     82 C          -5.5537  -23.5832  -48.3124 C.2       14 UNK         0.5000 
     83 O          -6.2093  -24.0978  -49.2198 O.2       14 UNK        -0.5000 
     84 N          -4.7855  -22.4965  -48.4653 N.am      15 UNK        -0.5000 
     85 CA         -4.5504  -21.7428  -49.7014 C.3       15 UNK         0.1400 
     86 CB         -5.8405  -21.0574  -50.1975 C.3       15 UNK        -0.1800 
     87 C          -3.8674  -22.6093  -50.7759 C.2       15 UNK         0.5000 
     88 O          -4.3069  -22.6381  -51.9276 O.2       15 UNK        -0.5000 
     89 N          -2.8127  -23.3203  -50.3503 N.am      16 UNK        -0.5000 
     90 CA         -1.9973  -24.2483  -51.1386 C.3       16 UNK         0.1400 
     91 CB         -1.1643  -23.4686  -52.1791 C.3       16 UNK        -0.1800 
     92 C          -2.8432  -25.3781  -51.7637 C.2       16 UNK         0.5000 
     93 O          -2.8514  -25.5411  -52.9836 O.2       16 UNK        -0.5000 
     94 N          -3.5806  -26.1075  -50.9131 N.am      17 UNK        -0.5000 
     95 CA         -4.5334  -27.1703  -51.2567 C.3       17 UNK         0.1400 
     96 CB         -3.8037  -28.3941  -51.8492 C.3       17 UNK        -0.1800 
     97 C          -5.6893  -26.6594  -52.1420 C.2       17 UNK         0.5000 
     98 O          -6.0899  -27.3312  -53.0942 O.2       17 UNK        -0.5000 
     99 N          -6.1800  -25.4557  -51.8133 N.am      18 UNK        -0.5000 
    100 CA        -7.2232  -24.6854  -52.4953 C.3       18 UNK         0.1400 
    101 CB        -8.5817  -25.4116  -52.4103 C.3       18 UNK        -0.1800 
    102 C         -6.8716  -24.2531  -53.9367 C.2       18 UNK         0.5000 
    103 O         -7.7680  -23.8389  -54.6741 O.2       18 UNK        -0.5000 
    104 N         -5.5883  -24.3257  -54.3211 N.am      19 UNK        -0.5000 
    105 CA        -5.0969  -23.8763  -55.6254 C.3       19 UNK         0.1400 
    106 CB        -3.7301  -24.5168  -55.9089 C.3       19 UNK        -0.1800 
    107 C         -4.9911  -22.3437  -55.7199 C.2       19 UNK         0.5000 
    108 O         -5.0523  -21.8059  -56.8261 O.2       19 UNK        -0.5000 
    109 N         -4.8202  -21.6778  -54.5664 N.am      20 UNK        -0.5000 
    110 CA        -4.6562  -20.2325  -54.3896 C.3       20 UNK         0.1400 
    111 CB        -5.9415  -19.4754  -54.7802 C.3       20 UNK        -0.1800 
    112 C         -3.3904  -19.6764  -55.0744 C.2       20 UNK         0.5000 
    113 O         -3.3697  -18.5158  -55.4880 O.2       20 UNK        -0.5000 
    114 N         -2.3336  -20.5020  -55.1424 N.am      21 UNK        -0.5000 
    115 CA        -1.0127  -20.1605  -55.6896 C.3       21 UNK         0.1400 
    116 CB        -0.1360  -21.4221  -55.6867 C.3       21 UNK        -0.1800 
    117 C         -0.3137  -19.0106  -54.9329 C.2       21 UNK         0.5000 
    118 O          0.5097  -18.2993  -55.5089 O.2       21 UNK        -0.5000 
    119 N         -0.6970  -18.8410  -53.6647 N.am      22 UNK        -0.5000 
    120 CA        -0.4225  -17.6937  -52.7930 C.3       22 UNK         0.1400 
    121 C         -1.0614  -16.3442  -53.2410 C.2       22 UNK         0.5000 
    122 N         -2.0082  -16.3141  -54.1717 N.am      22 UNK        -0.7600 
    123 O         -0.6794  -15.2945  -52.7337 O.2       22 UNK        -0.5000 
    124 C124       -0.7828  -18.0282  -51.3184 C.3       23 UNK        -0.0398 
    125 S125       -2.3417  -18.9762  -51.1143 S.3       23 UNK        -0.2404 
    126 C126       -3.5879  -17.6656  -50.9054 C.3       23 UNK        -0.0205 
    127 H127       -1.4787   -9.1215  -52.6047 H         1 UNK         0.0600 
    128 H128       -2.5088  -10.3039  -51.7926 H         1 UNK         0.0600 
    129 H129       -2.1850  -10.4567  -53.5215 H         1 UNK         0.0600 
    130 H130       -1.3287  -11.7415  -50.5643 H         1 UNK         0.3000 
    131 H131        0.9281  -13.1777  -51.6095 H         1 UNK         0.0600 
    132 H132       -0.5879  -14.3883  -50.2129 H         1 UNK         0.0800 
    133 H133        0.9342  -14.3271  -49.3957 H         1 UNK         0.0800 
    134 H134       -2.7470  -12.8948  -49.5188 H         1 UNK         0.0800 
    135 H135       -3.0661  -12.7795  -47.8092 H         1 UNK         0.0800 
    136 H136       -2.9481  -15.0271  -50.6305 H         1 UNK         0.1150 
    137 H137       -3.7524  -18.5604  -48.3440 H         1 UNK         0.1150 
    138 H138       -2.7923  -14.8893  -46.3465 H         1 UNK         0.1150 
    139 H139       -3.7924  -16.8485  -45.1028 H         1 UNK         0.0800 
    140 H140       -4.0696  -18.3566  -45.9420 H         1 UNK         0.0800 
    141 H141       -3.0626  -19.4145  -43.8579 H         1 UNK         0.0800 
    142 H142       -1.3552  -19.7120  -43.6527 H         1 UNK         0.0800 
    143 H143       -3.0760  -20.6650  -45.9950 H         1 UNK         0.0600 
    144 H144       -0.1945  -20.6100  -45.8075 H         1 UNK         0.3000 
    145 H145        0.3669  -22.8673  -48.4895 H         1 UNK         0.0600 
    146 H146        0.5473  -19.8082  -48.4585 H         1 UNK         0.0600 
    147 H147        1.4946  -20.8872  -49.4858 H         1 UNK         0.0600 
    148 H148       -0.2472  -20.7898  -49.6849 H         1 UNK         0.0600 
    149 H149        2.0990  -21.1495  -46.9842 H         1 UNK         0.3000 
    150 H150        2.7302  -23.4785  -44.3356 H         1 UNK         0.0600 
    151 H151        4.1553  -24.1769  -46.2712 H         1 UNK         0.0600 
    152 H152        5.0413  -23.1641  -45.1436 H         1 UNK         0.0600 
    153 H153        4.4581  -22.4890  -46.6653 H         1 UNK         0.0600 
    154 H154        3.9078  -20.9901  -44.7097 H         1 UNK         0.3000 
    155 H155        3.5502  -19.3823  -43.2473 H         1 UNK         0.0600 
    156 H156        2.1374  -18.3596  -45.0574 H         1 UNK         0.0600 
    157 H157        2.1758  -17.3694  -43.6059 H         1 UNK         0.0600 
    158 H158        0.7605  -18.3517  -43.9619 H         1 UNK         0.0600 
    159 H159        1.1545  -18.9316  -41.6501 H         1 UNK         0.3000 
    160 H160        1.2869  -20.8796  -39.3774 H         1 UNK         0.0600 
    161 H161        2.4682  -20.0981  -37.3070 H         1 UNK         0.0600 
    162 H162        3.7132  -19.3493  -38.3063 H         1 UNK         0.0600 
    163 H163        3.4948  -21.0928  -38.3242 H         1 UNK         0.0600 
    164 H164        0.1000  -19.0503  -39.1484 H         1 UNK         0.3000 
    165 H165       -0.5825  -17.0671  -38.7082 H         1 UNK         0.0600 
    166 H166        1.4926  -14.8368  -38.3845 H         1 UNK         0.0600 
    167 H167       -0.1884  -14.7953  -37.8538 H         1 UNK         0.0600 
    168 H168        0.9454  -15.9009  -37.0944 H         1 UNK         0.0600 
    169 H169       -0.0080  -14.8833  -40.3486 H         1 UNK         0.3000 
    170 H170       -0.4537  -16.0517  -43.5546 H         1 UNK         0.0600 
    171 H171       -2.8149  -14.9812  -41.9146 H         1 UNK         0.0600 
    172 H172       -2.6551  -14.9350  -43.6718 H         1 UNK         0.0600 
    173 H173       -2.8234  -16.4743  -42.8424 H         1 UNK         0.0600 
    174 H174       -0.9309  -13.5026  -42.2675 H         1 UNK         0.3000 
    175 H175        0.4959  -11.8203  -42.6676 H         1 UNK         0.0600 
    176 H176        2.9255  -12.8515  -41.0980 H         1 UNK         0.0600 
    177 H177        2.3073  -11.1998  -41.0667 H         1 UNK         0.0600 
    178 H178        1.3361  -12.5145  -40.4240 H         1 UNK         0.0600 
    179 H179        3.3127  -12.1027  -43.4007 H         1 UNK         0.3000 
    180 H180        3.8646  -10.8938  -45.4304 H         1 UNK         0.0600 
    181 H181        3.1228  -13.5923  -46.7207 H         1 UNK         0.0600 
    182 H182        4.2201  -13.3901  -45.3599 H         1 UNK         0.0600 
    183 H183        4.6555  -12.7497  -46.9359 H         1 UNK         0.0600 
    184 H184        1.6287  -11.1171  -47.2670 H         1 UNK         0.3000 
    185 H185        1.9590   -8.8008  -48.8317 H         1 UNK         0.0600 
    186 H186        4.1162   -9.9397  -50.6843 H         1 UNK         0.0600 
    187 H187        2.8863   -8.7687  -51.1570 H         1 UNK         0.0600 
    188 H188        4.0972   -8.3369  -49.9615 H         1 UNK         0.0600 
    189 H189        0.5957  -10.2955  -49.7281 H         1 UNK         0.3000 
    190 H190       -0.6150  -22.2934  -43.9639 H         1 UNK         0.3000 
    191 H191       -2.3629  -23.9170  -42.4322 H         1 UNK         0.0600 
    192 H192        0.5246  -24.4228  -43.3339 H         1 UNK         0.0600 
    193 H193        0.0355  -23.5486  -41.8844 H         1 UNK         0.0600 
    194 H194       -0.3016  -25.2679  -42.0301 H         1 UNK         0.0600 
    195 H195       -1.0059  -24.3592  -45.6829 H         1 UNK         0.3000 
    196 H196       -2.1648  -26.9872  -46.1217 H         1 UNK         0.0600 
    197 H197       -0.0431  -26.2801  -47.2032 H         1 UNK         0.0600 
    198 H198       -0.8810  -24.9764  -48.0397 H         1 UNK         0.0600 
    199 H199       -1.2526  -26.6555  -48.4161 H         1 UNK         0.0600 
    200 H200       -3.8057  -24.1894  -45.7141 H         1 UNK         0.3000 
    201 H201       -5.8073  -23.4070  -46.2083 H         1 UNK         0.0600 
    202 H202       -7.5919  -24.9566  -46.9258 H         1 UNK         0.0600 
    203 H203       -6.5770  -25.7205  -45.7123 H         1 UNK         0.0600 
    204 H204       -6.4106  -26.1623  -47.4105 H         1 UNK         0.0600 
    205 H205       -4.1891  -22.2353  -47.6908 H         1 UNK         0.3000 
    206 H206       -3.8388  -20.9572  -49.4459 H         1 UNK         0.0600 
    207 H207       -6.5977  -21.7805  -50.5004 H         1 UNK         0.0600 
    208 H208       -5.6363  -20.4218  -51.0595 H         1 UNK         0.0600 
    209 H209       -6.2715  -20.4236  -49.4228 H         1 UNK         0.0600 
    210 H210       -2.5455  -23.2049  -49.3767 H         1 UNK         0.3000 
    211 H211       -1.3013  -24.7247  -50.4477 H         1 UNK         0.0600 
    212 H212       -0.5571  -22.6997  -51.7013 H         1 UNK         0.0600 
    213 H213       -0.4855  -24.1343  -52.7132 H         1 UNK         0.0600 
    214 H214       -1.7948  -22.9811  -52.9232 H         1 UNK         0.0600 
    215 H215       -3.5397  -25.9022  -49.9174 H         1 UNK         0.3000 
    216 H216       -4.9904  -27.4848  -50.3174 H         1 UNK         0.0600 
    217 H217       -4.4903  -29.2311  -51.9806 H         1 UNK         0.0600 
    218 H218       -3.3666  -28.1750  -52.8238 H         1 UNK         0.0600 
    219 H219       -3.0039  -28.7318  -51.1903 H         1 UNK         0.0600 
    220 H220       -5.8089  -25.0026  -50.9835 H         1 UNK         0.3000 
    221 H221       -7.3143  -23.7584  -51.9280 H         1 UNK         0.0600 
    222 H222       -8.5940  -26.3205  -53.0121 H         1 UNK         0.0600 
    223 H223       -8.8174  -25.6853  -51.3818 H         1 UNK         0.0600 
    224 H224       -9.3911  -24.7736  -52.7667 H         1 UNK         0.0600 
    225 H225       -4.8966  -24.6639  -53.6631 H         1 UNK         0.3000 
    226 H226       -5.7945  -24.2136  -56.3949 H         1 UNK         0.0600 
    227 H227       -3.7737  -25.6024  -55.8175 H         1 UNK         0.0600 
    228 H228       -3.3959  -24.2874  -56.9214 H         1 UNK         0.0600 
    229 H229       -2.9643  -24.1517  -55.2238 H         1 UNK         0.0600 
    230 H230       -4.7551  -22.2194  -53.7062 H         1 UNK         0.3000 
    231 H231       -4.5030  -20.0798  -53.3206 H         1 UNK         0.0600 
    232 H232       -5.8740  -18.4225  -54.5037 H         1 UNK         0.0600 
    233 H233       -6.8114  -19.8884  -54.2695 H         1 UNK         0.0600 
    234 H234       -6.1288  -19.5197  -55.8533 H         1 UNK         0.0600 
    235 H235       -2.4445  -21.4383  -54.7829 H         1 UNK         0.3000 
    236 H236       -1.1529  -19.8370  -56.7229 H         1 UNK         0.0600 
    237 H237       -0.5884  -22.2192  -56.2771 H         1 UNK         0.0600 
    238 H238        0.8451  -21.2168  -56.1171 H         1 UNK         0.0600 
    239 H239        0.0216  -21.8003  -54.6758 H         1 UNK         0.0600 
    240 H240       -1.3751  -19.4898  -53.2931 H         1 UNK         0.3000 
    241 H241        0.6548  -17.5232  -52.8337 H         1 UNK         0.0600 
    242 H242       -2.3914  -15.4243  -54.4461 H         1 UNK         0.3800 
    243 H243       -2.3567  -17.1602  -54.6125 H         1 UNK         0.3800 
    244 H244        0.0129  -18.6487  -50.9065 H         1 UNK         0.0800 
    245 H245       -0.7945  -17.1375  -50.6881 H         1 UNK         0.0800 
    246 H246       -4.5777  -18.1226  -50.8805 H         1 UNK         0.0800 
    247 H247       -3.5782  -17.0107  -51.7773 H         1 UNK         0.0800 
@<TRIPOS>BOND
     1    1    2 1    
     2    1  127 1    
     3    1  128 1    
     4    1  129 1    
     5    2    3 2    
     6    2    4 am   BACKBONE|DICT|INTERRES
     7    4    5 1    
     8    4  130 1    
     9    5    6 1    
    10    5   65 1    
    11    5  131 1    
    12    6    7 1    
    13    6  132 1    
    14    6  133 1    
    15    7    8 1    
    16    8    9 1    
    17    8  134 1    
    18    8  135 1    
    19    9   10 ar   
    20    9   14 ar   
    21   10   11 ar   
    22   10  136 1    
    23   11   12 ar   
    24   11  126 1    
    25   12   13 ar   
    26   12  137 1    
    27   13   14 ar   
    28   13   15 1    
    29   14  138 1    
    30   15   16 1    
    31   15  139 1    
    32   15  140 1    
    33   16   17 1    
    34   17   18 1    
    35   17  141 1    
    36   17  142 1    
    37   18   19 1    
    38   18   67 1    
    39   18  143 1    
    40   19   20 am   BACKBONE|DICT|INTERRES
    41   19  144 1    
    42   20   21 2    
    43   20   22 1    
    44   22   23 1    
    45   22   24 1    
    46   22  145 1    
    47   23  146 1    
    48   23  147 1    
    49   23  148 1    
    50   24   25 am   BACKBONE|DICT|INTERRES
    51   24  149 1    
    52   25   26 2    
    53   25   27 1    
    54   27   28 1    
    55   27   29 1    
    56   27  150 1    
    57   28  151 1    
    58   28  152 1    
    59   28  153 1    
    60   29   30 am   BACKBONE|DICT|INTERRES
    61   29  154 1    
    62   30   31 2    
    63   30   32 1    
    64   32   33 1    
    65   32   34 1    
    66   32  155 1    
    67   33  156 1    
    68   33  157 1    
    69   33  158 1    
    70   34   35 am   BACKBONE|DICT|INTERRES
    71   34  159 1    
    72   35   36 2    
    73   35   37 1    
    74   37   38 1    
    75   37   39 1    
    76   37  160 1    
    77   38  161 1    
    78   38  162 1    
    79   38  163 1    
    80   39   40 am   BACKBONE|DICT|INTERRES
    81   39  164 1    
    82   40   41 2    
    83   40   42 1    
    84   42   43 1    
    85   42   44 1    
    86   42  165 1    
    87   43  166 1    
    88   43  167 1    
    89   43  168 1    
    90   44   45 am   BACKBONE|DICT|INTERRES
    91   44  169 1    
    92   45   46 2    
    93   45   47 1    
    94   47   48 1    
    95   47   49 1    
    96   47  170 1    
    97   48  171 1    
    98   48  172 1    
    99   48  173 1    
   100   49   50 am   BACKBONE|DICT|INTERRES
   101   49  174 1    
   102   50   51 2    
   103   50   52 1    
   104   52   53 1    
   105   52   54 1    
   106   52  175 1    
   107   53  176 1    
   108   53  177 1    
   109   53  178 1    
   110   54   55 am   BACKBONE|DICT|INTERRES
   111   54  179 1    
   112   55   56 2    
   113   55   57 1    
   114   57   58 1    
   115   57   59 1    
   116   57  180 1    
   117   58  181 1    
   118   58  182 1    
   119   58  183 1    
   120   59   60 am   BACKBONE|DICT|INTERRES
   121   59  184 1    
   122   60   61 2    
   123   60   62 1    
   124   62   63 1    
   125   62   64 1    
   126   62  185 1    
   127   63  186 1    
   128   63  187 1    
   129   63  188 1    
   130   64   65 am   BACKBONE|DICT|INTERRES
   131   64  189 1    
   132   65   66 2    
   133   67   68 2    
   134   67   69 am   BACKBONE|DICT|INTERRES
   135   69   70 1    
   136   69  190 1    
   137   70   71 1    
   138   70   72 1    
   139   70  191 1    
   140   71  192 1    
   141   71  193 1    
   142   71  194 1    
   143   72   73 2    
   144   72   74 am   BACKBONE|DICT|INTERRES
   145   74   75 1    
   146   74  195 1    
   147   75   76 1    
   148   75   77 1    
   149   75  196 1    
   150   76  197 1    
   151   76  198 1    
   152   76  199 1    
   153   77   78 2    
   154   77   79 am   BACKBONE|DICT|INTERRES
   155   79   80 1    
   156   79  200 1    
   157   80   81 1    
   158   80   82 1    
   159   80  201 1    
   160   81  202 1    
   161   81  203 1    
   162   81  204 1    
   163   82   83 2    
   164   82   84 am   BACKBONE|DICT|INTERRES
   165   84   85 1    
   166   84  205 1    
   167   85   86 1    
   168   85   87 1    
   169   85  206 1    
   170   86  207 1    
   171   86  208 1    
   172   86  209 1    
   173   87   88 2    
   174   87   89 am   BACKBONE|DICT|INTERRES
   175   89   90 1    
   176   89  210 1    
   177   90   91 1    
   178   90   92 1    
   179   90  211 1    
   180   91  212 1    
   181   91  213 1    
   182   91  214 1    
   183   92   93 2    
   184   92   94 am   BACKBONE|DICT|INTERRES
   185   94   95 1    
   186   94  215 1    
   187   95   96 1    
   188   95   97 1    
   189   95  216 1    
   190   96  217 1    
   191   96  218 1    
   192   96  219 1    
   193   97   98 2    
   194   97   99 am   BACKBONE|DICT|INTERRES
   195   99  100 1    
   196   99  220 1    
   197  100  101 1    
   198  100  102 1    
   199  100  221 1    
   200  101  222 1    
   201  101  223 1    
   202  101  224 1    
   203  102  103 2    
   204  102  104 am   BACKBONE|DICT|INTERRES
   205  104  105 1    
   206  104  225 1    
   207  105  106 1    
   208  105  107 1    
   209  105  226 1    
   210  106  227 1    
   211  106  228 1    
   212  106  229 1    
   213  107  108 2    
   214  107  109 am   BACKBONE|DICT|INTERRES
   215  109  110 1    
   216  109  230 1    
   217  110  111 1    
   218  110  112 1    
   219  110  231 1    
   220  111  232 1    
   221  111  233 1    
   222  111  234 1    
   223  112  113 2    
   224  112  114 am   BACKBONE|DICT|INTERRES
   225  114  115 1    
   226  114  235 1    
   227  115  116 1    
   228  115  117 1    
   229  115  236 1    
   230  116  237 1    
   231  116  238 1    
   232  116  239 1    
   233  117  118 2    
   234  117  119 am   BACKBONE|DICT|INTERRES
   235  119  120 1    
   236  119  240 1    
   237  120  121 1    
   238  120  124 1    
   239  120  241 1    
   240  121  122 am   BACKBONE|DICT|INTERRES
   241  121  123 2    
   242  122  242 1    
   243  122  243 1    
   244  124  125 1    
   245  124  244 1    
   246  124  245 1    
   247  125  126 1    
   248  126  246 1    
   249  126  247 1    
@<TRIPOS>SUBSTRUCTURE
     1 UNK         1 GROUP             0       ****    0 ROOT    
