@<TRIPOS>MOLECULE
3R540
247   249    1
SMALL
USER_CHARGES


@<TRIPOS>ATOM
      1 CA          2.5947  -12.7718  -50.9015 C.3       0 UNK        -0.1800 
      2 C           2.0329  -12.5256  -49.5093 C.2       0 UNK         0.5000 
      3 O           2.7816  -12.5435  -48.5333 O.2       0 UNK        -0.5000 
      4 N           0.7214  -12.2709  -49.4118 N.am      1 UNK        -0.5000 
      5 CA         -0.0245  -12.0828  -48.1560 C.3       1 UNK         0.1400 
      6 C6         -1.5563  -12.1338  -48.3754 C.3       23 UNK        -0.0398 
      7 S7         -2.0843  -13.7215  -49.1005 S.3       23 UNK        -0.2404 
      8 C8         -2.3560  -14.6938  -47.5888 C.3       23 UNK        -0.0205 
      9 C9         -2.3696  -16.1814  -47.8941 C.ar      23 UNK        -0.0193 
     10 C10        -3.5673  -16.8177  -48.2309 C.ar      23 UNK        -0.1150 
     11 C11        -3.5839  -18.1793  -48.5458 C.ar      23 UNK        -0.0193 
     12 C12        -2.3907  -18.9061  -48.5042 C.ar      23 UNK        -0.1150 
     13 C13        -1.1890  -18.2861  -48.1507 C.ar      23 UNK        -0.0193 
     14 C14        -1.1831  -16.9210  -47.8500 C.ar      23 UNK        -0.1150 
     15 C15         0.0992  -19.0931  -48.1088 C.3       23 UNK        -0.0205 
     16 S16         0.4860  -19.6308  -46.4131 S.3       23 UNK        -0.2404 
     17 C17         1.4924  -21.1217  -46.7248 C.3       23 UNK        -0.0398 
     18 CA          0.7730  -22.4765  -46.4906 C.3       11 UNK         0.1400 
     19 N           0.4682  -22.7550  -45.0817 N.am      11 UNK        -0.5000 
     20 C           0.2418  -23.9947  -44.6166 C.2       10 UNK         0.5000 
     21 O           0.2710  -25.0015  -45.3251 O.2       10 UNK        -0.5000 
     22 CA         -0.1075  -24.1419  -43.1250 C.3       10 UNK         0.1400 
     23 CB          1.1566  -24.0371  -42.2585 C.3       10 UNK        -0.1800 
     24 N          -1.0933  -23.1671  -42.6628 N.am      10 UNK        -0.5000 
     25 C          -2.3533  -23.0660  -43.1115 C.2       9 UNK         0.5000 
     26 O          -2.8325  -23.8042  -43.9700 O.2       9 UNK        -0.5000 
     27 CA         -3.2125  -21.9261  -42.5255 C.3       9 UNK         0.1400 
     28 CB         -4.0598  -22.4398  -41.3522 C.3       9 UNK        -0.1800 
     29 N          -2.4134  -20.7799  -42.0810 N.am      9 UNK        -0.5000 
     30 C          -1.6727  -20.0258  -42.9025 C.2       8 UNK         0.5000 
     31 O          -1.6663  -20.1683  -44.1269 O.2       8 UNK        -0.5000 
     32 CA         -0.7393  -19.0050  -42.2375 C.3       8 UNK         0.1400 
     33 CB          0.3574  -19.7279  -41.4253 C.3       8 UNK        -0.1800 
     34 N          -0.1256  -18.1725  -43.2675 N.am      8 UNK        -0.5000 
     35 C           0.5341  -17.0319  -43.0471 C.2       7 UNK         0.5000 
     36 O           0.6456  -16.5123  -41.9345 O.2       7 UNK        -0.5000 
     37 CA          1.1669  -16.3476  -44.2741 C.3       7 UNK         0.1400 
     38 CB          0.3190  -15.1490  -44.7231 C.3       7 UNK        -0.1800 
     39 N           2.5267  -15.8885  -43.9948 N.am      7 UNK        -0.5000 
     40 C           3.5647  -16.6875  -43.7095 C.2       6 UNK         0.5000 
     41 O           3.5126  -17.9178  -43.7342 O.2       6 UNK        -0.5000 
     42 CA          4.8832  -15.9966  -43.3251 C.3       6 UNK         0.1400 
     43 CB          5.6837  -15.6197  -44.5819 C.3       6 UNK        -0.1800 
     44 N           4.6450  -14.7972  -42.5208 N.am      6 UNK        -0.5000 
     45 C           4.5669  -14.7846  -41.1822 C.2       5 UNK         0.5000 
     46 O           4.7219  -15.7856  -40.4814 O.2       5 UNK        -0.5000 
     47 CA          4.2915  -13.4290  -40.4993 C.3       5 UNK         0.1400 
     48 CB          5.6096  -12.7815  -40.0470 C.3       5 UNK        -0.1800 
     49 N           3.5766  -12.4885  -41.3620 N.am      5 UNK        -0.5000 
     50 C           2.2616  -12.5361  -41.6143 C.2       4 UNK         0.5000 
     51 O           1.4901  -13.3214  -41.0654 O.2       4 UNK        -0.5000 
     52 CA          1.7132  -11.5498  -42.6662 C.3       4 UNK         0.1400 
     53 CB          1.0659  -10.3358  -41.9832 C.3       4 UNK        -0.1800 
     54 N           2.7069  -11.0729  -43.6333 N.am      4 UNK        -0.5000 
     55 C           3.3979  -11.8411  -44.4846 C.2       3 UNK         0.5000 
     56 O           3.3241  -13.0711  -44.5002 O.2       3 UNK        -0.5000 
     57 CA          4.2956  -11.0946  -45.4888 C.3       3 UNK         0.1400 
     58 CB          5.2821  -12.0284  -46.2115 C.3       3 UNK        -0.1800 
     59 N           3.4556  -10.4203  -46.4753 N.am      3 UNK        -0.5000 
     60 C           2.8639   -9.2297  -46.2917 C.2       2 UNK         0.5000 
     61 O           3.0789   -8.5107  -45.3146 O.2       2 UNK        -0.5000 
     62 CA          1.8213   -8.7881  -47.3402 C.3       2 UNK         0.1400 
     63 CB          2.4764   -7.9079  -48.4150 C.3       2 UNK        -0.1800 
     64 N           1.1527   -9.9177  -47.9885 N.am      2 UNK        -0.5000 
     65 C           0.3779  -10.8178  -47.3644 C.2       1 UNK         0.5000 
     66 O           0.0099  -10.6991  -46.1951 O.2       1 UNK        -0.5000 
     67 C          -0.4668  -22.6750  -47.3863 C.2       11 UNK         0.5000 
     68 O          -0.3287  -23.1792  -48.4997 O.2       11 UNK        -0.5000 
     69 N          -1.6564  -22.3349  -46.8662 N.am      12 UNK        -0.5000 
     70 CA         -2.9427  -22.5793  -47.5176 C.3       12 UNK         0.1400 
     71 CB         -4.0631  -21.8735  -46.7399 C.3       12 UNK        -0.1800 
     72 C          -3.2366  -24.0796  -47.6807 C.2       12 UNK         0.5000 
     73 O          -3.6552  -24.4947  -48.7606 O.2       12 UNK        -0.5000 
     74 N          -2.9678  -24.8678  -46.6304 N.am      13 UNK        -0.5000 
     75 CA         -3.0800  -26.3258  -46.6318 C.3       13 UNK         0.1400 
     76 CB         -2.8982  -26.8635  -45.2045 C.3       13 UNK        -0.1800 
     77 C          -2.0894  -26.9941  -47.6008 C.2       13 UNK         0.5000 
     78 O          -2.4919  -27.8828  -48.3512 O.2       13 UNK        -0.5000 
     79 N          -0.8310  -26.5290  -47.6057 N.am      14 UNK        -0.5000 
     80 CA          0.2221  -26.9884  -48.5174 C.3       14 UNK         0.1400 
     81 CB          1.5651  -26.3673  -48.1062 C.3       14 UNK        -0.1800 
     82 C          -0.0870  -26.6844  -49.9964 C.2       14 UNK         0.5000 
     83 O           0.1851  -27.5172  -50.8615 O.2       14 UNK        -0.5000 
     84 N          -0.6848  -25.5138  -50.2512 N.am      15 UNK        -0.5000 
     85 CA         -1.1728  -25.0796  -51.5606 C.3       15 UNK         0.1400 
     86 CB         -1.3510  -23.5537  -51.5212 C.3       15 UNK        -0.1800 
     87 C          -2.4961  -25.7495  -51.9854 C.2       15 UNK         0.5000 
     88 O          -2.9181  -25.5664  -53.1296 O.2       15 UNK        -0.5000 
     89 N          -3.1546  -26.4527  -51.0493 N.am      16 UNK        -0.5000 
     90 CA         -4.4999  -27.0326  -51.1427 C.3       16 UNK         0.1400 
     91 CB         -4.5006  -28.2347  -52.1085 C.3       16 UNK        -0.1800 
     92 C          -5.5702  -25.9767  -51.4968 C.2       16 UNK         0.5000 
     93 O          -6.5072  -26.2693  -52.2421 O.2       16 UNK        -0.5000 
     94 N          -5.3600  -24.7444  -51.0080 N.am      17 UNK        -0.5000 
     95 CA         -6.0192  -23.4739  -51.3327 C.3       17 UNK         0.1400 
     96 CB         -7.5029  -23.4932  -50.9250 C.3       17 UNK        -0.1800 
     97 C          -5.8504  -23.0199  -52.7988 C.2       17 UNK         0.5000 
     98 O          -5.5815  -21.8425  -53.0388 O.2       17 UNK        -0.5000 
     99 N          -6.0079  -23.9503  -53.7464 N.am      18 UNK        -0.5000 
    100 CA        -6.0128  -23.7489  -55.1926 C.3       18 UNK         0.1400 
    101 CB        -6.2707  -25.0956  -55.8847 C.3       18 UNK        -0.1800 
    102 C         -4.7409  -23.0899  -55.7492 C.2       18 UNK         0.5000 
    103 O         -4.8535  -22.1482  -56.5345 O.2       18 UNK        -0.5000 
    104 N         -3.5579  -23.5563  -55.3212 N.am      19 UNK        -0.5000 
    105 CA        -2.2714  -23.0325  -55.7990 C.3       19 UNK         0.1400 
    106 CB        -1.1500  -24.0364  -55.4925 C.3       19 UNK        -0.1800 
    107 C         -1.9360  -21.6329  -55.2443 C.2       19 UNK         0.5000 
    108 O         -1.1136  -20.9312  -55.8336 O.2       19 UNK        -0.5000 
    109 N         -2.5939  -21.2428  -54.1445 N.am      20 UNK        -0.5000 
    110 CA        -2.5225  -19.9074  -53.5509 C.3       20 UNK         0.1400 
    111 CB        -2.6253  -20.0461  -52.0223 C.3       20 UNK        -0.1800 
    112 C         -3.6194  -18.9686  -54.0979 C.2       20 UNK         0.5000 
    113 O         -3.6103  -17.7828  -53.7675 O.2       20 UNK        -0.5000 
    114 N         -4.5395  -19.5109  -54.9137 N.am      21 UNK        -0.5000 
    115 CA        -5.7446  -18.8781  -55.4606 C.3       21 UNK         0.1400 
    116 CB        -5.3853  -17.7124  -56.4057 C.3       21 UNK        -0.1800 
    117 C         -6.7680  -18.4884  -54.3711 C.2       21 UNK         0.5000 
    118 O         -7.5111  -17.5195  -54.5395 O.2       21 UNK        -0.5000 
    119 N         -6.7947  -19.2608  -53.2784 N.am      22 UNK        -0.5000 
    120 CA        -7.6757  -19.0662  -52.1156 C.3       22 UNK         0.1400 
    121 C         -9.0063  -19.8689  -52.2019 C.2       22 UNK         0.5000 
    122 N         -9.2279  -20.6892  -53.2223 N.am      22 UNK        -0.7600 
    123 O         -9.8620  -19.7372  -51.3312 O.2       22 UNK        -0.5000 
    124 C124       -6.9326  -19.3610  -50.7864 C.3       23 UNK        -0.0398 
    125 S125       -5.4746  -18.2921  -50.5558 S.3       23 UNK        -0.2404 
    126 C126       -4.8894  -18.8594  -48.9313 C.3       23 UNK        -0.0205 
    127 H127        3.0487  -13.7614  -50.9517 H         1 UNK         0.0600 
    128 H128        1.8209  -12.7130  -51.6673 H         1 UNK         0.0600 
    129 H129        3.3607  -12.0317  -51.1331 H         1 UNK         0.0600 
    130 H130        0.1575  -12.2712  -50.2501 H         1 UNK         0.3000 
    131 H131        0.2421  -12.9216  -47.5094 H         1 UNK         0.0600 
    132 H132       -1.8731  -11.3288  -49.0405 H         1 UNK         0.0800 
    133 H133       -2.0948  -11.9820  -47.4377 H         1 UNK         0.0800 
    134 H134       -3.2957  -14.3911  -47.1243 H         1 UNK         0.0800 
    135 H135       -1.5703  -14.4735  -46.8673 H         1 UNK         0.0800 
    136 H136       -4.4858  -16.2489  -48.2702 H         1 UNK         0.1150 
    137 H137       -2.3928  -19.9561  -48.7520 H         1 UNK         0.1150 
    138 H138       -0.2542  -16.4342  -47.5881 H         1 UNK         0.1150 
    139 H139        0.0077  -19.9606  -48.7644 H         1 UNK         0.0800 
    140 H140        0.9278  -18.4996  -48.4979 H         1 UNK         0.0800 
    141 H141        1.8850  -21.0834  -47.7423 H         1 UNK         0.0800 
    142 H142        2.3702  -21.0660  -46.0798 H         1 UNK         0.0800 
    143 H143        1.4892  -23.2388  -46.8053 H         1 UNK         0.0600 
    144 H144        0.3794  -21.9602  -44.4654 H         1 UNK         0.3000 
    145 H145       -0.5348  -25.1368  -42.9836 H         1 UNK         0.0600 
    146 H146        0.9334  -24.2357  -41.2101 H         1 UNK         0.0600 
    147 H147        1.9064  -24.7645  -42.5729 H         1 UNK         0.0600 
    148 H148        1.6114  -23.0478  -42.3234 H         1 UNK         0.0600 
    149 H149       -0.7903  -22.5210  -41.9504 H         1 UNK         0.3000 
    150 H150       -3.8877  -21.5841  -43.3125 H         1 UNK         0.0600 
    151 H151       -4.6835  -23.2801  -41.6605 H         1 UNK         0.0600 
    152 H152       -4.7262  -21.6630  -40.9768 H         1 UNK         0.0600 
    153 H153       -3.4375  -22.7795  -40.5234 H         1 UNK         0.0600 
    154 H154       -2.3814  -20.6084  -41.0861 H         1 UNK         0.3000 
    155 H155       -1.3384  -18.3748  -41.5772 H         1 UNK         0.0600 
    156 H156        1.0183  -19.0203  -40.9249 H         1 UNK         0.0600 
    157 H157        0.9750  -20.3609  -42.0638 H         1 UNK         0.0600 
    158 H158       -0.0704  -20.3606  -40.6471 H         1 UNK         0.0600 
    159 H159       -0.2276  -18.5398  -44.2080 H         1 UNK         0.3000 
    160 H160        1.2170  -17.0630  -45.0965 H         1 UNK         0.0600 
    161 H161        0.7193  -14.6992  -45.6320 H         1 UNK         0.0600 
    162 H162        0.2798  -14.3761  -43.9546 H         1 UNK         0.0600 
    163 H163       -0.7058  -15.4591  -44.9286 H         1 UNK         0.0600 
    164 H164        2.6758  -14.8854  -43.9882 H         1 UNK         0.3000 
    165 H165        5.4815  -16.7079  -42.7516 H         1 UNK         0.0600 
    166 H166        5.1239  -14.9487  -45.2337 H         1 UNK         0.0600 
    167 H167        6.6219  -15.1299  -44.3211 H         1 UNK         0.0600 
    168 H168        5.9307  -16.5079  -45.1645 H         1 UNK         0.0600 
    169 H169        4.4300  -13.9519  -43.0352 H         1 UNK         0.3000 
    170 H170        3.6859  -13.6222  -39.6111 H         1 UNK         0.0600 
    171 H171        6.1601  -13.4434  -39.3771 H         1 UNK         0.0600 
    172 H172        6.2598  -12.5568  -40.8935 H         1 UNK         0.0600 
    173 H173        5.4277  -11.8525  -39.5063 H         1 UNK         0.0600 
    174 H174        4.1310  -11.7939  -41.8400 H         1 UNK         0.3000 
    175 H175        0.9393  -12.0754  -43.2290 H         1 UNK         0.0600 
    176 H176        1.7996   -9.7471  -41.4311 H         1 UNK         0.0600 
    177 H177        0.5892   -9.6814  -42.7134 H         1 UNK         0.0600 
    178 H178        0.2955  -10.6480  -41.2769 H         1 UNK         0.0600 
    179 H179        2.8026  -10.0688  -43.7231 H         1 UNK         0.3000 
    180 H180        4.8819  -10.3568  -44.9371 H         1 UNK         0.0600 
    181 H181        4.7683  -12.8150  -46.7647 H         1 UNK         0.0600 
    182 H182        5.9510  -12.5123  -45.4990 H         1 UNK         0.0600 
    183 H183        5.9028  -11.4756  -46.9166 H         1 UNK         0.0600 
    184 H184        3.1854  -10.9840  -47.2753 H         1 UNK         0.3000 
    185 H185        1.0622   -8.1966  -46.8243 H         1 UNK         0.0600 
    186 H186        2.9645   -7.0419  -47.9658 H         1 UNK         0.0600 
    187 H187        3.2328   -8.4560  -48.9781 H         1 UNK         0.0600 
    188 H188        1.7368   -7.5319  -49.1222 H         1 UNK         0.0600 
    189 H189        1.4004  -10.0985  -48.9502 H         1 UNK         0.3000 
    190 H190       -1.6790  -21.9062  -45.9503 H         1 UNK         0.3000 
    191 H191       -2.8990  -22.1486  -48.5193 H         1 UNK         0.0600 
    192 H192       -5.0176  -21.9725  -47.2582 H         1 UNK         0.0600 
    193 H193       -3.8587  -20.8084  -46.6295 H         1 UNK         0.0600 
    194 H194       -4.1889  -22.2916  -45.7416 H         1 UNK         0.0600 
    195 H195       -2.6871  -24.4376  -45.7531 H         1 UNK         0.3000 
    196 H196       -4.0892  -26.5803  -46.9624 H         1 UNK         0.0600 
    197 H197       -2.9860  -27.9504  -45.1816 H         1 UNK         0.0600 
    198 H198       -3.6577  -26.4618  -44.5337 H         1 UNK         0.0600 
    199 H199       -1.9215  -26.6032  -44.7960 H         1 UNK         0.0600 
    200 H200       -0.5651  -25.8283  -46.9200 H         1 UNK         0.3000 
    201 H201        0.3025  -28.0723  -48.4119 H         1 UNK         0.0600 
    202 H202        1.8240  -26.6299  -47.0803 H         1 UNK         0.0600 
    203 H203        1.5436  -25.2799  -48.1788 H         1 UNK         0.0600 
    204 H204        2.3726  -26.7234  -48.7470 H         1 UNK         0.0600 
    205 H205       -0.8044  -24.8529  -49.4894 H         1 UNK         0.3000 
    206 H206       -0.4224  -25.3242  -52.3147 H         1 UNK         0.0600 
    207 H207       -0.4047  -23.0498  -51.3244 H         1 UNK         0.0600 
    208 H208       -1.7285  -23.1743  -52.4679 H         1 UNK         0.0600 
    209 H209       -2.0587  -23.2515  -50.7487 H         1 UNK         0.0600 
    210 H210       -2.7237  -26.5261  -50.1367 H         1 UNK         0.3000 
    211 H211       -4.7482  -27.4007  -50.1464 H         1 UNK         0.0600 
    212 H212       -4.3125  -27.9269  -53.1377 H         1 UNK         0.0600 
    213 H213       -5.4612  -28.7508  -52.0911 H         1 UNK         0.0600 
    214 H214       -3.7374  -28.9618  -51.8309 H         1 UNK         0.0600 
    215 H215       -4.5847  -24.6540  -50.3537 H         1 UNK         0.3000 
    216 H216       -5.5193  -22.7236  -50.7180 H         1 UNK         0.0600 
    217 H217       -8.0760  -24.2192  -51.5022 H         1 UNK         0.0600 
    218 H218       -7.9645  -22.5186  -51.0830 H         1 UNK         0.0600 
    219 H219       -7.6168  -23.7389  -49.8693 H         1 UNK         0.0600 
    220 H220       -6.2200  -24.8906  -53.4220 H         1 UNK         0.3000 
    221 H221       -6.8496  -23.0856  -55.4204 H         1 UNK         0.0600 
    222 H222       -5.4956  -25.8249  -55.6448 H         1 UNK         0.0600 
    223 H223       -7.2297  -25.5165  -55.5819 H         1 UNK         0.0600 
    224 H224       -6.2935  -24.9823  -56.9694 H         1 UNK         0.0600 
    225 H225       -3.5264  -24.3153  -54.6462 H         1 UNK         0.3000 
    226 H226       -2.3323  -22.9370  -56.8854 H         1 UNK         0.0600 
    227 H227       -1.3797  -25.0218  -55.8982 H         1 UNK         0.0600 
    228 H228       -0.2080  -23.7134  -55.9372 H         1 UNK         0.0600 
    229 H229       -0.9814  -24.1459  -54.4236 H         1 UNK         0.0600 
    230 H230       -3.2800  -21.8700  -53.7473 H         1 UNK         0.3000 
    231 H231       -1.5587  -19.4495  -53.7822 H         1 UNK         0.0600 
    232 H232       -3.5620  -20.5151  -51.7199 H         1 UNK         0.0600 
    233 H233       -2.5766  -19.0702  -51.5376 H         1 UNK         0.0600 
    234 H234       -1.8056  -20.6425  -51.6228 H         1 UNK         0.0600 
    235 H235       -4.4420  -20.4926  -55.1395 H         1 UNK         0.3000 
    236 H236       -6.2327  -19.6446  -56.0639 H         1 UNK         0.0600 
    237 H237       -4.6599  -18.0240  -57.1572 H         1 UNK         0.0600 
    238 H238       -6.2679  -17.3550  -56.9372 H         1 UNK         0.0600 
    239 H239       -4.9662  -16.8638  -55.8647 H         1 UNK         0.0600 
    240 H240       -6.1759  -20.0661  -53.2302 H         1 UNK         0.3000 
    241 H241       -7.9771  -18.0176  -52.0831 H         1 UNK         0.0600 
    242 H242       -8.5395  -20.7958  -53.9490 H         1 UNK         0.3800 
    243 H243      -10.0977  -21.1957  -53.2729 H         1 UNK         0.3800 
    244 H244       -7.5957  -19.2110  -49.9325 H         1 UNK         0.0800 
    245 H245       -6.6106  -20.4022  -50.7521 H         1 UNK         0.0800 
    246 H246       -4.7639  -19.9425  -48.9576 H         1 UNK         0.0800 
    247 H247       -5.6468  -18.6490  -48.1749 H         1 UNK         0.0800 
@<TRIPOS>BOND
     1    1    2 1    
     2    1  127 1    
     3    1  128 1    
     4    1  129 1    
     5    2    3 2    
     6    2    4 am   BACKBONE|DICT|INTERRES
     7    4    5 1    
     8    4  130 1    
     9    5    6 1    
    10    5   65 1    
    11    5  131 1    
    12    6    7 1    
    13    6  132 1    
    14    6  133 1    
    15    7    8 1    
    16    8    9 1    
    17    8  134 1    
    18    8  135 1    
    19    9   10 ar   
    20    9   14 ar   
    21   10   11 ar   
    22   10  136 1    
    23   11   12 ar   
    24   11  126 1    
    25   12   13 ar   
    26   12  137 1    
    27   13   14 ar   
    28   13   15 1    
    29   14  138 1    
    30   15   16 1    
    31   15  139 1    
    32   15  140 1    
    33   16   17 1    
    34   17   18 1    
    35   17  141 1    
    36   17  142 1    
    37   18   19 1    
    38   18   67 1    
    39   18  143 1    
    40   19   20 am   BACKBONE|DICT|INTERRES
    41   19  144 1    
    42   20   21 2    
    43   20   22 1    
    44   22   23 1    
    45   22   24 1    
    46   22  145 1    
    47   23  146 1    
    48   23  147 1    
    49   23  148 1    
    50   24   25 am   BACKBONE|DICT|INTERRES
    51   24  149 1    
    52   25   26 2    
    53   25   27 1    
    54   27   28 1    
    55   27   29 1    
    56   27  150 1    
    57   28  151 1    
    58   28  152 1    
    59   28  153 1    
    60   29   30 am   BACKBONE|DICT|INTERRES
    61   29  154 1    
    62   30   31 2    
    63   30   32 1    
    64   32   33 1    
    65   32   34 1    
    66   32  155 1    
    67   33  156 1    
    68   33  157 1    
    69   33  158 1    
    70   34   35 am   BACKBONE|DICT|INTERRES
    71   34  159 1    
    72   35   36 2    
    73   35   37 1    
    74   37   38 1    
    75   37   39 1    
    76   37  160 1    
    77   38  161 1    
    78   38  162 1    
    79   38  163 1    
    80   39   40 am   BACKBONE|DICT|INTERRES
    81   39  164 1    
    82   40   41 2    
    83   40   42 1    
    84   42   43 1    
    85   42   44 1    
    86   42  165 1    
    87   43  166 1    
    88   43  167 1    
    89   43  168 1    
    90   44   45 am   BACKBONE|DICT|INTERRES
    91   44  169 1    
    92   45   46 2    
    93   45   47 1    
    94   47   48 1    
    95   47   49 1    
    96   47  170 1    
    97   48  171 1    
    98   48  172 1    
    99   48  173 1    
   100   49   50 am   BACKBONE|DICT|INTERRES
   101   49  174 1    
   102   50   51 2    
   103   50   52 1    
   104   52   53 1    
   105   52   54 1    
   106   52  175 1    
   107   53  176 1    
   108   53  177 1    
   109   53  178 1    
   110   54   55 am   BACKBONE|DICT|INTERRES
   111   54  179 1    
   112   55   56 2    
   113   55   57 1    
   114   57   58 1    
   115   57   59 1    
   116   57  180 1    
   117   58  181 1    
   118   58  182 1    
   119   58  183 1    
   120   59   60 am   BACKBONE|DICT|INTERRES
   121   59  184 1    
   122   60   61 2    
   123   60   62 1    
   124   62   63 1    
   125   62   64 1    
   126   62  185 1    
   127   63  186 1    
   128   63  187 1    
   129   63  188 1    
   130   64   65 am   BACKBONE|DICT|INTERRES
   131   64  189 1    
   132   65   66 2    
   133   67   68 2    
   134   67   69 am   BACKBONE|DICT|INTERRES
   135   69   70 1    
   136   69  190 1    
   137   70   71 1    
   138   70   72 1    
   139   70  191 1    
   140   71  192 1    
   141   71  193 1    
   142   71  194 1    
   143   72   73 2    
   144   72   74 am   BACKBONE|DICT|INTERRES
   145   74   75 1    
   146   74  195 1    
   147   75   76 1    
   148   75   77 1    
   149   75  196 1    
   150   76  197 1    
   151   76  198 1    
   152   76  199 1    
   153   77   78 2    
   154   77   79 am   BACKBONE|DICT|INTERRES
   155   79   80 1    
   156   79  200 1    
   157   80   81 1    
   158   80   82 1    
   159   80  201 1    
   160   81  202 1    
   161   81  203 1    
   162   81  204 1    
   163   82   83 2    
   164   82   84 am   BACKBONE|DICT|INTERRES
   165   84   85 1    
   166   84  205 1    
   167   85   86 1    
   168   85   87 1    
   169   85  206 1    
   170   86  207 1    
   171   86  208 1    
   172   86  209 1    
   173   87   88 2    
   174   87   89 am   BACKBONE|DICT|INTERRES
   175   89   90 1    
   176   89  210 1    
   177   90   91 1    
   178   90   92 1    
   179   90  211 1    
   180   91  212 1    
   181   91  213 1    
   182   91  214 1    
   183   92   93 2    
   184   92   94 am   BACKBONE|DICT|INTERRES
   185   94   95 1    
   186   94  215 1    
   187   95   96 1    
   188   95   97 1    
   189   95  216 1    
   190   96  217 1    
   191   96  218 1    
   192   96  219 1    
   193   97   98 2    
   194   97   99 am   BACKBONE|DICT|INTERRES
   195   99  100 1    
   196   99  220 1    
   197  100  101 1    
   198  100  102 1    
   199  100  221 1    
   200  101  222 1    
   201  101  223 1    
   202  101  224 1    
   203  102  103 2    
   204  102  104 am   BACKBONE|DICT|INTERRES
   205  104  105 1    
   206  104  225 1    
   207  105  106 1    
   208  105  107 1    
   209  105  226 1    
   210  106  227 1    
   211  106  228 1    
   212  106  229 1    
   213  107  108 2    
   214  107  109 am   BACKBONE|DICT|INTERRES
   215  109  110 1    
   216  109  230 1    
   217  110  111 1    
   218  110  112 1    
   219  110  231 1    
   220  111  232 1    
   221  111  233 1    
   222  111  234 1    
   223  112  113 2    
   224  112  114 am   BACKBONE|DICT|INTERRES
   225  114  115 1    
   226  114  235 1    
   227  115  116 1    
   228  115  117 1    
   229  115  236 1    
   230  116  237 1    
   231  116  238 1    
   232  116  239 1    
   233  117  118 2    
   234  117  119 am   BACKBONE|DICT|INTERRES
   235  119  120 1    
   236  119  240 1    
   237  120  121 1    
   238  120  124 1    
   239  120  241 1    
   240  121  122 am   BACKBONE|DICT|INTERRES
   241  121  123 2    
   242  122  242 1    
   243  122  243 1    
   244  124  125 1    
   245  124  244 1    
   246  124  245 1    
   247  125  126 1    
   248  126  246 1    
   249  126  247 1    
@<TRIPOS>SUBSTRUCTURE
     1 UNK         1 GROUP             0       ****    0 ROOT    
