@<TRIPOS>MOLECULE
3R540
247   249    1
SMALL
USER_CHARGES


@<TRIPOS>ATOM
      1 CA         -0.0892  -12.1641  -45.5540 C.3       0 UNK        -0.1800 
      2 C           1.1596  -13.0043  -45.7745 C.2       0 UNK         0.5000 
      3 O           1.5255  -13.7997  -44.9105 O.2       0 UNK        -0.5000 
      4 N           1.7925  -12.8377  -46.9434 N.am      1 UNK        -0.5000 
      5 CA          2.9872  -13.5669  -47.3951 C.3       1 UNK         0.1400 
      6 C6          2.7742  -15.0997  -47.5248 C.3       23 UNK        -0.0398 
      7 S7          1.3591  -15.5477  -48.5853 S.3       23 UNK        -0.2404 
      8 C8          2.1953  -16.1771  -50.0701 C.3       23 UNK        -0.0205 
      9 C9          1.2431  -17.0251  -50.8950 C.ar      23 UNK        -0.0193 
     10 C10         0.5461  -16.4768  -51.9730 C.ar      23 UNK        -0.1150 
     11 C11        -0.3321  -17.2588  -52.7292 C.ar      23 UNK        -0.0193 
     12 C12        -0.5063  -18.6071  -52.3822 C.ar      23 UNK        -0.1150 
     13 C13         0.1823  -19.1746  -51.3055 C.ar      23 UNK        -0.0193 
     14 C14         1.0600  -18.3693  -50.5693 C.ar      23 UNK        -0.1150 
     15 C15        -0.0626  -20.6524  -50.9871 C.3       23 UNK        -0.0205 
     16 S16         1.0586  -21.4074  -49.7589 S.3       23 UNK        -0.2404 
     17 C17         0.3964  -20.7417  -48.1934 C.3       23 UNK        -0.0398 
     18 CA         -0.2633  -21.8377  -47.3247 C.3       11 UNK         0.1400 
     19 N          -0.1321  -21.5482  -45.8905 N.am      11 UNK        -0.5000 
     20 C          -0.3991  -22.4284  -44.9146 C.2       10 UNK         0.5000 
     21 O          -0.8253  -23.5628  -45.1215 O.2       10 UNK        -0.5000 
     22 CA         -0.2060  -21.9559  -43.4654 C.3       10 UNK         0.1400 
     23 CB          1.2855  -21.8455  -43.1154 C.3       10 UNK        -0.1800 
     24 N          -0.8771  -20.6841  -43.2124 N.am      10 UNK        -0.5000 
     25 C          -2.2050  -20.5062  -43.2486 C.2       9 UNK         0.5000 
     26 O          -3.0130  -21.4195  -43.4193 O.2       9 UNK        -0.5000 
     27 CA         -2.7156  -19.0597  -43.1119 C.3       9 UNK         0.1400 
     28 CB         -2.8347  -18.6591  -41.6340 C.3       9 UNK        -0.1800 
     29 N          -1.8801  -18.0859  -43.8173 N.am      9 UNK        -0.5000 
     30 C          -1.6644  -18.0789  -45.1406 C.2       8 UNK         0.5000 
     31 O          -2.1531  -18.8948  -45.9206 O.2       8 UNK        -0.5000 
     32 CA         -0.7031  -17.0081  -45.6798 C.3       8 UNK         0.1400 
     33 CB         -1.4056  -15.6470  -45.7833 C.3       8 UNK        -0.1800 
     34 N           0.5098  -16.8965  -44.8690 N.am      8 UNK        -0.5000 
     35 C           1.4224  -17.8717  -44.7586 C.2       7 UNK         0.5000 
     36 O           1.3660  -18.9339  -45.3816 O.2       7 UNK        -0.5000 
     37 CA          2.5531  -17.6556  -43.7366 C.3       7 UNK         0.1400 
     38 CB          3.6930  -16.8079  -44.3131 C.3       7 UNK        -0.1800 
     39 N           2.0853  -17.0756  -42.4755 N.am      7 UNK        -0.5000 
     40 C           1.2841  -17.7273  -41.6229 C.2       6 UNK         0.5000 
     41 O           0.8487  -18.8591  -41.8292 O.2       6 UNK        -0.5000 
     42 CA          0.8861  -17.0054  -40.3258 C.3       6 UNK         0.1400 
     43 CB          2.0375  -17.0505  -39.3096 C.3       6 UNK        -0.1800 
     44 N           0.4444  -15.6206  -40.4891 N.am      6 UNK        -0.5000 
     45 C          -0.5133  -15.1695  -41.3122 C.2       5 UNK         0.5000 
     46 O          -1.0644  -15.8581  -42.1704 O.2       5 UNK        -0.5000 
     47 CA         -0.9649  -13.7060  -41.1164 C.3       5 UNK         0.1400 
     48 CB         -2.3999  -13.6723  -40.5682 C.3       5 UNK        -0.1800 
     49 N          -0.0994  -12.9693  -40.1846 N.am      5 UNK        -0.5000 
     50 C           1.0579  -12.3483  -40.4543 C.2       4 UNK         0.5000 
     51 O           1.7435  -11.8607  -39.5550 O.2       4 UNK        -0.5000 
     52 CA          1.5181  -12.1829  -41.9173 C.3       4 UNK         0.1400 
     53 CB          1.0464  -10.8301  -42.4721 C.3       4 UNK        -0.1800 
     54 N           2.9677  -12.2546  -42.0440 N.am      4 UNK        -0.5000 
     55 C           3.6929  -13.3746  -41.9570 C.2       3 UNK         0.5000 
     56 O           3.2134  -14.4885  -41.7322 O.2       3 UNK        -0.5000 
     57 CA          5.1999  -13.2040  -42.2282 C.3       3 UNK         0.1400 
     58 CB          6.0093  -14.4898  -41.9919 C.3       3 UNK        -0.1800 
     59 N           5.4121  -12.7493  -43.6029 N.am      3 UNK        -0.5000 
     60 C           5.3455  -11.4793  -44.0174 C.2       2 UNK         0.5000 
     61 O           5.1576  -10.5281  -43.2572 O.2       2 UNK        -0.5000 
     62 CA          5.4570  -11.2262  -45.5317 C.3       2 UNK         0.1400 
     63 CB          6.8680  -11.5430  -46.0658 C.3       2 UNK        -0.1800 
     64 N           4.4063  -11.8921  -46.3134 N.am      2 UNK        -0.5000 
     65 C           4.2246  -13.2023  -46.5415 C.2       1 UNK         0.5000 
     66 O           4.9676  -14.0838  -46.1052 O.2       1 UNK        -0.5000 
     67 C          -1.7228  -22.1154  -47.7525 C.2       11 UNK         0.5000 
     68 O          -1.9599  -22.9611  -48.6195 O.2       11 UNK        -0.5000 
     69 N          -2.6826  -21.4480  -47.0963 N.am      12 UNK        -0.5000 
     70 CA         -4.1206  -21.6747  -47.2471 C.3       12 UNK         0.1400 
     71 CB         -4.8987  -20.6170  -46.4515 C.3       12 UNK        -0.1800 
     72 C          -4.5732  -23.0948  -46.8538 C.2       12 UNK         0.5000 
     73 O          -5.5855  -23.5615  -47.3745 O.2       12 UNK        -0.5000 
     74 N          -3.8157  -23.7594  -45.9717 N.am      13 UNK        -0.5000 
     75 CA         -4.0312  -25.1470  -45.5753 C.3       13 UNK         0.1400 
     76 CB         -3.7779  -25.2876  -44.0652 C.3       13 UNK        -0.1800 
     77 C          -3.1247  -26.0961  -46.3769 C.2       13 UNK         0.5000 
     78 O          -3.6231  -27.0479  -46.9770 O.2       13 UNK        -0.5000 
     79 N          -1.8118  -25.8266  -46.3677 N.am      14 UNK        -0.5000 
     80 CA         -0.7642  -26.7119  -46.8805 C.3       14 UNK         0.1400 
     81 CB          0.6059  -26.2014  -46.4077 C.3       14 UNK        -0.1800 
     82 C          -0.7734  -26.8810  -48.4081 C.2       14 UNK         0.5000 
     83 O          -0.5725  -27.9959  -48.8913 O.2       14 UNK        -0.5000 
     84 N          -1.0095  -25.7824  -49.1351 N.am      15 UNK        -0.5000 
     85 CA         -1.0876  -25.7585  -50.5981 C.3       15 UNK         0.1400 
     86 CB         -0.1959  -24.6208  -51.1212 C.3       15 UNK        -0.1800 
     87 C          -2.5351  -25.5716  -51.0835 C.2       15 UNK         0.5000 
     88 O          -2.7500  -25.4178  -52.2868 O.2       15 UNK        -0.5000 
     89 N          -3.4951  -25.5300  -50.1464 N.am      16 UNK        -0.5000 
     90 CA         -4.9163  -25.2371  -50.3517 C.3       16 UNK         0.1400 
     91 CB         -5.6016  -26.3924  -51.1111 C.3       16 UNK        -0.1800 
     92 C          -5.1412  -23.8623  -51.0183 C.2       16 UNK         0.5000 
     93 O          -6.0065  -23.7392  -51.8840 O.2       16 UNK        -0.5000 
     94 N          -4.3167  -22.8690  -50.6449 N.am      17 UNK        -0.5000 
     95 CA         -4.2436  -21.5254  -51.2355 C.3       17 UNK         0.1400 
     96 CB         -5.5465  -20.7314  -50.9970 C.3       17 UNK        -0.1800 
     97 C          -3.8336  -21.5755  -52.7222 C.2       17 UNK         0.5000 
     98 O          -4.4540  -20.9191  -53.5597 O.2       17 UNK        -0.5000 
     99 N          -2.8099  -22.3933  -53.0123 N.am      18 UNK        -0.5000 
    100 CA        -2.2899  -22.7255  -54.3433 C.3       18 UNK         0.1400 
    101 CB        -1.6209  -21.4980  -54.9959 C.3       18 UNK        -0.1800 
    102 C         -3.3709  -23.3750  -55.2308 C.2       18 UNK         0.5000 
    103 O         -3.6218  -22.9128  -56.3438 O.2       18 UNK        -0.5000 
    104 N         -4.0226  -24.4154  -54.6898 N.am      19 UNK        -0.5000 
    105 CA        -5.1689  -25.1296  -55.2668 C.3       19 UNK         0.1400 
    106 CB        -4.7304  -25.9655  -56.4869 C.3       19 UNK        -0.1800 
    107 C         -6.3531  -24.1842  -55.5694 C.2       19 UNK         0.5000 
    108 O         -6.9060  -24.2008  -56.6704 O.2       19 UNK        -0.5000 
    109 N         -6.6838  -23.3510  -54.5744 N.am      20 UNK        -0.5000 
    110 CA        -7.7186  -22.3151  -54.5380 C.3       20 UNK         0.1400 
    111 CB        -9.1179  -22.9221  -54.7664 C.3       20 UNK        -0.1800 
    112 C         -7.4668  -21.0900  -55.4422 C.2       20 UNK         0.5000 
    113 O         -8.2965  -20.1786  -55.4380 O.2       20 UNK        -0.5000 
    114 N         -6.3407  -21.0412  -56.1706 N.am      21 UNK        -0.5000 
    115 CA        -5.9886  -19.9447  -57.0798 C.3       21 UNK         0.1400 
    116 CB        -4.7463  -20.3278  -57.8964 C.3       21 UNK        -0.1800 
    117 C         -5.7627  -18.5986  -56.3659 C.2       21 UNK         0.5000 
    118 O         -6.0554  -17.5512  -56.9449 O.2       21 UNK        -0.5000 
    119 N         -5.2718  -18.6555  -55.1237 N.am      22 UNK        -0.5000 
    120 CA        -5.0609  -17.5027  -54.2360 C.3       22 UNK         0.1400 
    121 C         -6.2163  -17.3121  -53.2087 C.2       22 UNK         0.5000 
    122 N         -7.3304  -18.0296  -53.3094 N.am      22 UNK        -0.7600 
    123 O         -6.1126  -16.4831  -52.3089 O.2       22 UNK        -0.5000 
    124 C124       -3.6731  -17.5701  -53.5465 C.3       23 UNK        -0.0398 
    125 S125       -2.3078  -17.6019  -54.7609 S.3       23 UNK        -0.2404 
    126 C126       -1.0364  -16.5989  -53.9180 C.3       23 UNK        -0.0205 
    127 H127        0.1591  -11.1031  -45.5408 H         1 UNK         0.0600 
    128 H128       -0.5637  -12.4185  -44.6063 H         1 UNK         0.0600 
    129 H129       -0.8122  -12.3399  -46.3505 H         1 UNK         0.0600 
    130 H130        1.4160  -12.1772  -47.6089 H         1 UNK         0.3000 
    131 H131        3.2052  -13.1918  -48.3963 H         1 UNK         0.0600 
    132 H132        3.6782  -15.5801  -47.9017 H         1 UNK         0.0800 
    133 H133        2.5896  -15.5402  -46.5475 H         1 UNK         0.0800 
    134 H134        2.5776  -15.3402  -50.6564 H         1 UNK         0.0800 
    135 H135        3.0591  -16.7810  -49.7880 H         1 UNK         0.0800 
    136 H136        0.6910  -15.4357  -52.2265 H         1 UNK         0.1150 
    137 H137       -1.1752  -19.2352  -52.9506 H         1 UNK         0.1150 
    138 H138        1.6100  -18.7688  -49.7313 H         1 UNK         0.1150 
    139 H139       -1.0909  -20.7796  -50.6505 H         1 UNK         0.0800 
    140 H140        0.0314  -21.2252  -51.9108 H         1 UNK         0.0800 
    141 H141       -0.2819  -19.9049  -48.3722 H         1 UNK         0.0800 
    142 H142        1.2518  -20.3156  -47.6679 H         1 UNK         0.0800 
    143 H143        0.2858  -22.7683  -47.4854 H         1 UNK         0.0600 
    144 H144        0.2154  -20.6275  -45.6405 H         1 UNK         0.3000 
    145 H145       -0.6509  -22.7069  -42.8092 H         1 UNK         0.0600 
    146 H146        1.4241  -21.6068  -42.0609 H         1 UNK         0.0600 
    147 H147        1.8025  -22.7868  -43.3061 H         1 UNK         0.0600 
    148 H148        1.7836  -21.0718  -43.6999 H         1 UNK         0.0600 
    149 H149       -0.2818  -19.8919  -42.9864 H         1 UNK         0.3000 
    150 H150       -3.7122  -19.0191  -43.5560 H         1 UNK         0.0600 
    151 H151       -3.2644  -17.6627  -41.5289 H         1 UNK         0.0600 
    152 H152       -3.4799  -19.3515  -41.0920 H         1 UNK         0.0600 
    153 H153       -1.8637  -18.6577  -41.1387 H         1 UNK         0.0600 
    154 H154       -1.4531  -17.3571  -43.2499 H         1 UNK         0.3000 
    155 H155       -0.4102  -17.3117  -46.6872 H         1 UNK         0.0600 
    156 H156       -1.5677  -15.1948  -44.8044 H         1 UNK         0.0600 
    157 H157       -2.3777  -15.7416  -46.2691 H         1 UNK         0.0600 
    158 H158       -0.8186  -14.9564  -46.3851 H         1 UNK         0.0600 
    159 H159        0.6257  -16.0523  -44.3242 H         1 UNK         0.3000 
    160 H160        2.9659  -18.6422  -43.5148 H         1 UNK         0.0600 
    161 H161        3.4309  -15.7505  -44.3560 H         1 UNK         0.0600 
    162 H162        3.9601  -17.1308  -45.3200 H         1 UNK         0.0600 
    163 H163        4.5871  -16.9084  -43.7008 H         1 UNK         0.0600 
    164 H164        2.4115  -16.1413  -42.2367 H         1 UNK         0.3000 
    165 H165        0.0442  -17.5544  -39.8999 H         1 UNK         0.0600 
    166 H166        1.7247  -16.6632  -38.3398 H         1 UNK         0.0600 
    167 H167        2.3826  -18.0735  -39.1534 H         1 UNK         0.0600 
    168 H168        2.8929  -16.4627  -39.6459 H         1 UNK         0.0600 
    169 H169        0.8541  -14.9551  -39.8508 H         1 UNK         0.3000 
    170 H170       -0.9876  -13.2198  -42.0922 H         1 UNK         0.0600 
    171 H171       -3.0897  -14.1807  -41.2436 H         1 UNK         0.0600 
    172 H172       -2.4731  -14.1618  -39.5962 H         1 UNK         0.0600 
    173 H173       -2.7554  -12.6478  -40.4561 H         1 UNK         0.0600 
    174 H174       -0.3925  -13.0056  -39.2191 H         1 UNK         0.3000 
    175 H175        1.1163  -12.9814  -42.5366 H         1 UNK         0.0600 
    176 H176        1.4009   -9.9994  -41.8603 H         1 UNK         0.0600 
    177 H177        1.4092  -10.6700  -43.4870 H         1 UNK         0.0600 
    178 H178       -0.0425  -10.7767  -42.4999 H         1 UNK         0.0600 
    179 H179        3.4545  -11.3874  -42.2336 H         1 UNK         0.3000 
    180 H180        5.5725  -12.4506  -41.5310 H         1 UNK         0.0600 
    181 H181        5.7451  -15.2679  -42.7050 H         1 UNK         0.0600 
    182 H182        5.8374  -14.8848  -40.9899 H         1 UNK         0.0600 
    183 H183        7.0786  -14.3016  -42.0883 H         1 UNK         0.0600 
    184 H184        5.4651  -13.4670  -44.3202 H         1 UNK         0.3000 
    185 H185        5.2949  -10.1572  -45.6795 H         1 UNK         0.0600 
    186 H186        7.6209  -10.9558  -45.5388 H         1 UNK         0.0600 
    187 H187        7.1333  -12.5929  -45.9414 H         1 UNK         0.0600 
    188 H188        6.9507  -11.3005  -47.1253 H         1 UNK         0.0600 
    189 H189        3.7056  -11.2676  -46.6876 H         1 UNK         0.3000 
    190 H190       -2.4106  -20.7111  -46.4502 H         1 UNK         0.3000 
    191 H191       -4.3620  -21.5364  -48.2989 H         1 UNK         0.0600 
    192 H192       -4.6608  -19.6105  -46.7959 H         1 UNK         0.0600 
    193 H193       -5.9746  -20.7524  -46.5685 H         1 UNK         0.0600 
    194 H194       -4.6754  -20.6695  -45.3863 H         1 UNK         0.0600 
    195 H195       -2.9917  -23.3051  -45.5984 H         1 UNK         0.3000 
    196 H196       -5.0674  -25.4365  -45.7629 H         1 UNK         0.0600 
    197 H197       -3.9231  -26.3182  -43.7389 H         1 UNK         0.0600 
    198 H198       -4.4670  -24.6651  -43.4943 H         1 UNK         0.0600 
    199 H199       -2.7640  -24.9950  -43.7905 H         1 UNK         0.0600 
    200 H200       -1.4851  -25.0028  -45.8636 H         1 UNK         0.3000 
    201 H201       -0.9241  -27.6987  -46.4411 H         1 UNK         0.0600 
    202 H202        0.6549  -26.1543  -45.3197 H         1 UNK         0.0600 
    203 H203        0.8196  -25.2044  -46.7948 H         1 UNK         0.0600 
    204 H204        1.4069  -26.8624  -46.7411 H         1 UNK         0.0600 
    205 H205       -1.1880  -24.9005  -48.6670 H         1 UNK         0.3000 
    206 H206       -0.7240  -26.6957  -51.0234 H         1 UNK         0.0600 
    207 H207        0.8224  -24.7089  -50.7423 H         1 UNK         0.0600 
    208 H208       -0.1381  -24.6344  -52.2102 H         1 UNK         0.0600 
    209 H209       -0.5797  -23.6451  -50.8260 H         1 UNK         0.0600 
    210 H210       -3.2129  -25.6835  -49.1887 H         1 UNK         0.3000 
    211 H211       -5.3711  -25.1841  -49.3634 H         1 UNK         0.0600 
    212 H212       -5.2264  -26.4898  -52.1297 H         1 UNK         0.0600 
    213 H213       -6.6792  -26.2359  -51.1727 H         1 UNK         0.0600 
    214 H214       -5.4422  -27.3439  -50.6039 H         1 UNK         0.0600 
    215 H215       -3.6097  -23.0799  -49.9485 H         1 UNK         0.3000 
    216 H216       -3.4446  -21.0011  -50.7111 H         1 UNK         0.0600 
    217 H217       -6.3842  -21.1398  -51.5619 H         1 UNK         0.0600 
    218 H218       -5.4278  -19.6920  -51.3042 H         1 UNK         0.0600 
    219 H219       -5.8276  -20.7264  -49.9447 H         1 UNK         0.0600 
    220 H220       -2.4283  -22.9446  -52.2582 H         1 UNK         0.3000 
    221 H221       -1.5180  -23.4825  -54.1977 H         1 UNK         0.0600 
    222 H222       -2.3318  -20.6904  -55.1712 H         1 UNK         0.0600 
    223 H223       -0.8166  -21.1099  -54.3723 H         1 UNK         0.0600 
    224 H224       -1.1826  -21.7593  -55.9596 H         1 UNK         0.0600 
    225 H225       -3.7169  -24.7357  -53.7735 H         1 UNK         0.3000 
    226 H226       -5.5185  -25.8228  -54.5008 H         1 UNK         0.0600 
    227 H227       -3.9131  -26.6389  -56.2288 H         1 UNK         0.0600 
    228 H228       -5.5531  -26.5798  -56.8544 H         1 UNK         0.0600 
    229 H229       -4.3982  -25.3360  -57.3129 H         1 UNK         0.0600 
    230 H230       -6.1831  -23.4522  -53.6934 H         1 UNK         0.3000 
    231 H231       -7.6973  -21.9302  -53.5177 H         1 UNK         0.0600 
    232 H232       -9.2467  -23.2738  -55.7902 H         1 UNK         0.0600 
    233 H233       -9.8996  -22.1858  -54.5764 H         1 UNK         0.0600 
    234 H234       -9.2972  -23.7625  -54.0958 H         1 UNK         0.0600 
    235 H235       -5.6766  -21.8015  -56.0962 H         1 UNK         0.3000 
    236 H236       -6.8217  -19.8143  -57.7734 H         1 UNK         0.0600 
    237 H237       -4.8884  -21.2758  -58.4156 H         1 UNK         0.0600 
    238 H238       -4.5278  -19.5712  -58.6508 H         1 UNK         0.0600 
    239 H239       -3.8639  -20.4192  -57.2620 H         1 UNK         0.0600 
    240 H240       -5.0556  -19.5629  -54.7160 H         1 UNK         0.3000 
    241 H241       -5.0695  -16.5896  -54.8334 H         1 UNK         0.0600 
    242 H242       -7.4615  -18.6836  -54.0696 H         1 UNK         0.3800 
    243 H243       -8.0711  -17.8850  -52.6420 H         1 UNK         0.3800 
    244 H244       -3.5996  -18.4527  -52.9111 H         1 UNK         0.0800 
    245 H245       -3.5345  -16.7104  -52.8891 H         1 UNK         0.0800 
    246 H246       -1.4836  -15.6560  -53.5996 H         1 UNK         0.0800 
    247 H247       -0.2764  -16.3404  -54.6565 H         1 UNK         0.0800 
@<TRIPOS>BOND
     1    1    2 1    
     2    1  127 1    
     3    1  128 1    
     4    1  129 1    
     5    2    3 2    
     6    2    4 am   BACKBONE|DICT|INTERRES
     7    4    5 1    
     8    4  130 1    
     9    5    6 1    
    10    5   65 1    
    11    5  131 1    
    12    6    7 1    
    13    6  132 1    
    14    6  133 1    
    15    7    8 1    
    16    8    9 1    
    17    8  134 1    
    18    8  135 1    
    19    9   10 ar   
    20    9   14 ar   
    21   10   11 ar   
    22   10  136 1    
    23   11   12 ar   
    24   11  126 1    
    25   12   13 ar   
    26   12  137 1    
    27   13   14 ar   
    28   13   15 1    
    29   14  138 1    
    30   15   16 1    
    31   15  139 1    
    32   15  140 1    
    33   16   17 1    
    34   17   18 1    
    35   17  141 1    
    36   17  142 1    
    37   18   19 1    
    38   18   67 1    
    39   18  143 1    
    40   19   20 am   BACKBONE|DICT|INTERRES
    41   19  144 1    
    42   20   21 2    
    43   20   22 1    
    44   22   23 1    
    45   22   24 1    
    46   22  145 1    
    47   23  146 1    
    48   23  147 1    
    49   23  148 1    
    50   24   25 am   BACKBONE|DICT|INTERRES
    51   24  149 1    
    52   25   26 2    
    53   25   27 1    
    54   27   28 1    
    55   27   29 1    
    56   27  150 1    
    57   28  151 1    
    58   28  152 1    
    59   28  153 1    
    60   29   30 am   BACKBONE|DICT|INTERRES
    61   29  154 1    
    62   30   31 2    
    63   30   32 1    
    64   32   33 1    
    65   32   34 1    
    66   32  155 1    
    67   33  156 1    
    68   33  157 1    
    69   33  158 1    
    70   34   35 am   BACKBONE|DICT|INTERRES
    71   34  159 1    
    72   35   36 2    
    73   35   37 1    
    74   37   38 1    
    75   37   39 1    
    76   37  160 1    
    77   38  161 1    
    78   38  162 1    
    79   38  163 1    
    80   39   40 am   BACKBONE|DICT|INTERRES
    81   39  164 1    
    82   40   41 2    
    83   40   42 1    
    84   42   43 1    
    85   42   44 1    
    86   42  165 1    
    87   43  166 1    
    88   43  167 1    
    89   43  168 1    
    90   44   45 am   BACKBONE|DICT|INTERRES
    91   44  169 1    
    92   45   46 2    
    93   45   47 1    
    94   47   48 1    
    95   47   49 1    
    96   47  170 1    
    97   48  171 1    
    98   48  172 1    
    99   48  173 1    
   100   49   50 am   BACKBONE|DICT|INTERRES
   101   49  174 1    
   102   50   51 2    
   103   50   52 1    
   104   52   53 1    
   105   52   54 1    
   106   52  175 1    
   107   53  176 1    
   108   53  177 1    
   109   53  178 1    
   110   54   55 am   BACKBONE|DICT|INTERRES
   111   54  179 1    
   112   55   56 2    
   113   55   57 1    
   114   57   58 1    
   115   57   59 1    
   116   57  180 1    
   117   58  181 1    
   118   58  182 1    
   119   58  183 1    
   120   59   60 am   BACKBONE|DICT|INTERRES
   121   59  184 1    
   122   60   61 2    
   123   60   62 1    
   124   62   63 1    
   125   62   64 1    
   126   62  185 1    
   127   63  186 1    
   128   63  187 1    
   129   63  188 1    
   130   64   65 am   BACKBONE|DICT|INTERRES
   131   64  189 1    
   132   65   66 2    
   133   67   68 2    
   134   67   69 am   BACKBONE|DICT|INTERRES
   135   69   70 1    
   136   69  190 1    
   137   70   71 1    
   138   70   72 1    
   139   70  191 1    
   140   71  192 1    
   141   71  193 1    
   142   71  194 1    
   143   72   73 2    
   144   72   74 am   BACKBONE|DICT|INTERRES
   145   74   75 1    
   146   74  195 1    
   147   75   76 1    
   148   75   77 1    
   149   75  196 1    
   150   76  197 1    
   151   76  198 1    
   152   76  199 1    
   153   77   78 2    
   154   77   79 am   BACKBONE|DICT|INTERRES
   155   79   80 1    
   156   79  200 1    
   157   80   81 1    
   158   80   82 1    
   159   80  201 1    
   160   81  202 1    
   161   81  203 1    
   162   81  204 1    
   163   82   83 2    
   164   82   84 am   BACKBONE|DICT|INTERRES
   165   84   85 1    
   166   84  205 1    
   167   85   86 1    
   168   85   87 1    
   169   85  206 1    
   170   86  207 1    
   171   86  208 1    
   172   86  209 1    
   173   87   88 2    
   174   87   89 am   BACKBONE|DICT|INTERRES
   175   89   90 1    
   176   89  210 1    
   177   90   91 1    
   178   90   92 1    
   179   90  211 1    
   180   91  212 1    
   181   91  213 1    
   182   91  214 1    
   183   92   93 2    
   184   92   94 am   BACKBONE|DICT|INTERRES
   185   94   95 1    
   186   94  215 1    
   187   95   96 1    
   188   95   97 1    
   189   95  216 1    
   190   96  217 1    
   191   96  218 1    
   192   96  219 1    
   193   97   98 2    
   194   97   99 am   BACKBONE|DICT|INTERRES
   195   99  100 1    
   196   99  220 1    
   197  100  101 1    
   198  100  102 1    
   199  100  221 1    
   200  101  222 1    
   201  101  223 1    
   202  101  224 1    
   203  102  103 2    
   204  102  104 am   BACKBONE|DICT|INTERRES
   205  104  105 1    
   206  104  225 1    
   207  105  106 1    
   208  105  107 1    
   209  105  226 1    
   210  106  227 1    
   211  106  228 1    
   212  106  229 1    
   213  107  108 2    
   214  107  109 am   BACKBONE|DICT|INTERRES
   215  109  110 1    
   216  109  230 1    
   217  110  111 1    
   218  110  112 1    
   219  110  231 1    
   220  111  232 1    
   221  111  233 1    
   222  111  234 1    
   223  112  113 2    
   224  112  114 am   BACKBONE|DICT|INTERRES
   225  114  115 1    
   226  114  235 1    
   227  115  116 1    
   228  115  117 1    
   229  115  236 1    
   230  116  237 1    
   231  116  238 1    
   232  116  239 1    
   233  117  118 2    
   234  117  119 am   BACKBONE|DICT|INTERRES
   235  119  120 1    
   236  119  240 1    
   237  120  121 1    
   238  120  124 1    
   239  120  241 1    
   240  121  122 am   BACKBONE|DICT|INTERRES
   241  121  123 2    
   242  122  242 1    
   243  122  243 1    
   244  124  125 1    
   245  124  244 1    
   246  124  245 1    
   247  125  126 1    
   248  126  246 1    
   249  126  247 1    
@<TRIPOS>SUBSTRUCTURE
     1 UNK         1 GROUP             0       ****    0 ROOT    
