@<TRIPOS>MOLECULE
3R540
247   249    1
SMALL
USER_CHARGES


@<TRIPOS>ATOM
      1 CA          4.0124   -9.4480  -48.2927 C.3       0 UNK        -0.1800 
      2 C           3.3244  -10.7012  -47.7719 C.2       0 UNK         0.5000 
      3 O           3.9336  -11.4713  -47.0313 O.2       0 UNK        -0.5000 
      4 N           2.0520  -10.9032  -48.1408 N.am      1 UNK        -0.5000 
      5 CA          1.2247  -12.0567  -47.7546 C.3       1 UNK         0.1400 
      6 C6         -0.1298  -12.0416  -48.5098 C.3       23 UNK        -0.0398 
      7 S7         -0.8300  -13.7028  -48.7829 S.3       23 UNK        -0.2404 
      8 C8         -0.1874  -14.0799  -50.4456 C.3       23 UNK        -0.0205 
      9 C9         -0.7691  -15.3800  -50.9778 C.ar      23 UNK        -0.0193 
     10 C10        -2.0266  -15.3813  -51.5876 C.ar      23 UNK        -0.1150 
     11 C11        -2.5901  -16.5685  -52.0625 C.ar      23 UNK        -0.0193 
     12 C12        -1.8872  -17.7677  -51.8941 C.ar      23 UNK        -0.1150 
     13 C13        -0.6184  -17.7804  -51.3099 C.ar      23 UNK        -0.0193 
     14 C14        -0.0584  -16.5786  -50.8652 C.ar      23 UNK        -0.1150 
     15 C15         0.1434  -19.0957  -51.1953 C.3       23 UNK        -0.0205 
     16 S16         0.7501  -19.4557  -49.5162 S.3       23 UNK        -0.2404 
     17 C17        -0.8077  -19.6048  -48.5793 C.3       23 UNK        -0.0398 
     18 CA         -1.2728  -21.0662  -48.3710 C.3       11 UNK         0.1400 
     19 N          -0.2268  -21.8944  -47.7603 N.am      11 UNK        -0.5000 
     20 C          -0.3546  -23.1450  -47.2946 C.2       10 UNK         0.5000 
     21 O          -1.3761  -23.8239  -47.4093 O.2       10 UNK        -0.5000 
     22 CA          0.8367  -23.7169  -46.5035 C.3       10 UNK         0.1400 
     23 CB          1.7044  -24.5913  -47.4197 C.3       10 UNK        -0.1800 
     24 N           1.6900  -22.7211  -45.8398 N.am      10 UNK        -0.5000 
     25 C           1.2960  -21.7469  -45.0054 C.2       9 UNK         0.5000 
     26 O           0.1154  -21.4863  -44.7528 O.2       9 UNK        -0.5000 
     27 CA          2.4242  -20.8943  -44.4008 C.3       9 UNK         0.1400 
     28 CB          3.0276  -19.9583  -45.4623 C.3       9 UNK        -0.1800 
     29 N           1.9511  -20.1205  -43.2489 N.am      9 UNK        -0.5000 
     30 C           1.8511  -20.6318  -42.0140 C.2       8 UNK         0.5000 
     31 O           2.1568  -21.7907  -41.7290 O.2       8 UNK        -0.5000 
     32 CA          1.3630  -19.6966  -40.8970 C.3       8 UNK         0.1400 
     33 CB          2.5389  -18.8791  -40.3386 C.3       8 UNK        -0.1800 
     34 N           0.3073  -18.7782  -41.3226 N.am      8 UNK        -0.5000 
     35 C          -0.9987  -19.0623  -41.2810 C.2       7 UNK         0.5000 
     36 O          -1.4420  -20.1814  -41.0217 O.2       7 UNK        -0.5000 
     37 CA         -1.9846  -17.9014  -41.4942 C.3       7 UNK         0.1400 
     38 CB         -2.1929  -17.1446  -40.1673 C.3       7 UNK        -0.1800 
     39 N          -1.6056  -16.9624  -42.5583 N.am      7 UNK        -0.5000 
     40 C          -2.4960  -16.1581  -43.1660 C.2       6 UNK         0.5000 
     41 O          -3.7003  -16.1702  -42.9048 O.2       6 UNK        -0.5000 
     42 CA         -1.9992  -15.1554  -44.2316 C.3       6 UNK         0.1400 
     43 CB         -1.9318  -13.7358  -43.6492 C.3       6 UNK        -0.1800 
     44 N          -0.7054  -15.4757  -44.8248 N.am      6 UNK        -0.5000 
     45 C          -0.4508  -16.5496  -45.5767 C.2       5 UNK         0.5000 
     46 O          -1.3035  -17.3791  -45.8902 O.2       5 UNK        -0.5000 
     47 CA          1.0108  -16.7671  -46.0105 C.3       5 UNK         0.1400 
     48 CB          1.2366  -16.3510  -47.4674 C.3       5 UNK        -0.1800 
     49 N           2.0322  -16.1380  -45.1629 N.am      5 UNK        -0.5000 
     50 C           2.2072  -16.3971  -43.8608 C.2       4 UNK         0.5000 
     51 O           1.4531  -17.1180  -43.2097 O.2       4 UNK        -0.5000 
     52 CA          3.4258  -15.7760  -43.1713 C.3       4 UNK         0.1400 
     53 CB          4.6892  -16.5955  -43.5019 C.3       4 UNK        -0.1800 
     54 N           3.5957  -14.3639  -43.5189 N.am      4 UNK        -0.5000 
     55 C           4.3908  -13.5198  -42.8445 C.2       3 UNK         0.5000 
     56 O           5.0736  -13.8526  -41.8745 O.2       3 UNK        -0.5000 
     57 CA          4.4402  -12.0534  -43.3137 C.3       3 UNK         0.1400 
     58 CB          5.6213  -11.8405  -44.2722 C.3       3 UNK        -0.1800 
     59 N           3.2035  -11.5961  -43.9498 N.am      3 UNK        -0.5000 
     60 C           2.0513  -11.3890  -43.2929 C.2       2 UNK         0.5000 
     61 O           1.9202  -11.5790  -42.0832 O.2       2 UNK        -0.5000 
     62 CA          0.8393  -10.8737  -44.0979 C.3       2 UNK         0.1400 
     63 CB          0.5633   -9.3988  -43.7666 C.3       2 UNK        -0.1800 
     64 N           0.9664  -11.0078  -45.5498 N.am      2 UNK        -0.5000 
     65 C           1.0301  -12.1645  -46.2233 C.2       1 UNK         0.5000 
     66 O           1.0039  -13.2668  -45.6755 O.2       1 UNK        -0.5000 
     67 C          -2.5804  -21.0797  -47.5522 C.2       11 UNK         0.5000 
     68 O          -3.6495  -21.2922  -48.1244 O.2       11 UNK        -0.5000 
     69 N          -2.4474  -20.9124  -46.2303 N.am      12 UNK        -0.5000 
     70 CA         -3.5453  -20.9398  -45.2715 C.3       12 UNK         0.1400 
     71 CB         -3.4400  -19.7064  -44.3643 C.3       12 UNK        -0.1800 
     72 C          -3.5261  -22.2256  -44.4306 C.2       12 UNK         0.5000 
     73 O          -4.5882  -22.8017  -44.1983 O.2       12 UNK        -0.5000 
     74 N          -2.3357  -22.6659  -43.9955 N.am      13 UNK        -0.5000 
     75 CA         -2.1589  -23.7764  -43.0539 C.3       13 UNK         0.1400 
     76 CB         -0.7189  -23.7730  -42.5219 C.3       13 UNK        -0.1800 
     77 C          -2.5176  -25.1560  -43.6347 C.2       13 UNK         0.5000 
     78 O          -3.0089  -26.0097  -42.8956 O.2       13 UNK        -0.5000 
     79 N          -2.2872  -25.3417  -44.9404 N.am      14 UNK        -0.5000 
     80 CA         -2.6825  -26.5308  -45.7012 C.3       14 UNK         0.1400 
     81 CB         -1.4473  -27.0925  -46.4270 C.3       14 UNK        -0.1800 
     82 C          -3.8138  -26.2045  -46.6968 C.2       14 UNK         0.5000 
     83 O          -4.2140  -27.0809  -47.4637 O.2       14 UNK        -0.5000 
     84 N          -4.2960  -24.9514  -46.6727 N.am      15 UNK        -0.5000 
     85 CA         -5.3107  -24.3547  -47.5438 C.3       15 UNK         0.1400 
     86 CB         -6.6966  -24.9719  -47.2658 C.3       15 UNK        -0.1800 
     87 C          -4.9322  -24.3836  -49.0394 C.2       15 UNK         0.5000 
     88 O          -5.8188  -24.4623  -49.8913 O.2       15 UNK        -0.5000 
     89 N          -3.6282  -24.2993  -49.3504 N.am      16 UNK        -0.5000 
     90 CA         -3.1033  -24.3613  -50.7185 C.3       16 UNK         0.1400 
     91 CB         -1.5691  -24.4195  -50.6905 C.3       16 UNK        -0.1800 
     92 C          -3.6004  -23.2216  -51.6296 C.2       16 UNK         0.5000 
     93 O          -3.6996  -23.4266  -52.8393 O.2       16 UNK        -0.5000 
     94 N          -3.9722  -22.0775  -51.0338 N.am      17 UNK        -0.5000 
     95 CA         -4.6045  -20.9405  -51.7075 C.3       17 UNK         0.1400 
     96 CB         -4.7283  -19.7781  -50.7118 C.3       17 UNK        -0.1800 
     97 C          -5.9864  -21.2603  -52.3172 C.2       17 UNK         0.5000 
     98 O          -6.4116  -20.5708  -53.2439 O.2       17 UNK        -0.5000 
     99 N          -6.6740  -22.2873  -51.7947 N.am      18 UNK        -0.5000 
    100 CA        -7.9464  -22.7682  -52.3347 C.3       18 UNK         0.1400 
    101 CB        -8.7332  -23.4854  -51.2265 C.3       18 UNK        -0.1800 
    102 C         -7.7489  -23.6973  -53.5475 C.2       18 UNK         0.5000 
    103 O         -8.6634  -23.8215  -54.3633 O.2       18 UNK        -0.5000 
    104 N         -6.5751  -24.3370  -53.6439 N.am      19 UNK        -0.5000 
    105 CA        -6.2099  -25.2362  -54.7350 C.3       19 UNK         0.1400 
    106 CB        -5.2370  -26.3073  -54.2136 C.3       19 UNK        -0.1800 
    107 C         -5.6032  -24.4592  -55.9140 C.2       19 UNK         0.5000 
    108 O         -6.0752  -24.6026  -57.0427 O.2       19 UNK        -0.5000 
    109 N         -4.5783  -23.6485  -55.6279 N.am      20 UNK        -0.5000 
    110 CA        -3.8314  -22.8328  -56.5812 C.3       20 UNK         0.1400 
    111 CB        -3.0157  -23.7224  -57.5506 C.3       20 UNK        -0.1800 
    112 C         -2.9778  -21.8525  -55.7608 C.2       20 UNK         0.5000 
    113 O         -3.5439  -21.0599  -55.0119 O.2       20 UNK        -0.5000 
    114 N         -1.6464  -21.9349  -55.8920 N.am      21 UNK        -0.5000 
    115 CA        -0.5870  -21.3061  -55.0885 C.3       21 UNK         0.1400 
    116 CB        -0.6542  -21.8088  -53.6346 C.3       21 UNK        -0.1800 
    117 C         -0.4857  -19.7649  -55.1345 C.2       21 UNK         0.5000 
    118 O          0.6239  -19.2469  -55.0010 O.2       21 UNK        -0.5000 
    119 N         -1.6077  -19.0597  -55.3104 N.am      22 UNK        -0.5000 
    120 CA        -1.6940  -17.5934  -55.3984 C.3       22 UNK         0.1400 
    121 C         -0.9300  -17.0073  -56.6191 C.2       22 UNK         0.5000 
    122 N         -0.2934  -15.8537  -56.4659 N.am      22 UNK        -0.7600 
    123 O         -0.9489  -17.5631  -57.7155 O.2       22 UNK        -0.5000 
    124 C124       -3.1620  -17.0889  -55.4026 C.3       23 UNK        -0.0398 
    125 S125       -4.2001  -17.7567  -54.0561 S.3       23 UNK        -0.2404 
    126 C126       -3.9653  -16.5278  -52.7261 C.3       23 UNK        -0.0205 
    127 H127        4.3358   -8.8247  -47.4590 H         1 UNK         0.0600 
    128 H128        3.3516   -8.8551  -48.9254 H         1 UNK         0.0600 
    129 H129        4.8911   -9.7193  -48.8777 H         1 UNK         0.0600 
    130 H130        1.6088  -10.2268  -48.7463 H         1 UNK         0.3000 
    131 H131        1.7834  -12.9412  -48.0672 H         1 UNK         0.0600 
    132 H132       -0.8684  -11.4312  -47.9867 H         1 UNK         0.0800 
    133 H133       -0.0136  -11.5705  -49.4868 H         1 UNK         0.0800 
    134 H134        0.9016  -14.1367  -50.4087 H         1 UNK         0.0800 
    135 H135       -0.4336  -13.2664  -51.1298 H         1 UNK         0.0800 
    136 H136       -2.5706  -14.4521  -51.6843 H         1 UNK         0.1150 
    137 H137       -2.3168  -18.6950  -52.2439 H         1 UNK         0.1150 
    138 H138        0.9250  -16.5813  -50.4173 H         1 UNK         0.1150 
    139 H139       -0.4890  -19.9267  -51.5044 H         1 UNK         0.0800 
    140 H140        0.9888  -19.0733  -51.8841 H         1 UNK         0.0800 
    141 H141       -1.5871  -19.0155  -49.0647 H         1 UNK         0.0800 
    142 H142       -0.6336  -19.1300  -47.6145 H         1 UNK         0.0800 
    143 H143       -1.4964  -21.4886  -49.3505 H         1 UNK         0.0600 
    144 H144        0.6626  -21.4368  -47.6276 H         1 UNK         0.3000 
    145 H145        0.4225  -24.3555  -45.7219 H         1 UNK         0.0600 
    146 H146        1.1052  -25.3540  -47.9192 H         1 UNK         0.0600 
    147 H147        2.4786  -25.1100  -46.8540 H         1 UNK         0.0600 
    148 H148        2.1927  -23.9993  -48.1949 H         1 UNK         0.0600 
    149 H149        2.6810  -22.8306  -46.0004 H         1 UNK         0.3000 
    150 H150        3.2173  -21.5642  -44.0608 H         1 UNK         0.0600 
    151 H151        2.2890  -19.6347  -46.1935 H         1 UNK         0.0600 
    152 H152        3.8059  -20.4758  -46.0237 H         1 UNK         0.0600 
    153 H153        3.4870  -19.0742  -45.0213 H         1 UNK         0.0600 
    154 H154        1.6469  -19.1678  -43.4084 H         1 UNK         0.3000 
    155 H155        0.9835  -20.3226  -40.0861 H         1 UNK         0.0600 
    156 H156        2.9751  -18.2277  -41.0964 H         1 UNK         0.0600 
    157 H157        3.3316  -19.5340  -39.9745 H         1 UNK         0.0600 
    158 H158        2.2235  -18.2557  -39.5018 H         1 UNK         0.0600 
    159 H159        0.6182  -17.8697  -41.6463 H         1 UNK         0.3000 
    160 H160       -2.9356  -18.3639  -41.7668 H         1 UNK         0.0600 
    161 H161       -1.2955  -16.5985  -39.8742 H         1 UNK         0.0600 
    162 H162       -2.4390  -17.8320  -39.3568 H         1 UNK         0.0600 
    163 H163       -3.0116  -16.4285  -40.2375 H         1 UNK         0.0600 
    164 H164       -0.6355  -16.9437  -42.8506 H         1 UNK         0.3000 
    165 H165       -2.7378  -15.1548  -45.0359 H         1 UNK         0.0600 
    166 H166       -1.7258  -13.0052  -44.4314 H         1 UNK         0.0600 
    167 H167       -2.8781  -13.4535  -43.1859 H         1 UNK         0.0600 
    168 H168       -1.1536  -13.6498  -42.8898 H         1 UNK         0.0600 
    169 H169        0.0387  -14.7972  -44.7087 H         1 UNK         0.3000 
    170 H170        1.1574  -17.8420  -45.9497 H         1 UNK         0.0600 
    171 H171        2.1522  -16.7885  -47.8654 H         1 UNK         0.0600 
    172 H172        1.3104  -15.2699  -47.5678 H         1 UNK         0.0600 
    173 H173        0.4135  -16.6858  -48.0983 H         1 UNK         0.0600 
    174 H174        2.6858  -15.5325  -45.6357 H         1 UNK         0.3000 
    175 H175        3.2452  -15.8395  -42.0960 H         1 UNK         0.0600 
    176 H176        4.5406  -17.6517  -43.2728 H         1 UNK         0.0600 
    177 H177        4.9523  -16.5209  -44.5576 H         1 UNK         0.0600 
    178 H178        5.5493  -16.2653  -42.9203 H         1 UNK         0.0600 
    179 H179        3.0109  -13.9965  -44.2580 H         1 UNK         0.3000 
    180 H180        4.6107  -11.4324  -42.4316 H         1 UNK         0.0600 
    181 H181        5.5432  -12.4775  -45.1538 H         1 UNK         0.0600 
    182 H182        6.5669  -12.0771  -43.7828 H         1 UNK         0.0600 
    183 H183        5.6790  -10.8051  -44.6085 H         1 UNK         0.0600 
    184 H184        3.2406  -11.4383  -44.9499 H         1 UNK         0.3000 
    185 H185       -0.0250  -11.4588  -43.7813 H         1 UNK         0.0600 
    186 H186        0.4225   -9.2567  -42.6942 H         1 UNK         0.0600 
    187 H187        1.3882   -8.7564  -44.0774 H         1 UNK         0.0600 
    188 H188       -0.3429   -9.0460  -44.2595 H         1 UNK         0.0600 
    189 H189        1.0337  -10.1483  -46.0750 H         1 UNK         0.3000 
    190 H190       -1.5148  -20.8187  -45.8432 H         1 UNK         0.3000 
    191 H191       -4.5068  -20.8957  -45.7877 H         1 UNK         0.0600 
    192 H192       -3.5661  -18.7869  -44.9362 H         1 UNK         0.0600 
    193 H193       -4.2078  -19.7164  -43.5897 H         1 UNK         0.0600 
    194 H194       -2.4686  -19.6585  -43.8720 H         1 UNK         0.0600 
    195 H195       -1.4931  -22.1476  -44.2348 H         1 UNK         0.3000 
    196 H196       -2.8252  -23.5971  -42.2073 H         1 UNK         0.0600 
    197 H197       -0.5796  -24.5460  -41.7652 H         1 UNK         0.0600 
    198 H198       -0.4754  -22.8173  -42.0572 H         1 UNK         0.0600 
    199 H199        0.0071  -23.9560  -43.3137 H         1 UNK         0.0600 
    200 H200       -1.8960  -24.5847  -45.4871 H         1 UNK         0.3000 
    201 H201       -3.0624  -27.3068  -45.0340 H         1 UNK         0.0600 
    202 H202       -1.6803  -28.0391  -46.9158 H         1 UNK         0.0600 
    203 H203       -0.6307  -27.2808  -45.7299 H         1 UNK         0.0600 
    204 H204       -1.0826  -26.4127  -47.1962 H         1 UNK         0.0600 
    205 H205       -3.9162  -24.3309  -45.9731 H         1 UNK         0.3000 
    206 H206       -5.3617  -23.3004  -47.2688 H         1 UNK         0.0600 
    207 H207       -6.9444  -24.9210  -46.2055 H         1 UNK         0.0600 
    208 H208       -7.4793  -24.4381  -47.8062 H         1 UNK         0.0600 
    209 H209       -6.7426  -26.0173  -47.5724 H         1 UNK         0.0600 
    210 H210       -2.9477  -24.2126  -48.6017 H         1 UNK         0.3000 
    211 H211       -3.4615  -25.2959  -51.1552 H         1 UNK         0.0600 
    212 H212       -1.1314  -23.5006  -50.3053 H         1 UNK         0.0600 
    213 H213       -1.1692  -24.5738  -51.6934 H         1 UNK         0.0600 
    214 H214       -1.2162  -25.2437  -50.0701 H         1 UNK         0.0600 
    215 H215       -3.8910  -22.0065  -50.0249 H         1 UNK         0.3000 
    216 H216       -3.9475  -20.6241  -52.5177 H         1 UNK         0.0600 
    217 H217       -5.1737  -18.9045  -51.1870 H         1 UNK         0.0600 
    218 H218       -3.7543  -19.4784  -50.3266 H         1 UNK         0.0600 
    219 H219       -5.3591  -20.0430  -49.8625 H         1 UNK         0.0600 
    220 H220       -6.2685  -22.8329  -51.0414 H         1 UNK         0.3000 
    221 H221       -8.5406  -21.9127  -52.6630 H         1 UNK         0.0600 
    222 H222       -8.2382  -24.4022  -50.9056 H         1 UNK         0.0600 
    223 H223       -8.8591  -22.8469  -50.3520 H         1 UNK         0.0600 
    224 H224       -9.7294  -23.7603  -51.5751 H         1 UNK         0.0600 
    225 H225       -5.8562  -24.1340  -52.9630 H         1 UNK         0.3000 
    226 H226       -7.1036  -25.7511  -55.0945 H         1 UNK         0.0600 
    227 H227       -4.9619  -27.0017  -55.0083 H         1 UNK         0.0600 
    228 H228       -4.3155  -25.8720  -53.8265 H         1 UNK         0.0600 
    229 H229       -5.6903  -26.8925  -53.4133 H         1 UNK         0.0600 
    230 H230       -4.2824  -23.5470  -54.6582 H         1 UNK         0.3000 
    231 H231       -4.5386  -22.2356  -57.1598 H         1 UNK         0.0600 
    232 H232       -2.3409  -24.3925  -57.0164 H         1 UNK         0.0600 
    233 H233       -2.4221  -23.1189  -58.2384 H         1 UNK         0.0600 
    234 H234       -3.6676  -24.3404  -58.1675 H         1 UNK         0.0600 
    235 H235       -1.3064  -22.5934  -56.5785 H         1 UNK         0.3000 
    236 H236        0.3460  -21.6796  -55.5133 H         1 UNK         0.0600 
    237 H237       -0.7020  -22.8969  -53.5943 H         1 UNK         0.0600 
    238 H238        0.2325  -21.5051  -53.0780 H         1 UNK         0.0600 
    239 H239       -1.5284  -21.4174  -53.1137 H         1 UNK         0.0600 
    240 H240       -2.4855  -19.5714  -55.3381 H         1 UNK         0.3000 
    241 H241       -1.2092  -17.2030  -54.5032 H         1 UNK         0.0600 
    242 H242        0.1920  -15.4545  -57.2545 H         1 UNK         0.3800 
    243 H243       -0.2688  -15.3757  -55.5783 H         1 UNK         0.3800 
    244 H244       -3.6454  -17.3618  -56.3424 H         1 UNK         0.0800 
    245 H245       -3.1893  -15.9989  -55.3577 H         1 UNK         0.0800 
    246 H246       -4.7191  -16.6983  -51.9575 H         1 UNK         0.0800 
    247 H247       -4.1641  -15.5345  -53.1312 H         1 UNK         0.0800 
@<TRIPOS>BOND
     1    1    2 1    
     2    1  127 1    
     3    1  128 1    
     4    1  129 1    
     5    2    3 2    
     6    2    4 am   BACKBONE|DICT|INTERRES
     7    4    5 1    
     8    4  130 1    
     9    5    6 1    
    10    5   65 1    
    11    5  131 1    
    12    6    7 1    
    13    6  132 1    
    14    6  133 1    
    15    7    8 1    
    16    8    9 1    
    17    8  134 1    
    18    8  135 1    
    19    9   10 ar   
    20    9   14 ar   
    21   10   11 ar   
    22   10  136 1    
    23   11   12 ar   
    24   11  126 1    
    25   12   13 ar   
    26   12  137 1    
    27   13   14 ar   
    28   13   15 1    
    29   14  138 1    
    30   15   16 1    
    31   15  139 1    
    32   15  140 1    
    33   16   17 1    
    34   17   18 1    
    35   17  141 1    
    36   17  142 1    
    37   18   19 1    
    38   18   67 1    
    39   18  143 1    
    40   19   20 am   BACKBONE|DICT|INTERRES
    41   19  144 1    
    42   20   21 2    
    43   20   22 1    
    44   22   23 1    
    45   22   24 1    
    46   22  145 1    
    47   23  146 1    
    48   23  147 1    
    49   23  148 1    
    50   24   25 am   BACKBONE|DICT|INTERRES
    51   24  149 1    
    52   25   26 2    
    53   25   27 1    
    54   27   28 1    
    55   27   29 1    
    56   27  150 1    
    57   28  151 1    
    58   28  152 1    
    59   28  153 1    
    60   29   30 am   BACKBONE|DICT|INTERRES
    61   29  154 1    
    62   30   31 2    
    63   30   32 1    
    64   32   33 1    
    65   32   34 1    
    66   32  155 1    
    67   33  156 1    
    68   33  157 1    
    69   33  158 1    
    70   34   35 am   BACKBONE|DICT|INTERRES
    71   34  159 1    
    72   35   36 2    
    73   35   37 1    
    74   37   38 1    
    75   37   39 1    
    76   37  160 1    
    77   38  161 1    
    78   38  162 1    
    79   38  163 1    
    80   39   40 am   BACKBONE|DICT|INTERRES
    81   39  164 1    
    82   40   41 2    
    83   40   42 1    
    84   42   43 1    
    85   42   44 1    
    86   42  165 1    
    87   43  166 1    
    88   43  167 1    
    89   43  168 1    
    90   44   45 am   BACKBONE|DICT|INTERRES
    91   44  169 1    
    92   45   46 2    
    93   45   47 1    
    94   47   48 1    
    95   47   49 1    
    96   47  170 1    
    97   48  171 1    
    98   48  172 1    
    99   48  173 1    
   100   49   50 am   BACKBONE|DICT|INTERRES
   101   49  174 1    
   102   50   51 2    
   103   50   52 1    
   104   52   53 1    
   105   52   54 1    
   106   52  175 1    
   107   53  176 1    
   108   53  177 1    
   109   53  178 1    
   110   54   55 am   BACKBONE|DICT|INTERRES
   111   54  179 1    
   112   55   56 2    
   113   55   57 1    
   114   57   58 1    
   115   57   59 1    
   116   57  180 1    
   117   58  181 1    
   118   58  182 1    
   119   58  183 1    
   120   59   60 am   BACKBONE|DICT|INTERRES
   121   59  184 1    
   122   60   61 2    
   123   60   62 1    
   124   62   63 1    
   125   62   64 1    
   126   62  185 1    
   127   63  186 1    
   128   63  187 1    
   129   63  188 1    
   130   64   65 am   BACKBONE|DICT|INTERRES
   131   64  189 1    
   132   65   66 2    
   133   67   68 2    
   134   67   69 am   BACKBONE|DICT|INTERRES
   135   69   70 1    
   136   69  190 1    
   137   70   71 1    
   138   70   72 1    
   139   70  191 1    
   140   71  192 1    
   141   71  193 1    
   142   71  194 1    
   143   72   73 2    
   144   72   74 am   BACKBONE|DICT|INTERRES
   145   74   75 1    
   146   74  195 1    
   147   75   76 1    
   148   75   77 1    
   149   75  196 1    
   150   76  197 1    
   151   76  198 1    
   152   76  199 1    
   153   77   78 2    
   154   77   79 am   BACKBONE|DICT|INTERRES
   155   79   80 1    
   156   79  200 1    
   157   80   81 1    
   158   80   82 1    
   159   80  201 1    
   160   81  202 1    
   161   81  203 1    
   162   81  204 1    
   163   82   83 2    
   164   82   84 am   BACKBONE|DICT|INTERRES
   165   84   85 1    
   166   84  205 1    
   167   85   86 1    
   168   85   87 1    
   169   85  206 1    
   170   86  207 1    
   171   86  208 1    
   172   86  209 1    
   173   87   88 2    
   174   87   89 am   BACKBONE|DICT|INTERRES
   175   89   90 1    
   176   89  210 1    
   177   90   91 1    
   178   90   92 1    
   179   90  211 1    
   180   91  212 1    
   181   91  213 1    
   182   91  214 1    
   183   92   93 2    
   184   92   94 am   BACKBONE|DICT|INTERRES
   185   94   95 1    
   186   94  215 1    
   187   95   96 1    
   188   95   97 1    
   189   95  216 1    
   190   96  217 1    
   191   96  218 1    
   192   96  219 1    
   193   97   98 2    
   194   97   99 am   BACKBONE|DICT|INTERRES
   195   99  100 1    
   196   99  220 1    
   197  100  101 1    
   198  100  102 1    
   199  100  221 1    
   200  101  222 1    
   201  101  223 1    
   202  101  224 1    
   203  102  103 2    
   204  102  104 am   BACKBONE|DICT|INTERRES
   205  104  105 1    
   206  104  225 1    
   207  105  106 1    
   208  105  107 1    
   209  105  226 1    
   210  106  227 1    
   211  106  228 1    
   212  106  229 1    
   213  107  108 2    
   214  107  109 am   BACKBONE|DICT|INTERRES
   215  109  110 1    
   216  109  230 1    
   217  110  111 1    
   218  110  112 1    
   219  110  231 1    
   220  111  232 1    
   221  111  233 1    
   222  111  234 1    
   223  112  113 2    
   224  112  114 am   BACKBONE|DICT|INTERRES
   225  114  115 1    
   226  114  235 1    
   227  115  116 1    
   228  115  117 1    
   229  115  236 1    
   230  116  237 1    
   231  116  238 1    
   232  116  239 1    
   233  117  118 2    
   234  117  119 am   BACKBONE|DICT|INTERRES
   235  119  120 1    
   236  119  240 1    
   237  120  121 1    
   238  120  124 1    
   239  120  241 1    
   240  121  122 am   BACKBONE|DICT|INTERRES
   241  121  123 2    
   242  122  242 1    
   243  122  243 1    
   244  124  125 1    
   245  124  244 1    
   246  124  245 1    
   247  125  126 1    
   248  126  246 1    
   249  126  247 1    
@<TRIPOS>SUBSTRUCTURE
     1 UNK         1 GROUP             0       ****    0 ROOT    
