@<TRIPOS>MOLECULE
3R540
247   249    1
SMALL
USER_CHARGES


@<TRIPOS>ATOM
      1 CA          6.8224  -13.7810  -45.1184 C.3       0 UNK        -0.1800 
      2 C           5.3893  -13.8660  -44.6127 C.2       0 UNK         0.5000 
      3 O           5.1728  -14.1573  -43.4370 O.2       0 UNK        -0.5000 
      4 N           4.4164  -13.6296  -45.5007 N.am      1 UNK        -0.5000 
      5 CA          2.9787  -13.6664  -45.2120 C.3       1 UNK         0.1400 
      6 C6          2.1276  -13.6777  -46.5045 C.3       23 UNK        -0.0398 
      7 S7          2.5164  -15.1223  -47.5392 S.3       23 UNK        -0.2404 
      8 C8          1.1588  -15.0845  -48.7476 C.3       23 UNK        -0.0205 
      9 C9          1.3064  -16.2048  -49.7671 C.ar      23 UNK        -0.0193 
     10 C10         1.4279  -15.9157  -51.1292 C.ar      23 UNK        -0.1150 
     11 C11         1.5888  -16.9437  -52.0644 C.ar      23 UNK        -0.0193 
     12 C12         1.6220  -18.2717  -51.6234 C.ar      23 UNK        -0.1150 
     13 C13         1.4755  -18.5751  -50.2672 C.ar      23 UNK        -0.0193 
     14 C14         1.3272  -17.5369  -49.3463 C.ar      23 UNK        -0.1150 
     15 C15         1.4794  -20.0197  -49.7945 C.3       23 UNK        -0.0205 
     16 S16        -0.2110  -20.6870  -49.7409 S.3       23 UNK        -0.2404 
     17 C17         0.0843  -22.4501  -49.3548 C.3       23 UNK        -0.0398 
     18 CA         -0.4504  -22.9199  -47.9780 C.3       11 UNK         0.1400 
     19 N           0.2363  -22.2719  -46.8534 N.am      11 UNK        -0.5000 
     20 C           0.1103  -22.6303  -45.5660 C.2       10 UNK         0.5000 
     21 O          -0.6849  -23.4896  -45.1810 O.2       10 UNK        -0.5000 
     22 CA          0.9936  -21.8839  -44.5451 C.3       10 UNK         0.1400 
     23 CB          1.2135  -22.6797  -43.2420 C.3       10 UNK        -0.1800 
     24 N           2.2654  -21.4177  -45.1115 N.am      10 UNK        -0.5000 
     25 C           3.2775  -22.1673  -45.5753 C.2       9 UNK         0.5000 
     26 O           3.2773  -23.3983  -45.5480 O.2       9 UNK        -0.5000 
     27 CA          4.4936  -21.4451  -46.1865 C.3       9 UNK         0.1400 
     28 CB          4.6169  -21.7490  -47.6918 C.3       9 UNK        -0.1800 
     29 N           4.5019  -19.9925  -45.9720 N.am      9 UNK        -0.5000 
     30 C           5.6223  -19.2570  -45.8974 C.2       8 UNK         0.5000 
     31 O           6.7563  -19.7314  -45.9807 O.2       8 UNK        -0.5000 
     32 CA          5.4667  -17.7343  -45.7041 C.3       8 UNK         0.1400 
     33 CB          5.4619  -17.0319  -47.0696 C.3       8 UNK        -0.1800 
     34 N           4.2623  -17.3649  -44.9585 N.am      8 UNK        -0.5000 
     35 C           4.0630  -17.6438  -43.6626 C.2       7 UNK         0.5000 
     36 O           4.9310  -18.1354  -42.9401 O.2       7 UNK        -0.5000 
     37 CA          2.6649  -17.3756  -43.0613 C.3       7 UNK         0.1400 
     38 CB          2.7205  -16.2787  -41.9849 C.3       7 UNK        -0.1800 
     39 N           1.5802  -17.0519  -43.9946 N.am      7 UNK        -0.5000 
     40 C           1.1390  -17.7828  -45.0243 C.2       6 UNK         0.5000 
     41 O           1.7503  -18.7530  -45.4748 O.2       6 UNK        -0.5000 
     42 CA         -0.2216  -17.3768  -45.6351 C.3       6 UNK         0.1400 
     43 CB         -0.8641  -18.5361  -46.4211 C.3       6 UNK        -0.1800 
     44 N          -1.2006  -16.9193  -44.6427 N.am      6 UNK        -0.5000 
     45 C          -1.2252  -15.7418  -44.0080 C.2       5 UNK         0.5000 
     46 O          -0.3601  -14.8715  -44.1336 O.2       5 UNK        -0.5000 
     47 CA         -2.3714  -15.5456  -43.0101 C.3       5 UNK         0.1400 
     48 CB         -1.9071  -15.8731  -41.5785 C.3       5 UNK        -0.1800 
     49 N          -2.8919  -14.1804  -43.0950 N.am      5 UNK        -0.5000 
     50 C          -4.1412  -13.8411  -42.7427 C.2       4 UNK         0.5000 
     51 O          -4.9368  -14.6429  -42.2493 O.2       4 UNK        -0.5000 
     52 CA         -4.5943  -12.3869  -42.9815 C.3       4 UNK         0.1400 
     53 CB         -5.6820  -11.9297  -41.9884 C.3       4 UNK        -0.1800 
     54 N          -3.4778  -11.4431  -42.9481 N.am      4 UNK        -0.5000 
     55 C          -3.4010  -10.3265  -43.6859 C.2       3 UNK         0.5000 
     56 O          -4.2585   -9.9888  -44.5036 O.2       3 UNK        -0.5000 
     57 CA         -2.1663   -9.4228  -43.4797 C.3       3 UNK         0.1400 
     58 CB         -2.5233   -8.2256  -42.5847 C.3       3 UNK        -0.1800 
     59 N          -1.0077  -10.1134  -42.9056 N.am      3 UNK        -0.5000 
     60 C          -0.3266  -11.0887  -43.5186 C.2       2 UNK         0.5000 
     61 O          -0.6029  -11.5015  -44.6483 O.2       2 UNK        -0.5000 
     62 CA          0.8177  -11.7271  -42.7105 C.3       2 UNK         0.1400 
     63 CB          0.2799  -12.4075  -41.4406 C.3       2 UNK        -0.1800 
     64 N           1.4909  -12.7358  -43.5207 N.am      2 UNK        -0.5000 
     65 C           2.5518  -12.5018  -44.2979 C.2       1 UNK         0.5000 
     66 O           3.1551  -11.4255  -44.3367 O.2       1 UNK        -0.5000 
     67 C          -1.9914  -22.8479  -47.8799 C.2       11 UNK         0.5000 
     68 O          -2.6733  -23.7925  -48.2850 O.2       11 UNK        -0.5000 
     69 N          -2.5055  -21.7533  -47.2992 N.am      12 UNK        -0.5000 
     70 CA         -3.9239  -21.5290  -47.0144 C.3       12 UNK         0.1400 
     71 CB         -4.1320  -20.0804  -46.5519 C.3       12 UNK        -0.1800 
     72 C          -4.5052  -22.5140  -45.9842 C.2       12 UNK         0.5000 
     73 O          -5.6769  -22.8737  -46.0909 O.2       12 UNK        -0.5000 
     74 N          -3.6807  -22.9465  -45.0223 N.am      13 UNK        -0.5000 
     75 CA         -4.0472  -23.9577  -44.0333 C.3       13 UNK         0.1400 
     76 CB         -3.2222  -23.7441  -42.7543 C.3       13 UNK        -0.1800 
     77 C          -3.8387  -25.3771  -44.5861 C.2       13 UNK         0.5000 
     78 O          -4.6586  -26.2574  -44.3234 O.2       13 UNK        -0.5000 
     79 N          -2.7427  -25.5722  -45.3322 N.am      14 UNK        -0.5000 
     80 CA         -2.3196  -26.8667  -45.8597 C.3       14 UNK         0.1400 
     81 CB         -0.8637  -26.7687  -46.3398 C.3       14 UNK        -0.1800 
     82 C          -3.2211  -27.4090  -46.9829 C.2       14 UNK         0.5000 
     83 O          -3.5415  -28.5986  -46.9665 O.2       14 UNK        -0.5000 
     84 N          -3.5907  -26.5541  -47.9474 N.am      15 UNK        -0.5000 
     85 CA         -4.2722  -26.9725  -49.1765 C.3       15 UNK         0.1400 
     86 CB         -3.2384  -27.5426  -50.1711 C.3       15 UNK        -0.1800 
     87 C          -5.1166  -25.8456  -49.7970 C.2       15 UNK         0.5000 
     88 O          -5.2461  -25.7892  -51.0221 O.2       15 UNK        -0.5000 
     89 N          -5.6529  -24.9416  -48.9602 N.am      16 UNK        -0.5000 
     90 CA         -6.4893  -23.7873  -49.3384 C.3       16 UNK         0.1400 
     91 CB         -7.8624  -24.2668  -49.8539 C.3       16 UNK        -0.1800 
     92 C          -5.8042  -22.8200  -50.3311 C.2       16 UNK         0.5000 
     93 O          -6.4822  -22.1419  -51.1062 O.2       16 UNK        -0.5000 
     94 N          -4.4625  -22.8195  -50.3281 N.am      17 UNK        -0.5000 
     95 CA         -3.5682  -22.1400  -51.2656 C.3       17 UNK         0.1400 
     96 CB         -3.5953  -20.6176  -51.0265 C.3       17 UNK        -0.1800 
     97 C          -3.8292  -22.5355  -52.7337 C.2       17 UNK         0.5000 
     98 O          -3.6710  -21.7015  -53.6248 O.2       17 UNK        -0.5000 
     99 N          -4.2450  -23.7917  -52.9616 N.am      18 UNK        -0.5000 
    100 CA        -4.6877  -24.3508  -54.2447 C.3       18 UNK         0.1400 
    101 CB        -3.5201  -24.4262  -55.2509 C.3       18 UNK        -0.1800 
    102 C         -5.9259  -23.6154  -54.8031 C.2       18 UNK         0.5000 
    103 O         -6.0076  -23.3644  -56.0058 O.2       18 UNK        -0.5000 
    104 N         -6.8530  -23.2730  -53.8955 N.am      19 UNK        -0.5000 
    105 CA        -8.0395  -22.4376  -54.0975 C.3       19 UNK         0.1400 
    106 CB        -9.0173  -23.0695  -55.1111 C.3       19 UNK        -0.1800 
    107 C         -7.6520  -20.9822  -54.4285 C.2       19 UNK         0.5000 
    108 O         -8.1064  -20.4296  -55.4321 O.2       19 UNK        -0.5000 
    109 N         -6.8140  -20.3991  -53.5565 N.am      20 UNK        -0.5000 
    110 CA        -6.2994  -19.0242  -53.6022 C.3       20 UNK         0.1400 
    111 CB        -7.4352  -18.0149  -53.3324 C.3       20 UNK        -0.1800 
    112 C         -5.5030  -18.7130  -54.8883 C.2       20 UNK         0.5000 
    113 O         -5.7548  -17.7022  -55.5479 O.2       20 UNK        -0.5000 
    114 N         -4.5553  -19.5966  -55.2192 N.am      21 UNK        -0.5000 
    115 CA        -3.7167  -19.5379  -56.4167 C.3       21 UNK         0.1400 
    116 CB        -4.2405  -20.5662  -57.4354 C.3       21 UNK        -0.1800 
    117 C         -2.2257  -19.7556  -56.0864 C.2       21 UNK         0.5000 
    118 O         -1.4594  -20.1220  -56.9789 O.2       21 UNK        -0.5000 
    119 N         -1.8366  -19.5315  -54.8215 N.am      22 UNK        -0.5000 
    120 CA        -0.4757  -19.7211  -54.2775 C.3       22 UNK         0.1400 
    121 C          0.0069  -21.2054  -54.2341 C.2       22 UNK         0.5000 
    122 N         -0.8812  -22.1880  -54.2880 N.am      22 UNK        -0.7600 
    123 O          1.1987  -21.4783  -54.1190 O.2       22 UNK        -0.5000 
    124 C124        0.5751  -18.7722  -54.9263 C.3       23 UNK        -0.0398 
    125 S125        0.2794  -17.0146  -54.5297 S.3       23 UNK        -0.2404 
    126 C126        1.7576  -16.6069  -53.5408 C.3       23 UNK        -0.0205 
    127 H127        7.3725  -13.0220  -44.5623 H         1 UNK         0.0600 
    128 H128        6.8644  -13.5252  -46.1775 H         1 UNK         0.0600 
    129 H129        7.3245  -14.7387  -44.9807 H         1 UNK         0.0600 
    130 H130        4.6600  -13.3800  -46.4479 H         1 UNK         0.3000 
    131 H131        2.7820  -14.5951  -44.6750 H         1 UNK         0.0600 
    132 H132        1.0627  -13.7055  -46.2638 H         1 UNK         0.0800 
    133 H133        2.2917  -12.7702  -47.0884 H         1 UNK         0.0800 
    134 H134        1.1503  -14.1114  -49.2410 H         1 UNK         0.0800 
    135 H135        0.2005  -15.1842  -48.2373 H         1 UNK         0.0800 
    136 H136        1.4106  -14.8871  -51.4613 H         1 UNK         0.1150 
    137 H137        1.7579  -19.0750  -52.3317 H         1 UNK         0.1150 
    138 H138        1.2470  -17.7608  -48.2945 H         1 UNK         0.1150 
    139 H139        2.0974  -20.6283  -50.4567 H         1 UNK         0.0800 
    140 H140        1.9215  -20.0811  -48.8000 H         1 UNK         0.0800 
    141 H141       -0.3623  -23.0478  -50.1509 H         1 UNK         0.0800 
    142 H142        1.1537  -22.6567  -49.4136 H         1 UNK         0.0800 
    143 H143       -0.2009  -23.9791  -47.9029 H         1 UNK         0.0600 
    144 H144        0.8949  -21.5441  -47.0853 H         1 UNK         0.3000 
    145 H145        0.4385  -20.9833  -44.2804 H         1 UNK         0.0600 
    146 H146        1.8437  -22.1278  -42.5448 H         1 UNK         0.0600 
    147 H147        1.6834  -23.6455  -43.4290 H         1 UNK         0.0600 
    148 H148        0.2660  -22.8727  -42.7378 H         1 UNK         0.0600 
    149 H149        2.3128  -20.4070  -45.2085 H         1 UNK         0.3000 
    150 H150        5.3620  -21.8752  -45.6828 H         1 UNK         0.0600 
    151 H151        4.6245  -22.8236  -47.8787 H         1 UNK         0.0600 
    152 H152        5.5424  -21.3463  -48.1034 H         1 UNK         0.0600 
    153 H153        3.7886  -21.3244  -48.2562 H         1 UNK         0.0600 
    154 H154        3.6083  -19.5217  -45.8930 H         1 UNK         0.3000 
    155 H155        6.3338  -17.3796  -45.1430 H         1 UNK         0.0600 
    156 H156        6.3652  -17.2684  -47.6333 H         1 UNK         0.0600 
    157 H157        5.4271  -15.9489  -46.9597 H         1 UNK         0.0600 
    158 H158        4.6089  -17.3385  -47.6764 H         1 UNK         0.0600 
    159 H159        3.4925  -16.9892  -45.4925 H         1 UNK         0.3000 
    160 H160        2.3748  -18.3047  -42.5668 H         1 UNK         0.0600 
    161 H161        2.9440  -15.3021  -42.4125 H         1 UNK         0.0600 
    162 H162        3.4901  -16.4924  -41.2420 H         1 UNK         0.0600 
    163 H163        1.7726  -16.1997  -41.4522 H         1 UNK         0.0600 
    164 H164        1.0118  -16.2497  -43.7498 H         1 UNK         0.3000 
    165 H165       -0.0239  -16.5589  -46.3282 H         1 UNK         0.0600 
    166 H166       -1.7503  -18.1967  -46.9564 H         1 UNK         0.0600 
    167 H167       -0.1898  -18.9597  -47.1633 H         1 UNK         0.0600 
    168 H168       -1.1568  -19.3487  -45.7563 H         1 UNK         0.0600 
    169 H169       -1.9308  -17.5819  -44.4268 H         1 UNK         0.3000 
    170 H170       -3.1713  -16.2385  -43.2816 H         1 UNK         0.0600 
    171 H171       -1.0730  -15.2470  -41.2647 H         1 UNK         0.0600 
    172 H172       -2.7135  -15.7430  -40.8569 H         1 UNK         0.0600 
    173 H173       -1.5760  -16.9098  -41.5067 H         1 UNK         0.0600 
    174 H174       -2.2916  -13.5116  -43.5609 H         1 UNK         0.3000 
    175 H175       -5.0313  -12.3861  -43.9822 H         1 UNK         0.0600 
    176 H176       -5.3145  -11.9414  -40.9618 H         1 UNK         0.0600 
    177 H177       -6.0214  -10.9179  -42.2108 H         1 UNK         0.0600 
    178 H178       -6.5588  -12.5768  -42.0338 H         1 UNK         0.0600 
    179 H179       -2.7393  -11.6431  -42.2893 H         1 UNK         0.3000 
    180 H180       -1.8770   -9.0405  -44.4609 H         1 UNK         0.0600 
    181 H181       -2.8038   -8.5442  -41.5799 H         1 UNK         0.0600 
    182 H182       -3.3635   -7.6653  -42.9973 H         1 UNK         0.0600 
    183 H183       -1.6857   -7.5334  -42.4975 H         1 UNK         0.0600 
    184 H184       -0.7278   -9.8245  -41.9792 H         1 UNK         0.3000 
    185 H185        1.5208  -10.9438  -42.4197 H         1 UNK         0.0600 
    186 H186        1.0612  -12.9735  -40.9327 H         1 UNK         0.0600 
    187 H187       -0.1003  -11.6748  -40.7282 H         1 UNK         0.0600 
    188 H188       -0.5343  -13.0924  -41.6712 H         1 UNK         0.0600 
    189 H189        0.9650  -13.5947  -43.6571 H         1 UNK         0.3000 
    190 H190       -1.8657  -21.0260  -47.0196 H         1 UNK         0.3000 
    191 H191       -4.4810  -21.6586  -47.9405 H         1 UNK         0.0600 
    192 H192       -5.1857  -19.8837  -46.3497 H         1 UNK         0.0600 
    193 H193       -3.8166  -19.3745  -47.3201 H         1 UNK         0.0600 
    194 H194       -3.5784  -19.8632  -45.6381 H         1 UNK         0.0600 
    195 H195       -2.7117  -22.6581  -45.0357 H         1 UNK         0.3000 
    196 H196       -5.1021  -23.8473  -43.7723 H         1 UNK         0.0600 
    197 H197       -2.1531  -23.8587  -42.9351 H         1 UNK         0.0600 
    198 H198       -3.5026  -24.4659  -41.9862 H         1 UNK         0.0600 
    199 H199       -3.3872  -22.7491  -42.3408 H         1 UNK         0.0600 
    200 H200       -2.0918  -24.8011  -45.4454 H         1 UNK         0.3000 
    201 H201       -2.3495  -27.5841  -45.0368 H         1 UNK         0.0600 
    202 H202       -0.2068  -26.4116  -45.5462 H         1 UNK         0.0600 
    203 H203       -0.7657  -26.0917  -47.1874 H         1 UNK         0.0600 
    204 H204       -0.4920  -27.7439  -46.6568 H         1 UNK         0.0600 
    205 H205       -3.2749  -25.5879  -47.9116 H         1 UNK         0.3000 
    206 H206       -4.9846  -27.7641  -48.9357 H         1 UNK         0.0600 
    207 H207       -2.6906  -28.3812  -49.7415 H         1 UNK         0.0600 
    208 H208       -2.5119  -26.7846  -50.4662 H         1 UNK         0.0600 
    209 H209       -3.7198  -27.9106  -51.0779 H         1 UNK         0.0600 
    210 H210       -5.4857  -25.0540  -47.9698 H         1 UNK         0.3000 
    211 H211       -6.6667  -23.2115  -48.4316 H         1 UNK         0.0600 
    212 H212       -7.7784  -24.7949  -50.8042 H         1 UNK         0.0600 
    213 H213       -8.5404  -23.4262  -50.0068 H         1 UNK         0.0600 
    214 H214       -8.3386  -24.9375  -49.1388 H         1 UNK         0.0600 
    215 H215       -3.9952  -23.4048  -49.6419 H         1 UNK         0.3000 
    216 H216       -2.5606  -22.4902  -51.0432 H         1 UNK         0.0600 
    217 H217       -2.8934  -20.0988  -51.6804 H         1 UNK         0.0600 
    218 H218       -3.3120  -20.3801  -50.0013 H         1 UNK         0.0600 
    219 H219       -4.5851  -20.1992  -51.1975 H         1 UNK         0.0600 
    220 H220       -4.3874  -24.4037  -52.1631 H         1 UNK         0.3000 
    221 H221       -5.0083  -25.3725  -54.0356 H         1 UNK         0.0600 
    222 H222       -3.2041  -23.4381  -55.5853 H         1 UNK         0.0600 
    223 H223       -2.6559  -24.9281  -54.8164 H         1 UNK         0.0600 
    224 H224       -3.8095  -24.9896  -56.1386 H         1 UNK         0.0600 
    225 H225       -6.6492  -23.4832  -52.9274 H         1 UNK         0.3000 
    226 H226       -8.5523  -22.4041  -53.1349 H         1 UNK         0.0600 
    227 H227       -9.2647  -24.0941  -54.8338 H         1 UNK         0.0600 
    228 H228       -9.9516  -22.5083  -55.1472 H         1 UNK         0.0600 
    229 H229       -8.6103  -23.0839  -56.1223 H         1 UNK         0.0600 
    230 H230       -6.5205  -20.9522  -52.7570 H         1 UNK         0.3000 
    231 H231       -5.5880  -18.9302  -52.7829 H         1 UNK         0.0600 
    232 H232       -7.0449  -16.9997  -53.2526 H         1 UNK         0.0600 
    233 H233       -7.9463  -18.2391  -52.3962 H         1 UNK         0.0600 
    234 H234       -8.1792  -18.0172  -54.1295 H         1 UNK         0.0600 
    235 H235       -4.3940  -20.4034  -54.6166 H         1 UNK         0.3000 
    236 H236       -3.7795  -18.5472  -56.8706 H         1 UNK         0.0600 
    237 H237       -4.1318  -21.5851  -57.0628 H         1 UNK         0.0600 
    238 H238       -5.2961  -20.4028  -57.6536 H         1 UNK         0.0600 
    239 H239       -3.7001  -20.4997  -58.3802 H         1 UNK         0.0600 
    240 H240       -2.5405  -19.2495  -54.1561 H         1 UNK         0.3000 
    241 H241       -0.5513  -19.4469  -53.2249 H         1 UNK         0.0600 
    242 H242       -0.5628  -23.1426  -54.2636 H         1 UNK         0.3800 
    243 H243       -1.8723  -21.9774  -54.3240 H         1 UNK         0.3800 
    244 H244        0.5845  -18.8837  -56.0104 H         1 UNK         0.0800 
    245 H245        1.5862  -19.0307  -54.6127 H         1 UNK         0.0800 
    246 H246        1.9555  -15.5404  -53.6582 H         1 UNK         0.0800 
    247 H247        2.6382  -17.1123  -53.9395 H         1 UNK         0.0800 
@<TRIPOS>BOND
     1    1    2 1    
     2    1  127 1    
     3    1  128 1    
     4    1  129 1    
     5    2    3 2    
     6    2    4 am   BACKBONE|DICT|INTERRES
     7    4    5 1    
     8    4  130 1    
     9    5    6 1    
    10    5   65 1    
    11    5  131 1    
    12    6    7 1    
    13    6  132 1    
    14    6  133 1    
    15    7    8 1    
    16    8    9 1    
    17    8  134 1    
    18    8  135 1    
    19    9   10 ar   
    20    9   14 ar   
    21   10   11 ar   
    22   10  136 1    
    23   11   12 ar   
    24   11  126 1    
    25   12   13 ar   
    26   12  137 1    
    27   13   14 ar   
    28   13   15 1    
    29   14  138 1    
    30   15   16 1    
    31   15  139 1    
    32   15  140 1    
    33   16   17 1    
    34   17   18 1    
    35   17  141 1    
    36   17  142 1    
    37   18   19 1    
    38   18   67 1    
    39   18  143 1    
    40   19   20 am   BACKBONE|DICT|INTERRES
    41   19  144 1    
    42   20   21 2    
    43   20   22 1    
    44   22   23 1    
    45   22   24 1    
    46   22  145 1    
    47   23  146 1    
    48   23  147 1    
    49   23  148 1    
    50   24   25 am   BACKBONE|DICT|INTERRES
    51   24  149 1    
    52   25   26 2    
    53   25   27 1    
    54   27   28 1    
    55   27   29 1    
    56   27  150 1    
    57   28  151 1    
    58   28  152 1    
    59   28  153 1    
    60   29   30 am   BACKBONE|DICT|INTERRES
    61   29  154 1    
    62   30   31 2    
    63   30   32 1    
    64   32   33 1    
    65   32   34 1    
    66   32  155 1    
    67   33  156 1    
    68   33  157 1    
    69   33  158 1    
    70   34   35 am   BACKBONE|DICT|INTERRES
    71   34  159 1    
    72   35   36 2    
    73   35   37 1    
    74   37   38 1    
    75   37   39 1    
    76   37  160 1    
    77   38  161 1    
    78   38  162 1    
    79   38  163 1    
    80   39   40 am   BACKBONE|DICT|INTERRES
    81   39  164 1    
    82   40   41 2    
    83   40   42 1    
    84   42   43 1    
    85   42   44 1    
    86   42  165 1    
    87   43  166 1    
    88   43  167 1    
    89   43  168 1    
    90   44   45 am   BACKBONE|DICT|INTERRES
    91   44  169 1    
    92   45   46 2    
    93   45   47 1    
    94   47   48 1    
    95   47   49 1    
    96   47  170 1    
    97   48  171 1    
    98   48  172 1    
    99   48  173 1    
   100   49   50 am   BACKBONE|DICT|INTERRES
   101   49  174 1    
   102   50   51 2    
   103   50   52 1    
   104   52   53 1    
   105   52   54 1    
   106   52  175 1    
   107   53  176 1    
   108   53  177 1    
   109   53  178 1    
   110   54   55 am   BACKBONE|DICT|INTERRES
   111   54  179 1    
   112   55   56 2    
   113   55   57 1    
   114   57   58 1    
   115   57   59 1    
   116   57  180 1    
   117   58  181 1    
   118   58  182 1    
   119   58  183 1    
   120   59   60 am   BACKBONE|DICT|INTERRES
   121   59  184 1    
   122   60   61 2    
   123   60   62 1    
   124   62   63 1    
   125   62   64 1    
   126   62  185 1    
   127   63  186 1    
   128   63  187 1    
   129   63  188 1    
   130   64   65 am   BACKBONE|DICT|INTERRES
   131   64  189 1    
   132   65   66 2    
   133   67   68 2    
   134   67   69 am   BACKBONE|DICT|INTERRES
   135   69   70 1    
   136   69  190 1    
   137   70   71 1    
   138   70   72 1    
   139   70  191 1    
   140   71  192 1    
   141   71  193 1    
   142   71  194 1    
   143   72   73 2    
   144   72   74 am   BACKBONE|DICT|INTERRES
   145   74   75 1    
   146   74  195 1    
   147   75   76 1    
   148   75   77 1    
   149   75  196 1    
   150   76  197 1    
   151   76  198 1    
   152   76  199 1    
   153   77   78 2    
   154   77   79 am   BACKBONE|DICT|INTERRES
   155   79   80 1    
   156   79  200 1    
   157   80   81 1    
   158   80   82 1    
   159   80  201 1    
   160   81  202 1    
   161   81  203 1    
   162   81  204 1    
   163   82   83 2    
   164   82   84 am   BACKBONE|DICT|INTERRES
   165   84   85 1    
   166   84  205 1    
   167   85   86 1    
   168   85   87 1    
   169   85  206 1    
   170   86  207 1    
   171   86  208 1    
   172   86  209 1    
   173   87   88 2    
   174   87   89 am   BACKBONE|DICT|INTERRES
   175   89   90 1    
   176   89  210 1    
   177   90   91 1    
   178   90   92 1    
   179   90  211 1    
   180   91  212 1    
   181   91  213 1    
   182   91  214 1    
   183   92   93 2    
   184   92   94 am   BACKBONE|DICT|INTERRES
   185   94   95 1    
   186   94  215 1    
   187   95   96 1    
   188   95   97 1    
   189   95  216 1    
   190   96  217 1    
   191   96  218 1    
   192   96  219 1    
   193   97   98 2    
   194   97   99 am   BACKBONE|DICT|INTERRES
   195   99  100 1    
   196   99  220 1    
   197  100  101 1    
   198  100  102 1    
   199  100  221 1    
   200  101  222 1    
   201  101  223 1    
   202  101  224 1    
   203  102  103 2    
   204  102  104 am   BACKBONE|DICT|INTERRES
   205  104  105 1    
   206  104  225 1    
   207  105  106 1    
   208  105  107 1    
   209  105  226 1    
   210  106  227 1    
   211  106  228 1    
   212  106  229 1    
   213  107  108 2    
   214  107  109 am   BACKBONE|DICT|INTERRES
   215  109  110 1    
   216  109  230 1    
   217  110  111 1    
   218  110  112 1    
   219  110  231 1    
   220  111  232 1    
   221  111  233 1    
   222  111  234 1    
   223  112  113 2    
   224  112  114 am   BACKBONE|DICT|INTERRES
   225  114  115 1    
   226  114  235 1    
   227  115  116 1    
   228  115  117 1    
   229  115  236 1    
   230  116  237 1    
   231  116  238 1    
   232  116  239 1    
   233  117  118 2    
   234  117  119 am   BACKBONE|DICT|INTERRES
   235  119  120 1    
   236  119  240 1    
   237  120  121 1    
   238  120  124 1    
   239  120  241 1    
   240  121  122 am   BACKBONE|DICT|INTERRES
   241  121  123 2    
   242  122  242 1    
   243  122  243 1    
   244  124  125 1    
   245  124  244 1    
   246  124  245 1    
   247  125  126 1    
   248  126  246 1    
   249  126  247 1    
@<TRIPOS>SUBSTRUCTURE
     1 UNK         1 GROUP             0       ****    0 ROOT    
