@<TRIPOS>MOLECULE
3R540
247   249    1
SMALL
USER_CHARGES


@<TRIPOS>ATOM
      1 CA          4.0414  -11.9309  -51.2817 C.3       0 UNK        -0.1800 
      2 C           4.2508  -12.4854  -49.8799 C.2       0 UNK         0.5000 
      3 O           5.2498  -12.1632  -49.2368 O.2       0 UNK        -0.5000 
      4 N           3.3143  -13.3180  -49.4075 N.am      1 UNK        -0.5000 
      5 CA          3.3141  -13.9253  -48.0696 C.3       1 UNK         0.1400 
      6 C6          2.3702  -15.1501  -47.9920 C.3       23 UNK        -0.0398 
      7 S7          0.6787  -14.8701  -48.6348 S.3       23 UNK        -0.2404 
      8 C8         -0.1580  -16.4437  -48.2404 C.3       23 UNK        -0.0205 
      9 C9          0.2762  -17.6021  -49.1275 C.ar      23 UNK        -0.0193 
     10 C10        -0.5299  -18.0228  -50.1890 C.ar      23 UNK        -0.1150 
     11 C11        -0.1528  -19.1149  -50.9770 C.ar      23 UNK        -0.0193 
     12 C12         1.0546  -19.7709  -50.7151 C.ar      23 UNK        -0.1150 
     13 C13         1.8766  -19.3486  -49.6668 C.ar      23 UNK        -0.0193 
     14 C14         1.4672  -18.2826  -48.8630 C.ar      23 UNK        -0.1150 
     15 C15         3.2269  -20.0089  -49.4229 C.3       23 UNK        -0.0205 
     16 S16         3.0991  -21.6298  -48.6074 S.3       23 UNK        -0.2404 
     17 C17         2.3613  -21.1999  -46.9921 C.3       23 UNK        -0.0398 
     18 CA          1.2337  -22.1720  -46.5823 C.3       11 UNK         0.1400 
     19 N           0.8669  -22.0160  -45.1759 N.am      11 UNK        -0.5000 
     20 C           0.1305  -22.8972  -44.4865 C.2       10 UNK         0.5000 
     21 O          -0.3086  -23.9442  -44.9632 O.2       10 UNK        -0.5000 
     22 CA         -0.2056  -22.5254  -43.0321 C.3       10 UNK         0.1400 
     23 CB          1.0040  -22.7547  -42.1138 C.3       10 UNK        -0.1800 
     24 N          -0.6728  -21.1451  -42.9003 N.am      10 UNK        -0.5000 
     25 C          -1.7915  -20.6726  -43.4700 C.2       9 UNK         0.5000 
     26 O          -2.5577  -21.3565  -44.1484 O.2       9 UNK        -0.5000 
     27 CA         -2.0891  -19.1763  -43.2824 C.3       9 UNK         0.1400 
     28 CB         -2.7155  -18.9198  -41.9040 C.3       9 UNK        -0.1800 
     29 N          -0.9055  -18.3338  -43.4558 N.am      9 UNK        -0.5000 
     30 C          -0.2110  -18.2307  -44.5982 C.2       8 UNK         0.5000 
     31 O          -0.4894  -18.8404  -45.6287 O.2       8 UNK        -0.5000 
     32 CA          1.0405  -17.3399  -44.5756 C.3       8 UNK         0.1400 
     33 CB          0.6670  -15.8495  -44.4996 C.3       8 UNK        -0.1800 
     34 N           1.9357  -17.6723  -43.4736 N.am      8 UNK        -0.5000 
     35 C           2.5051  -18.8655  -43.2582 C.2       7 UNK         0.5000 
     36 O           2.3664  -19.8421  -43.9948 O.2       7 UNK        -0.5000 
     37 CA          3.3405  -18.9927  -41.9750 C.3       7 UNK         0.1400 
     38 CB          4.7484  -18.4137  -42.1808 C.3       7 UNK        -0.1800 
     39 N           2.6991  -18.3247  -40.8430 N.am      7 UNK        -0.5000 
     40 C           1.5845  -18.7599  -40.2404 C.2       6 UNK         0.5000 
     41 O           0.9862  -19.7882  -40.5596 O.2       6 UNK        -0.5000 
     42 CA          1.0292  -17.8694  -39.1142 C.3       6 UNK         0.1400 
     43 CB          1.8581  -18.0268  -37.8302 C.3       6 UNK        -0.1800 
     44 N           0.9699  -16.4544  -39.4885 N.am      6 UNK        -0.5000 
     45 C           0.1678  -15.9690  -40.4452 C.2       5 UNK         0.5000 
     46 O          -0.5846  -16.6654  -41.1249 O.2       5 UNK        -0.5000 
     47 CA          0.2197  -14.4543  -40.7064 C.3       5 UNK         0.1400 
     48 CB         -0.5995  -13.6984  -39.6494 C.3       5 UNK        -0.1800 
     49 N           1.5552  -13.8582  -40.7924 N.am      5 UNK        -0.5000 
     50 C           2.6088  -14.2952  -41.4955 C.2       4 UNK         0.5000 
     51 O           2.6806  -15.4128  -42.0051 O.2       4 UNK        -0.5000 
     52 CA          3.7570  -13.2814  -41.6925 C.3       4 UNK         0.1400 
     53 CB          4.9397  -13.8762  -42.4780 C.3       4 UNK        -0.1800 
     54 N           3.2955  -12.0703  -42.3812 N.am      4 UNK        -0.5000 
     55 C           2.5801  -11.0850  -41.8200 C.2       3 UNK         0.5000 
     56 O           2.2553  -11.0894  -40.6308 O.2       3 UNK        -0.5000 
     57 CA          2.1434   -9.8990  -42.7020 C.3       3 UNK         0.1400 
     58 CB          2.7693   -8.5901  -42.1922 C.3       3 UNK        -0.1800 
     59 N           2.4640  -10.0373  -44.1235 N.am      3 UNK        -0.5000 
     60 C           1.7785  -10.7584  -45.0206 C.2       2 UNK         0.5000 
     61 O           0.8364  -11.4962  -44.7266 O.2       2 UNK        -0.5000 
     62 CA          2.1803  -10.5825  -46.5046 C.3       2 UNK         0.1400 
     63 CB          3.4517   -9.7276  -46.7158 C.3       2 UNK        -0.1800 
     64 N           2.3157  -11.8354  -47.2519 N.am      2 UNK        -0.5000 
     65 C           3.0776  -12.8949  -46.9405 C.2       1 UNK         0.5000 
     66 O           3.6455  -13.0442  -45.8571 O.2       1 UNK        -0.5000 
     67 C           0.0023  -22.0938  -47.5090 C.2       11 UNK         0.5000 
     68 O          -0.1317  -22.9408  -48.3906 O.2       11 UNK        -0.5000 
     69 N          -0.9047  -21.1364  -47.2652 N.am      12 UNK        -0.5000 
     70 CA         -2.1613  -20.9900  -48.0026 C.3       12 UNK         0.1400 
     71 CB         -2.8802  -19.7096  -47.5542 C.3       12 UNK        -0.1800 
     72 C          -3.0857  -22.2138  -47.8622 C.2       12 UNK         0.5000 
     73 O          -3.6870  -22.6338  -48.8518 O.2       12 UNK        -0.5000 
     74 N          -3.1534  -22.7891  -46.6531 N.am      13 UNK        -0.5000 
     75 CA         -3.8759  -24.0283  -46.3699 C.3       13 UNK         0.1400 
     76 CB         -3.9547  -24.2525  -44.8524 C.3       13 UNK        -0.1800 
     77 C          -3.2525  -25.2463  -47.0751 C.2       13 UNK         0.5000 
     78 O          -3.9851  -26.0324  -47.6757 O.2       13 UNK        -0.5000 
     79 N          -1.9174  -25.3639  -47.0224 N.am      14 UNK        -0.5000 
     80 CA         -1.1481  -26.4265  -47.6768 C.3       14 UNK         0.1400 
     81 CB          0.3139  -26.3648  -47.2092 C.3       14 UNK        -0.1800 
     82 C          -1.2315  -26.3742  -49.2145 C.2       14 UNK         0.5000 
     83 O          -1.3558  -27.4190  -49.8545 O.2       14 UNK        -0.5000 
     84 N          -1.1913  -25.1586  -49.7745 N.am      15 UNK        -0.5000 
     85 CA         -1.3499  -24.8783  -51.2025 C.3       15 UNK         0.1400 
     86 CB         -0.8333  -23.4591  -51.4821 C.3       15 UNK        -0.1800 
     87 C          -2.8022  -25.0168  -51.7010 C.2       15 UNK         0.5000 
     88 O          -3.0118  -25.0701  -52.9129 O.2       15 UNK        -0.5000 
     89 N          -3.7658  -25.0557  -50.7683 N.am      16 UNK        -0.5000 
     90 CA         -5.2145  -25.0907  -50.9760 C.3       16 UNK         0.1400 
     91 CB         -5.6487  -26.4022  -51.6628 C.3       16 UNK        -0.1800 
     92 C          -5.7201  -23.8293  -51.7017 C.2       16 UNK         0.5000 
     93 O          -6.4554  -23.9291  -52.6849 O.2       16 UNK        -0.5000 
     94 N          -5.3246  -22.6553  -51.1893 N.am      17 UNK        -0.5000 
     95 CA         -5.6085  -21.3183  -51.7303 C.3       17 UNK         0.1400 
     96 CB         -4.9317  -20.2779  -50.8251 C.3       17 UNK        -0.1800 
     97 C          -7.1044  -20.9765  -51.9124 C.2       17 UNK         0.5000 
     98 O          -7.4317  -20.0603  -52.6656 O.2       17 UNK        -0.5000 
     99 N          -7.9912  -21.7180  -51.2353 N.am      18 UNK        -0.5000 
    100 CA        -9.4420  -21.6479  -51.4105 C.3       18 UNK         0.1400 
    101 CB       -10.1160  -22.3882  -50.2450 C.3       18 UNK        -0.1800 
    102 C         -9.9254  -22.2198  -52.7613 C.2       18 UNK         0.5000 
    103 O        -10.9977  -21.8274  -53.2238 O.2       18 UNK        -0.5000 
    104 N         -9.1481  -23.1349  -53.3573 N.am      19 UNK        -0.5000 
    105 CA        -9.4502  -23.8009  -54.6254 C.3       19 UNK         0.1400 
    106 CB        -9.4806  -25.3201  -54.3920 C.3       19 UNK        -0.1800 
    107 C         -8.4251  -23.4498  -55.7176 C.2       19 UNK         0.5000 
    108 O         -8.8067  -23.3147  -56.8814 O.2       19 UNK        -0.5000 
    109 N         -7.1474  -23.3219  -55.3369 N.am      20 UNK        -0.5000 
    110 CA        -6.0320  -22.9810  -56.2186 C.3       20 UNK         0.1400 
    111 CB        -4.7170  -23.2761  -55.4769 C.3       20 UNK        -0.1800 
    112 C         -6.0659  -21.5139  -56.6897 C.2       20 UNK         0.5000 
    113 O         -6.7466  -20.6773  -56.0931 O.2       20 UNK        -0.5000 
    114 N         -5.2881  -21.2233  -57.7412 N.am      21 UNK        -0.5000 
    115 CA        -5.1000  -19.8765  -58.2917 C.3       21 UNK         0.1400 
    116 CB        -4.4906  -19.9960  -59.6975 C.3       21 UNK        -0.1800 
    117 C         -4.2283  -18.9655  -57.4009 C.2       21 UNK         0.5000 
    118 O         -4.2907  -17.7436  -57.5432 O.2       21 UNK        -0.5000 
    119 N         -3.4290  -19.5726  -56.5134 N.am      22 UNK        -0.5000 
    120 CA        -2.6216  -18.9039  -55.4849 C.3       22 UNK         0.1400 
    121 C         -3.5087  -18.1443  -54.4572 C.2       22 UNK         0.5000 
    122 N         -3.2504  -16.8658  -54.2180 N.am      22 UNK        -0.7600 
    123 O         -4.4042  -18.7217  -53.8492 O.2       22 UNK        -0.5000 
    124 C124       -1.6934  -19.9346  -54.7930 C.3       23 UNK        -0.0398 
    125 S125       -0.4098  -19.1764  -53.7383 S.3       23 UNK        -0.2404 
    126 C126       -1.0604  -19.6015  -52.0942 C.3       23 UNK        -0.0205 
    127 H127        3.9861  -10.8427  -51.2498 H         1 UNK         0.0600 
    128 H128        3.1219  -12.3051  -51.7328 H         1 UNK         0.0600 
    129 H129        4.8748  -12.2126  -51.9252 H         1 UNK         0.0600 
    130 H130        2.5173  -13.5515  -49.9837 H         1 UNK         0.3000 
    131 H131        4.3240  -14.3070  -47.9027 H         1 UNK         0.0600 
    132 H132        2.8194  -15.9393  -48.5933 H         1 UNK         0.0800 
    133 H133        2.3188  -15.5377  -46.9740 H         1 UNK         0.0800 
    134 H134       -1.2352  -16.2937  -48.3267 H         1 UNK         0.0800 
    135 H135        0.0210  -16.7066  -47.2025 H         1 UNK         0.0800 
    136 H136       -1.4604  -17.5109  -50.3907 H         1 UNK         0.1150 
    137 H137        1.3567  -20.6062  -51.3313 H         1 UNK         0.1150 
    138 H138        2.0852  -17.9771  -48.0322 H         1 UNK         0.1150 
    139 H139        3.7363  -20.1394  -50.3786 H         1 UNK         0.0800 
    140 H140        3.8701  -19.3604  -48.8259 H         1 UNK         0.0800 
    141 H141        2.0000  -20.1724  -46.9786 H         1 UNK         0.0800 
    142 H142        3.1649  -21.2390  -46.2556 H         1 UNK         0.0800 
    143 H143        1.6353  -23.1831  -46.6807 H         1 UNK         0.0600 
    144 H144        1.2102  -21.1811  -44.7076 H         1 UNK         0.3000 
    145 H145       -1.0119  -23.1831  -42.7009 H         1 UNK         0.0600 
    146 H146        0.7421  -22.5846  -41.0693 H         1 UNK         0.0600 
    147 H147        1.3681  -23.7796  -42.1950 H         1 UNK         0.0600 
    148 H148        1.8319  -22.0900  -42.3623 H         1 UNK         0.0600 
    149 H149       -0.1011  -20.5205  -42.3437 H         1 UNK         0.3000 
    150 H150       -2.8158  -18.8860  -44.0438 H         1 UNK         0.0600 
    151 H151       -3.6005  -19.5395  -41.7539 H         1 UNK         0.0600 
    152 H152       -3.0259  -17.8800  -41.8005 H         1 UNK         0.0600 
    153 H153       -2.0158  -19.1420  -41.0969 H         1 UNK         0.0600 
    154 H154       -0.6191  -17.7878  -42.6467 H         1 UNK         0.3000 
    155 H155        1.5882  -17.5120  -45.5038 H         1 UNK         0.0600 
    156 H156        1.5484  -15.2151  -44.5976 H         1 UNK         0.0600 
    157 H157       -0.0293  -15.5619  -45.2863 H         1 UNK         0.0600 
    158 H158        0.1898  -15.6069  -43.5522 H         1 UNK         0.0600 
    159 H159        2.1449  -16.9154  -42.8244 H         1 UNK         0.3000 
    160 H160        3.4373  -20.0548  -41.7400 H         1 UNK         0.0600 
    161 H161        4.7181  -17.3464  -42.4040 H         1 UNK         0.0600 
    162 H162        5.2552  -18.9083  -43.0104 H         1 UNK         0.0600 
    163 H163        5.3655  -18.5533  -41.2932 H         1 UNK         0.0600 
    164 H164        3.0773  -17.4286  -40.5711 H         1 UNK         0.3000 
    165 H165        0.0114  -18.2039  -38.9018 H         1 UNK         0.0600 
    166 H166        1.4137  -17.4710  -37.0043 H         1 UNK         0.0600 
    167 H167        1.9100  -19.0730  -37.5256 H         1 UNK         0.0600 
    168 H168        2.8809  -17.6717  -37.9618 H         1 UNK         0.0600 
    169 H169        1.5716  -15.8159  -38.9894 H         1 UNK         0.3000 
    170 H170       -0.2565  -14.2807  -41.6726 H         1 UNK         0.0600 
    171 H171       -1.6107  -14.1008  -39.5744 H         1 UNK         0.0600 
    172 H172       -0.1430  -13.7681  -38.6613 H         1 UNK         0.0600 
    173 H173       -0.6900  -12.6417  -39.9023 H         1 UNK         0.0600 
    174 H174        1.6301  -12.9089  -40.4390 H         1 UNK         0.3000 
    175 H175        4.1223  -13.0071  -40.7008 H         1 UNK         0.0600 
    176 H176        4.6436  -14.1787  -43.4833 H         1 UNK         0.0600 
    177 H177        5.7536  -13.1572  -42.5708 H         1 UNK         0.0600 
    178 H178        5.3408  -14.7568  -41.9746 H         1 UNK         0.0600 
    179 H179        3.4776  -12.0227  -43.3746 H         1 UNK         0.3000 
    180 H180        1.0591   -9.8145  -42.6027 H         1 UNK         0.0600 
    181 H181        3.8575   -8.6101  -42.2648 H         1 UNK         0.0600 
    182 H182        2.5136   -8.4113  -41.1469 H         1 UNK         0.0600 
    183 H183        2.4098   -7.7324  -42.7611 H         1 UNK         0.0600 
    184 H184        3.2342   -9.4765  -44.4584 H         1 UNK         0.3000 
    185 H185        1.3504  -10.0477  -46.9686 H         1 UNK         0.0600 
    186 H186        3.3337   -8.7226  -46.3087 H         1 UNK         0.0600 
    187 H187        4.3288  -10.1818  -46.2525 H         1 UNK         0.0600 
    188 H188        3.6689   -9.6112  -47.7780 H         1 UNK         0.0600 
    189 H189        1.8677  -11.8470  -48.1568 H         1 UNK         0.3000 
    190 H190       -0.7229  -20.4432  -46.5427 H         1 UNK         0.3000 
    191 H191       -1.9112  -20.8853  -49.0602 H         1 UNK         0.0600 
    192 H192       -3.1077  -19.7301  -46.4880 H         1 UNK         0.0600 
    193 H193       -3.8205  -19.5760  -48.0884 H         1 UNK         0.0600 
    194 H194       -2.2694  -18.8283  -47.7490 H         1 UNK         0.0600 
    195 H195       -2.6735  -22.3526  -45.8716 H         1 UNK         0.3000 
    196 H196       -4.8949  -23.9139  -46.7455 H         1 UNK         0.0600 
    197 H197       -4.4943  -25.1713  -44.6200 H         1 UNK         0.0600 
    198 H198       -4.4807  -23.4336  -44.3615 H         1 UNK         0.0600 
    199 H199       -2.9645  -24.3292  -44.4026 H         1 UNK         0.0600 
    200 H200       -1.3873  -24.6913  -46.4764 H         1 UNK         0.3000 
    201 H201       -1.5652  -27.3833  -47.3560 H         1 UNK         0.0600 
    202 H202        0.3869  -26.4782  -46.1275 H         1 UNK         0.0600 
    203 H203        0.7828  -25.4181  -47.4783 H         1 UNK         0.0600 
    204 H204        0.9030  -27.1637  -47.6610 H         1 UNK         0.0600 
    205 H205       -1.0045  -24.3538  -49.1785 H         1 UNK         0.3000 
    206 H206       -0.7381  -25.5856  -51.7658 H         1 UNK         0.0600 
    207 H207        0.2162  -23.3569  -51.2048 H         1 UNK         0.0600 
    208 H208       -0.9172  -23.2075  -52.5401 H         1 UNK         0.0600 
    209 H209       -1.4012  -22.7188  -50.9176 H         1 UNK         0.0600 
    210 H210       -3.4730  -24.9806  -49.8031 H         1 UNK         0.3000 
    211 H211       -5.6647  -25.0754  -49.9825 H         1 UNK         0.0600 
    212 H212       -5.2799  -26.4690  -52.6867 H         1 UNK         0.0600 
    213 H213       -6.7359  -26.4775  -51.7044 H         1 UNK         0.0600 
    214 H214       -5.2832  -27.2717  -51.1165 H         1 UNK         0.0600 
    215 H215       -4.7244  -22.6776  -50.3661 H         1 UNK         0.3000 
    216 H216       -5.1475  -21.2615  -52.7176 H         1 UNK         0.0600 
    217 H217       -5.0780  -19.2671  -51.2076 H         1 UNK         0.0600 
    218 H218       -3.8571  -20.4480  -50.7634 H         1 UNK         0.0600 
    219 H219       -5.3379  -20.3095  -49.8139 H         1 UNK         0.0600 
    220 H220       -7.6394  -22.4400  -50.6248 H         1 UNK         0.3000 
    221 H221       -9.7430  -20.5990  -51.3689 H         1 UNK         0.0600 
    222 H222       -9.8417  -23.4438  -50.2263 H         1 UNK         0.0600 
    223 H223       -9.8383  -21.9508  -49.2858 H         1 UNK         0.0600 
    224 H224      -11.2026  -22.3330  -50.3233 H         1 UNK         0.0600 
    225 H225       -8.2602  -23.3766  -52.9278 H         1 UNK         0.3000 
    226 H226      -10.4322  -23.4981  -54.9944 H         1 UNK         0.0600 
    227 H227      -10.2517  -25.5910  -53.6707 H         1 UNK         0.0600 
    228 H228       -9.6985  -25.8543  -55.3177 H         1 UNK         0.0600 
    229 H229       -8.5256  -25.6889  -54.0149 H         1 UNK         0.0600 
    230 H230       -6.9089  -23.4754  -54.3604 H         1 UNK         0.3000 
    231 H231       -6.0878  -23.6248  -57.0989 H         1 UNK         0.0600 
    232 H232       -4.6812  -24.3110  -55.1352 H         1 UNK         0.0600 
    233 H233       -4.5944  -22.6360  -54.6031 H         1 UNK         0.0600 
    234 H234       -3.8516  -23.1213  -56.1218 H         1 UNK         0.0600 
    235 H235       -4.7653  -21.9647  -58.1855 H         1 UNK         0.3000 
    236 H236       -6.0794  -19.4022  -58.3845 H         1 UNK         0.0600 
    237 H237       -4.3651  -19.0132  -60.1540 H         1 UNK         0.0600 
    238 H238       -3.5102  -20.4734  -59.6724 H         1 UNK         0.0600 
    239 H239       -5.1326  -20.5791  -60.3580 H         1 UNK         0.0600 
    240 H240       -3.4663  -20.5785  -56.4660 H         1 UNK         0.3000 
    241 H241       -1.9913  -18.1779  -56.0024 H         1 UNK         0.0600 
    242 H242       -2.5119  -16.3775  -54.7001 H         1 UNK         0.3800 
    243 H243       -3.8151  -16.3712  -53.5460 H         1 UNK         0.3800 
    244 H244       -2.2776  -20.6563  -54.2187 H         1 UNK         0.0800 
    245 H245       -1.1680  -20.5179  -55.5506 H         1 UNK         0.0800 
    246 H246       -1.1724  -20.6818  -52.0196 H         1 UNK         0.0800 
    247 H247       -2.0603  -19.1796  -51.9830 H         1 UNK         0.0800 
@<TRIPOS>BOND
     1    1    2 1    
     2    1  127 1    
     3    1  128 1    
     4    1  129 1    
     5    2    3 2    
     6    2    4 am   BACKBONE|DICT|INTERRES
     7    4    5 1    
     8    4  130 1    
     9    5    6 1    
    10    5   65 1    
    11    5  131 1    
    12    6    7 1    
    13    6  132 1    
    14    6  133 1    
    15    7    8 1    
    16    8    9 1    
    17    8  134 1    
    18    8  135 1    
    19    9   10 ar   
    20    9   14 ar   
    21   10   11 ar   
    22   10  136 1    
    23   11   12 ar   
    24   11  126 1    
    25   12   13 ar   
    26   12  137 1    
    27   13   14 ar   
    28   13   15 1    
    29   14  138 1    
    30   15   16 1    
    31   15  139 1    
    32   15  140 1    
    33   16   17 1    
    34   17   18 1    
    35   17  141 1    
    36   17  142 1    
    37   18   19 1    
    38   18   67 1    
    39   18  143 1    
    40   19   20 am   BACKBONE|DICT|INTERRES
    41   19  144 1    
    42   20   21 2    
    43   20   22 1    
    44   22   23 1    
    45   22   24 1    
    46   22  145 1    
    47   23  146 1    
    48   23  147 1    
    49   23  148 1    
    50   24   25 am   BACKBONE|DICT|INTERRES
    51   24  149 1    
    52   25   26 2    
    53   25   27 1    
    54   27   28 1    
    55   27   29 1    
    56   27  150 1    
    57   28  151 1    
    58   28  152 1    
    59   28  153 1    
    60   29   30 am   BACKBONE|DICT|INTERRES
    61   29  154 1    
    62   30   31 2    
    63   30   32 1    
    64   32   33 1    
    65   32   34 1    
    66   32  155 1    
    67   33  156 1    
    68   33  157 1    
    69   33  158 1    
    70   34   35 am   BACKBONE|DICT|INTERRES
    71   34  159 1    
    72   35   36 2    
    73   35   37 1    
    74   37   38 1    
    75   37   39 1    
    76   37  160 1    
    77   38  161 1    
    78   38  162 1    
    79   38  163 1    
    80   39   40 am   BACKBONE|DICT|INTERRES
    81   39  164 1    
    82   40   41 2    
    83   40   42 1    
    84   42   43 1    
    85   42   44 1    
    86   42  165 1    
    87   43  166 1    
    88   43  167 1    
    89   43  168 1    
    90   44   45 am   BACKBONE|DICT|INTERRES
    91   44  169 1    
    92   45   46 2    
    93   45   47 1    
    94   47   48 1    
    95   47   49 1    
    96   47  170 1    
    97   48  171 1    
    98   48  172 1    
    99   48  173 1    
   100   49   50 am   BACKBONE|DICT|INTERRES
   101   49  174 1    
   102   50   51 2    
   103   50   52 1    
   104   52   53 1    
   105   52   54 1    
   106   52  175 1    
   107   53  176 1    
   108   53  177 1    
   109   53  178 1    
   110   54   55 am   BACKBONE|DICT|INTERRES
   111   54  179 1    
   112   55   56 2    
   113   55   57 1    
   114   57   58 1    
   115   57   59 1    
   116   57  180 1    
   117   58  181 1    
   118   58  182 1    
   119   58  183 1    
   120   59   60 am   BACKBONE|DICT|INTERRES
   121   59  184 1    
   122   60   61 2    
   123   60   62 1    
   124   62   63 1    
   125   62   64 1    
   126   62  185 1    
   127   63  186 1    
   128   63  187 1    
   129   63  188 1    
   130   64   65 am   BACKBONE|DICT|INTERRES
   131   64  189 1    
   132   65   66 2    
   133   67   68 2    
   134   67   69 am   BACKBONE|DICT|INTERRES
   135   69   70 1    
   136   69  190 1    
   137   70   71 1    
   138   70   72 1    
   139   70  191 1    
   140   71  192 1    
   141   71  193 1    
   142   71  194 1    
   143   72   73 2    
   144   72   74 am   BACKBONE|DICT|INTERRES
   145   74   75 1    
   146   74  195 1    
   147   75   76 1    
   148   75   77 1    
   149   75  196 1    
   150   76  197 1    
   151   76  198 1    
   152   76  199 1    
   153   77   78 2    
   154   77   79 am   BACKBONE|DICT|INTERRES
   155   79   80 1    
   156   79  200 1    
   157   80   81 1    
   158   80   82 1    
   159   80  201 1    
   160   81  202 1    
   161   81  203 1    
   162   81  204 1    
   163   82   83 2    
   164   82   84 am   BACKBONE|DICT|INTERRES
   165   84   85 1    
   166   84  205 1    
   167   85   86 1    
   168   85   87 1    
   169   85  206 1    
   170   86  207 1    
   171   86  208 1    
   172   86  209 1    
   173   87   88 2    
   174   87   89 am   BACKBONE|DICT|INTERRES
   175   89   90 1    
   176   89  210 1    
   177   90   91 1    
   178   90   92 1    
   179   90  211 1    
   180   91  212 1    
   181   91  213 1    
   182   91  214 1    
   183   92   93 2    
   184   92   94 am   BACKBONE|DICT|INTERRES
   185   94   95 1    
   186   94  215 1    
   187   95   96 1    
   188   95   97 1    
   189   95  216 1    
   190   96  217 1    
   191   96  218 1    
   192   96  219 1    
   193   97   98 2    
   194   97   99 am   BACKBONE|DICT|INTERRES
   195   99  100 1    
   196   99  220 1    
   197  100  101 1    
   198  100  102 1    
   199  100  221 1    
   200  101  222 1    
   201  101  223 1    
   202  101  224 1    
   203  102  103 2    
   204  102  104 am   BACKBONE|DICT|INTERRES
   205  104  105 1    
   206  104  225 1    
   207  105  106 1    
   208  105  107 1    
   209  105  226 1    
   210  106  227 1    
   211  106  228 1    
   212  106  229 1    
   213  107  108 2    
   214  107  109 am   BACKBONE|DICT|INTERRES
   215  109  110 1    
   216  109  230 1    
   217  110  111 1    
   218  110  112 1    
   219  110  231 1    
   220  111  232 1    
   221  111  233 1    
   222  111  234 1    
   223  112  113 2    
   224  112  114 am   BACKBONE|DICT|INTERRES
   225  114  115 1    
   226  114  235 1    
   227  115  116 1    
   228  115  117 1    
   229  115  236 1    
   230  116  237 1    
   231  116  238 1    
   232  116  239 1    
   233  117  118 2    
   234  117  119 am   BACKBONE|DICT|INTERRES
   235  119  120 1    
   236  119  240 1    
   237  120  121 1    
   238  120  124 1    
   239  120  241 1    
   240  121  122 am   BACKBONE|DICT|INTERRES
   241  121  123 2    
   242  122  242 1    
   243  122  243 1    
   244  124  125 1    
   245  124  244 1    
   246  124  245 1    
   247  125  126 1    
   248  126  246 1    
   249  126  247 1    
@<TRIPOS>SUBSTRUCTURE
     1 UNK         1 GROUP             0       ****    0 ROOT    
