@<TRIPOS>MOLECULE
3R540
247   249    1
SMALL
USER_CHARGES


@<TRIPOS>ATOM
      1 CA          3.0865  -13.0338  -52.7501 C.3       0 UNK        -0.1800 
      2 C           2.5768  -13.7364  -51.5006 C.2       0 UNK         0.5000 
      3 O           1.9297  -14.7735  -51.6122 O.2       0 UNK        -0.5000 
      4 N           2.8567  -13.1664  -50.3194 N.am      1 UNK        -0.5000 
      5 CA          2.5367  -13.6955  -48.9807 C.3       1 UNK         0.1400 
      6 C6          3.1546  -15.0927  -48.6881 C.3       23 UNK        -0.0398 
      7 S7          4.9546  -15.1624  -48.9514 S.3       23 UNK        -0.2404 
      8 C8          5.2250  -16.9669  -48.9394 C.3       23 UNK        -0.0205 
      9 C9          4.5468  -17.7128  -50.0872 C.ar      23 UNK        -0.0193 
     10 C10         4.6400  -17.2478  -51.4046 C.ar      23 UNK        -0.1150 
     11 C11         4.0734  -17.9650  -52.4630 C.ar      23 UNK        -0.0193 
     12 C12         3.4296  -19.1768  -52.1898 C.ar      23 UNK        -0.1150 
     13 C13         3.3143  -19.6484  -50.8811 C.ar      23 UNK        -0.0193 
     14 C14         3.8675  -18.9093  -49.8319 C.ar      23 UNK        -0.1150 
     15 C15         2.6252  -20.9790  -50.6251 C.3       23 UNK        -0.0205 
     16 S16         0.8142  -20.8179  -50.6736 S.3       23 UNK        -0.2404 
     17 C17         0.4333  -20.5159  -48.9158 C.3       23 UNK        -0.0398 
     18 CA          0.0951  -21.8262  -48.1708 C.3       11 UNK         0.1400 
     19 N           0.3169  -21.7210  -46.7281 N.am      11 UNK        -0.5000 
     20 C           0.2999  -22.7678  -45.8895 C.2       10 UNK         0.5000 
     21 O           0.1370  -23.9334  -46.2491 O.2       10 UNK        -0.5000 
     22 CA          0.4370  -22.4579  -44.3910 C.3       10 UNK         0.1400 
     23 CB          1.9075  -22.2144  -44.0215 C.3       10 UNK        -0.1800 
     24 N          -0.3823  -21.3165  -43.9817 N.am      10 UNK        -0.5000 
     25 C          -1.7212  -21.2857  -44.0505 C.2       9 UNK         0.5000 
     26 O          -2.4050  -22.2394  -44.4221 O.2       9 UNK        -0.5000 
     27 CA         -2.4128  -19.9616  -43.6797 C.3       9 UNK         0.1400 
     28 CB         -2.5322  -19.8173  -42.1556 C.3       9 UNK        -0.1800 
     29 N          -1.7331  -18.7885  -44.2278 N.am      9 UNK        -0.5000 
     30 C          -1.5908  -18.5160  -45.5334 C.2       8 UNK         0.5000 
     31 O          -2.0351  -19.2188  -46.4419 O.2       8 UNK        -0.5000 
     32 CA         -0.7602  -17.2670  -45.8745 C.3       8 UNK         0.1400 
     33 CB         -1.5772  -15.9850  -45.6426 C.3       8 UNK        -0.1800 
     34 N           0.4735  -17.2218  -45.0898 N.am      8 UNK        -0.5000 
     35 C           1.4776  -18.1028  -45.2102 C.2       7 UNK         0.5000 
     36 O           1.4968  -19.0113  -46.0414 O.2       7 UNK        -0.5000 
     37 CA          2.6259  -17.9832  -44.1936 C.3       7 UNK         0.1400 
     38 CB          3.6944  -16.9960  -44.6825 C.3       7 UNK        -0.1800 
     39 N           2.1479  -17.5878  -42.8665 N.am      7 UNK        -0.5000 
     40 C           1.4698  -18.4102  -42.0521 C.2       6 UNK         0.5000 
     41 O           1.2015  -19.5753  -42.3376 O.2       6 UNK        -0.5000 
     42 CA          0.9705  -17.8419  -40.7116 C.3       6 UNK         0.1400 
     43 CB          2.0419  -18.0094  -39.6243 C.3       6 UNK        -0.1800 
     44 N           0.5684  -16.4387  -40.7789 N.am      6 UNK        -0.5000 
     45 C          -0.4060  -15.9463  -41.5549 C.2       5 UNK         0.5000 
     46 O          -1.0836  -16.6366  -42.3174 O.2       5 UNK        -0.5000 
     47 CA         -0.6493  -14.4239  -41.4882 C.3       5 UNK         0.1400 
     48 CB         -0.1046  -13.7690  -40.1999 C.3       5 UNK        -0.1800 
     49 N          -0.1364  -13.6985  -42.6554 N.am      5 UNK        -0.5000 
     50 C           1.0756  -13.7837  -43.2228 C.2       4 UNK         0.5000 
     51 O           1.9279  -14.6113  -42.8943 O.2       4 UNK        -0.5000 
     52 CA          1.3931  -12.7564  -44.3331 C.3       4 UNK         0.1400 
     53 CB          2.6120  -13.1558  -45.1815 C.3       4 UNK        -0.1800 
     54 N           0.2632  -12.4739  -45.2262 N.am      4 UNK        -0.5000 
     55 C          -0.7361  -11.6190  -44.9603 C.2       3 UNK         0.5000 
     56 O          -0.8661  -11.0690  -43.8661 O.2       3 UNK        -0.5000 
     57 CA         -1.7571  -11.3234  -46.0765 C.3       3 UNK         0.1400 
     58 CB         -2.0437   -9.8157  -46.1932 C.3       3 UNK        -0.1800 
     59 N          -1.3008  -11.8118  -47.3782 N.am      3 UNK        -0.5000 
     60 C          -1.9459  -12.7079  -48.1332 C.2       2 UNK         0.5000 
     61 O          -3.0240  -13.2167  -47.8265 O.2       2 UNK        -0.5000 
     62 CA         -1.2688  -13.1196  -49.4551 C.3       2 UNK         0.1400 
     63 CB         -1.8274  -12.2932  -50.6229 C.3       2 UNK        -0.1800 
     64 N           0.1970  -13.0327  -49.4722 N.am      2 UNK        -0.5000 
     65 C           1.0255  -13.6908  -48.6488 C.2       1 UNK         0.5000 
     66 O           0.6328  -14.2875  -47.6470 O.2       1 UNK        -0.5000 
     67 C          -1.3287  -22.3214  -48.4965 C.2       11 UNK         0.5000 
     68 O          -1.4739  -23.2262  -49.3178 O.2       11 UNK        -0.5000 
     69 N          -2.3412  -21.7684  -47.8084 N.am      12 UNK        -0.5000 
     70 CA         -3.7391  -22.1937  -47.9048 C.3       12 UNK         0.1400 
     71 CB         -4.6232  -21.3316  -46.9915 C.3       12 UNK        -0.1800 
     72 C          -3.9271  -23.6816  -47.5707 C.2       12 UNK         0.5000 
     73 O          -4.5714  -24.3930  -48.3402 O.2       12 UNK        -0.5000 
     74 N          -3.3324  -24.1253  -46.4546 N.am      13 UNK        -0.5000 
     75 CA         -3.3379  -25.5145  -45.9998 C.3       13 UNK         0.1400 
     76 CB         -2.7155  -25.6000  -44.5981 C.3       13 UNK        -0.1800 
     77 C          -2.6264  -26.4660  -46.9780 C.2       13 UNK         0.5000 
     78 O          -3.1922  -27.5023  -47.3288 O.2       13 UNK        -0.5000 
     79 N          -1.4238  -26.0831  -47.4324 N.am      14 UNK        -0.5000 
     80 CA         -0.6143  -26.8368  -48.3955 C.3       14 UNK         0.1400 
     81 CB          0.7543  -26.1582  -48.5569 C.3       14 UNK        -0.1800 
     82 C          -1.2964  -27.0056  -49.7661 C.2       14 UNK         0.5000 
     83 O          -1.1678  -28.0616  -50.3859 O.2       14 UNK        -0.5000 
     84 N          -2.0390  -25.9772  -50.1915 N.am      15 UNK        -0.5000 
     85 CA         -2.8328  -25.9520  -51.4190 C.3       15 UNK         0.1400 
     86 CB         -2.8652  -24.5086  -51.9396 C.3       15 UNK        -0.1800 
     87 C          -4.2524  -26.5416  -51.2501 C.2       15 UNK         0.5000 
     88 O          -5.0666  -26.4030  -52.1636 O.2       15 UNK        -0.5000 
     89 N          -4.5201  -27.2046  -50.1138 N.am      16 UNK        -0.5000 
     90 CA         -5.7473  -27.9287  -49.7677 C.3       16 UNK         0.1400 
     91 CB         -5.9831  -29.1136  -50.7289 C.3       16 UNK        -0.1800 
     92 C          -6.9728  -27.0045  -49.6217 C.2       16 UNK         0.5000 
     93 O          -7.9941  -27.2088  -50.2808 O.2       16 UNK        -0.5000 
     94 N          -6.8351  -26.0135  -48.7317 N.am      17 UNK        -0.5000 
     95 CA         -7.8202  -24.9979  -48.3485 C.3       17 UNK         0.1400 
     96 CB         -9.0989  -25.6350  -47.7632 C.3       17 UNK        -0.1800 
     97 C          -8.0916  -23.9864  -49.4780 C.2       17 UNK         0.5000 
     98 O          -9.2455  -23.6487  -49.7515 O.2       17 UNK        -0.5000 
     99 N          -7.0101  -23.5122  -50.1092 N.am      18 UNK        -0.5000 
    100 CA        -7.0423  -22.4373  -51.1019 C.3       18 UNK         0.1400 
    101 CB        -5.7404  -22.4646  -51.9120 C.3       18 UNK        -0.1800 
    102 C         -7.2275  -21.0577  -50.4429 C.2       18 UNK         0.5000 
    103 O         -6.9955  -20.9023  -49.2411 O.2       18 UNK        -0.5000 
    104 N         -7.6065  -20.0638  -51.2540 N.am      19 UNK        -0.5000 
    105 CA        -7.7934  -18.6683  -50.8540 C.3       19 UNK         0.1400 
    106 CB        -8.7098  -17.9820  -51.8836 C.3       19 UNK        -0.1800 
    107 C         -6.4473  -17.9323  -50.6694 C.2       19 UNK         0.5000 
    108 O         -6.1292  -17.0274  -51.4435 O.2       19 UNK        -0.5000 
    109 N         -5.6919  -18.3454  -49.6417 N.am      20 UNK        -0.5000 
    110 CA        -4.3769  -17.8394  -49.2294 C.3       20 UNK         0.1400 
    111 CB        -4.4673  -16.3458  -48.8401 C.3       20 UNK        -0.1800 
    112 C         -3.2577  -18.1216  -50.2561 C.2       20 UNK         0.5000 
    113 O         -3.4445  -18.8923  -51.2007 O.2       20 UNK        -0.5000 
    114 N         -2.0937  -17.5062  -50.0225 N.am      21 UNK        -0.5000 
    115 CA        -0.9572  -17.4755  -50.9401 C.3       21 UNK         0.1400 
    116 CB         0.2852  -17.1069  -50.1144 C.3       21 UNK        -0.1800 
    117 C         -1.1984  -16.4347  -52.0605 C.2       21 UNK         0.5000 
    118 O         -2.0224  -15.5375  -51.8780 O.2       21 UNK        -0.5000 
    119 N         -0.4952  -16.4831  -53.1974 N.am      22 UNK        -0.5000 
    120 CA         0.4663  -17.4999  -53.6382 C.3       22 UNK         0.1400 
    121 C         -0.2846  -18.6613  -54.3433 C.2       22 UNK         0.5000 
    122 N         -0.1614  -19.8877  -53.8542 N.am      22 UNK        -0.7600 
    123 O         -0.9684  -18.4568  -55.3436 O.2       22 UNK        -0.5000 
    124 C124        1.5303  -16.8361  -54.5514 C.3       23 UNK        -0.0398 
    125 S125        2.9037  -17.9328  -55.0461 S.3       23 UNK        -0.2404 
    126 C126        4.2316  -17.4403  -53.8898 C.3       23 UNK        -0.0205 
    127 H127        2.2511  -12.7700  -53.3986 H         1 UNK         0.0600 
    128 H128        3.7527  -13.6957  -53.3035 H         1 UNK         0.0600 
    129 H129        3.6340  -12.1223  -52.5097 H         1 UNK         0.0600 
    130 H130        3.3890  -12.3075  -50.3156 H         1 UNK         0.3000 
    131 H131        2.9858  -12.9919  -48.2794 H         1 UNK         0.0600 
    132 H132        2.6820  -15.8504  -49.3115 H         1 UNK         0.0800 
    133 H133        2.9686  -15.3957  -47.6567 H         1 UNK         0.0800 
    134 H134        4.8930  -17.3601  -47.9778 H         1 UNK         0.0800 
    135 H135        6.2975  -17.1567  -48.9939 H         1 UNK         0.0800 
    136 H136        5.1695  -16.3277  -51.6081 H         1 UNK         0.1150 
    137 H137        3.0179  -19.7674  -52.9954 H         1 UNK         0.1150 
    138 H138        3.7931  -19.2813  -48.8195 H         1 UNK         0.1150 
    139 H139        2.9308  -21.6933  -51.3912 H         1 UNK         0.0800 
    140 H140        2.9430  -21.4077  -49.6734 H         1 UNK         0.0800 
    141 H141       -0.3922  -19.8068  -48.8402 H         1 UNK         0.0800 
    142 H142        1.2939  -20.0252  -48.4607 H         1 UNK         0.0800 
    143 H143        0.7879  -22.5949  -48.5210 H         1 UNK         0.0600 
    144 H144        0.4839  -20.7917  -46.3568 H         1 UNK         0.3000 
    145 H145        0.0892  -23.3331  -43.8383 H         1 UNK         0.0600 
    146 H146        2.0292  -22.1021  -42.9443 H         1 UNK         0.0600 
    147 H147        2.5327  -23.0526  -44.3318 H         1 UNK         0.0600 
    148 H148        2.2997  -21.3166  -44.4997 H         1 UNK         0.0600 
    149 H149        0.1137  -20.5194  -43.5932 H         1 UNK         0.3000 
    150 H150       -3.4208  -19.9842  -44.0984 H         1 UNK         0.0600 
    151 H151       -3.0761  -20.6591  -41.7254 H         1 UNK         0.0600 
    152 H152       -3.0711  -18.9086  -41.8864 H         1 UNK         0.0600 
    153 H153       -1.5536  -19.7793  -41.6772 H         1 UNK         0.0600 
    154 H154       -1.3613  -18.1242  -43.5548 H         1 UNK         0.3000 
    155 H155       -0.4877  -17.3130  -46.9307 H         1 UNK         0.0600 
    156 H156       -1.9502  -15.9115  -44.6221 H         1 UNK         0.0600 
    157 H157       -2.4432  -15.9512  -46.3021 H         1 UNK         0.0600 
    158 H158       -0.9864  -15.0924  -45.8382 H         1 UNK         0.0600 
    159 H159        0.5165  -16.5423  -44.3444 H         1 UNK         0.3000 
    160 H160        3.0964  -18.9651  -44.1106 H         1 UNK         0.0600 
    161 H161        3.2986  -15.9865  -44.7726 H         1 UNK         0.0600 
    162 H162        4.0764  -17.2875  -45.6611 H         1 UNK         0.0600 
    163 H163        4.5422  -16.9624  -43.9982 H         1 UNK         0.0600 
    164 H164        2.2698  -16.6148  -42.6033 H         1 UNK         0.3000 
    165 H165        0.0934  -18.4207  -40.4162 H         1 UNK         0.0600 
    166 H166        1.6677  -17.6962  -38.6494 H         1 UNK         0.0600 
    167 H167        2.3467  -19.0529  -39.5340 H         1 UNK         0.0600 
    168 H168        2.9352  -17.4241  -39.8462 H         1 UNK         0.0600 
    169 H169        1.0968  -15.7914  -40.2126 H         1 UNK         0.3000 
    170 H170       -1.7322  -14.2919  -41.4921 H         1 UNK         0.0600 
    171 H171       -0.4765  -14.2770  -39.3089 H         1 UNK         0.0600 
    172 H172        0.9854  -13.7771  -40.1623 H         1 UNK         0.0600 
    173 H173       -0.4249  -12.7293  -40.1303 H         1 UNK         0.0600 
    174 H174       -0.7387  -12.9634  -43.0063 H         1 UNK         0.3000 
    175 H175        1.6593  -11.8320  -43.8164 H         1 UNK         0.0600 
    176 H176        2.4295  -14.0803  -45.7260 H         1 UNK         0.0600 
    177 H177        2.8581  -12.3789  -45.9049 H         1 UNK         0.0600 
    178 H178        3.4964  -13.3067  -44.5612 H         1 UNK         0.0600 
    179 H179        0.2567  -12.9756  -46.1079 H         1 UNK         0.3000 
    180 H180       -2.6824  -11.8215  -45.7808 H         1 UNK         0.0600 
    181 H181       -1.1416   -9.2529  -46.4361 H         1 UNK         0.0600 
    182 H182       -2.4418   -9.4147  -45.2602 H         1 UNK         0.0600 
    183 H183       -2.7824   -9.6157  -46.9695 H         1 UNK         0.0600 
    184 H184       -0.4185  -11.4507  -47.7120 H         1 UNK         0.3000 
    185 H185       -1.5284  -14.1658  -49.6247 H         1 UNK         0.0600 
    186 H186       -2.9153  -12.3624  -50.6656 H         1 UNK         0.0600 
    187 H187       -1.5666  -11.2383  -50.5308 H         1 UNK         0.0600 
    188 H188       -1.4453  -12.6544  -51.5781 H         1 UNK         0.0600 
    189 H189        0.6073  -12.5665  -50.2679 H         1 UNK         0.3000 
    190 H190       -2.1438  -21.0042  -47.1683 H         1 UNK         0.3000 
    191 H191       -4.0611  -22.0390  -48.9363 H         1 UNK         0.0600 
    192 H192       -4.3218  -21.3985  -45.9478 H         1 UNK         0.0600 
    193 H193       -5.6651  -21.6488  -47.0457 H         1 UNK         0.0600 
    194 H194       -4.5900  -20.2838  -47.2781 H         1 UNK         0.0600 
    195 H195       -2.8496  -23.4560  -45.8609 H         1 UNK         0.3000 
    196 H196       -4.3796  -25.8338  -45.9265 H         1 UNK         0.0600 
    197 H197       -2.7193  -26.6265  -44.2297 H         1 UNK         0.0600 
    198 H198       -3.2735  -24.9951  -43.8831 H         1 UNK         0.0600 
    199 H199       -1.6823  -25.2514  -44.5929 H         1 UNK         0.0600 
    200 H200       -1.0151  -25.2221  -47.0773 H         1 UNK         0.3000 
    201 H201       -0.4534  -27.8346  -47.9825 H         1 UNK         0.0600 
    202 H202        1.2879  -26.1163  -47.6073 H         1 UNK         0.0600 
    203 H203        0.6543  -25.1383  -48.9301 H         1 UNK         0.0600 
    204 H204        1.3834  -26.7061  -49.2595 H         1 UNK         0.0600 
    205 H205       -2.0447  -25.1229  -49.6413 H         1 UNK         0.3000 
    206 H206       -2.3335  -26.5607  -52.1754 H         1 UNK         0.0600 
    207 H207       -1.8581  -24.1371  -52.1299 H         1 UNK         0.0600 
    208 H208       -3.4200  -24.4303  -52.8749 H         1 UNK         0.0600 
    209 H209       -3.3282  -23.8448  -51.2113 H         1 UNK         0.0600 
    210 H210       -3.7987  -27.2259  -49.4030 H         1 UNK         0.3000 
    211 H211       -5.5726  -28.3535  -48.7780 H         1 UNK         0.0600 
    212 H212       -6.2045  -28.7812  -51.7433 H         1 UNK         0.0600 
    213 H213       -6.8248  -29.7218  -50.3958 H         1 UNK         0.0600 
    214 H214       -5.1101  -29.7649  -50.7723 H         1 UNK         0.0600 
    215 H215       -5.9068  -25.8536  -48.3535 H         1 UNK         0.3000 
    216 H216       -7.3554  -24.4239  -47.5455 H         1 UNK         0.0600 
    217 H217       -9.7547  -24.8716  -47.3431 H         1 UNK         0.0600 
    218 H218       -8.8601  -26.3334  -46.9612 H         1 UNK         0.0600 
    219 H219       -9.6716  -26.1731  -48.5188 H         1 UNK         0.0600 
    220 H220       -6.0999  -23.8213  -49.7914 H         1 UNK         0.3000 
    221 H221       -7.8787  -22.6144  -51.7815 H         1 UNK         0.0600 
    222 H222       -4.8813  -22.2004  -51.2952 H         1 UNK         0.0600 
    223 H223       -5.5696  -23.4505  -52.3437 H         1 UNK         0.0600 
    224 H224       -5.7751  -21.7533  -52.7378 H         1 UNK         0.0600 
    225 H225       -7.7376  -20.2612  -52.2355 H         1 UNK         0.3000 
    226 H226       -8.3094  -18.6459  -49.8916 H         1 UNK         0.0600 
    227 H227       -9.6795  -18.4772  -51.9398 H         1 UNK         0.0600 
    228 H228       -8.8940  -16.9421  -51.6108 H         1 UNK         0.0600 
    229 H229       -8.2718  -17.9879  -52.8825 H         1 UNK         0.0600 
    230 H230       -6.0278  -19.1609  -49.1385 H         1 UNK         0.3000 
    231 H231       -4.1044  -18.3900  -48.3303 H         1 UNK         0.0600 
    232 H232       -3.5643  -16.0059  -48.3353 H         1 UNK         0.0600 
    233 H233       -5.2974  -16.1652  -48.1571 H         1 UNK         0.0600 
    234 H234       -4.6062  -15.7054  -49.7119 H         1 UNK         0.0600 
    235 H235       -2.0447  -16.8637  -49.2476 H         1 UNK         0.3000 
    236 H236       -0.8342  -18.4683  -51.3725 H         1 UNK         0.0600 
    237 H237        0.2311  -16.0736  -49.7821 H         1 UNK         0.0600 
    238 H238        0.3950  -17.7249  -49.2263 H         1 UNK         0.0600 
    239 H239        1.2031  -17.2148  -50.6904 H         1 UNK         0.0600 
    240 H240       -0.7030  -15.7840  -53.8935 H         1 UNK         0.3000 
    241 H241        0.9927  -17.9002  -52.7744 H         1 UNK         0.0600 
    242 H242       -0.6433  -20.6422  -54.3171 H         1 UNK         0.3800 
    243 H243        0.3828  -20.0867  -53.0281 H         1 UNK         0.3800 
    244 H244        1.0640  -16.4532  -55.4608 H         1 UNK         0.0800 
    245 H245        1.9509  -15.9642  -54.0490 H         1 UNK         0.0800 
    246 H246        4.3120  -16.3520  -53.8859 H         1 UNK         0.0800 
    247 H247        5.1783  -17.8150  -54.2805 H         1 UNK         0.0800 
@<TRIPOS>BOND
     1    1    2 1    
     2    1  127 1    
     3    1  128 1    
     4    1  129 1    
     5    2    3 2    
     6    2    4 am   BACKBONE|DICT|INTERRES
     7    4    5 1    
     8    4  130 1    
     9    5    6 1    
    10    5   65 1    
    11    5  131 1    
    12    6    7 1    
    13    6  132 1    
    14    6  133 1    
    15    7    8 1    
    16    8    9 1    
    17    8  134 1    
    18    8  135 1    
    19    9   10 ar   
    20    9   14 ar   
    21   10   11 ar   
    22   10  136 1    
    23   11   12 ar   
    24   11  126 1    
    25   12   13 ar   
    26   12  137 1    
    27   13   14 ar   
    28   13   15 1    
    29   14  138 1    
    30   15   16 1    
    31   15  139 1    
    32   15  140 1    
    33   16   17 1    
    34   17   18 1    
    35   17  141 1    
    36   17  142 1    
    37   18   19 1    
    38   18   67 1    
    39   18  143 1    
    40   19   20 am   BACKBONE|DICT|INTERRES
    41   19  144 1    
    42   20   21 2    
    43   20   22 1    
    44   22   23 1    
    45   22   24 1    
    46   22  145 1    
    47   23  146 1    
    48   23  147 1    
    49   23  148 1    
    50   24   25 am   BACKBONE|DICT|INTERRES
    51   24  149 1    
    52   25   26 2    
    53   25   27 1    
    54   27   28 1    
    55   27   29 1    
    56   27  150 1    
    57   28  151 1    
    58   28  152 1    
    59   28  153 1    
    60   29   30 am   BACKBONE|DICT|INTERRES
    61   29  154 1    
    62   30   31 2    
    63   30   32 1    
    64   32   33 1    
    65   32   34 1    
    66   32  155 1    
    67   33  156 1    
    68   33  157 1    
    69   33  158 1    
    70   34   35 am   BACKBONE|DICT|INTERRES
    71   34  159 1    
    72   35   36 2    
    73   35   37 1    
    74   37   38 1    
    75   37   39 1    
    76   37  160 1    
    77   38  161 1    
    78   38  162 1    
    79   38  163 1    
    80   39   40 am   BACKBONE|DICT|INTERRES
    81   39  164 1    
    82   40   41 2    
    83   40   42 1    
    84   42   43 1    
    85   42   44 1    
    86   42  165 1    
    87   43  166 1    
    88   43  167 1    
    89   43  168 1    
    90   44   45 am   BACKBONE|DICT|INTERRES
    91   44  169 1    
    92   45   46 2    
    93   45   47 1    
    94   47   48 1    
    95   47   49 1    
    96   47  170 1    
    97   48  171 1    
    98   48  172 1    
    99   48  173 1    
   100   49   50 am   BACKBONE|DICT|INTERRES
   101   49  174 1    
   102   50   51 2    
   103   50   52 1    
   104   52   53 1    
   105   52   54 1    
   106   52  175 1    
   107   53  176 1    
   108   53  177 1    
   109   53  178 1    
   110   54   55 am   BACKBONE|DICT|INTERRES
   111   54  179 1    
   112   55   56 2    
   113   55   57 1    
   114   57   58 1    
   115   57   59 1    
   116   57  180 1    
   117   58  181 1    
   118   58  182 1    
   119   58  183 1    
   120   59   60 am   BACKBONE|DICT|INTERRES
   121   59  184 1    
   122   60   61 2    
   123   60   62 1    
   124   62   63 1    
   125   62   64 1    
   126   62  185 1    
   127   63  186 1    
   128   63  187 1    
   129   63  188 1    
   130   64   65 am   BACKBONE|DICT|INTERRES
   131   64  189 1    
   132   65   66 2    
   133   67   68 2    
   134   67   69 am   BACKBONE|DICT|INTERRES
   135   69   70 1    
   136   69  190 1    
   137   70   71 1    
   138   70   72 1    
   139   70  191 1    
   140   71  192 1    
   141   71  193 1    
   142   71  194 1    
   143   72   73 2    
   144   72   74 am   BACKBONE|DICT|INTERRES
   145   74   75 1    
   146   74  195 1    
   147   75   76 1    
   148   75   77 1    
   149   75  196 1    
   150   76  197 1    
   151   76  198 1    
   152   76  199 1    
   153   77   78 2    
   154   77   79 am   BACKBONE|DICT|INTERRES
   155   79   80 1    
   156   79  200 1    
   157   80   81 1    
   158   80   82 1    
   159   80  201 1    
   160   81  202 1    
   161   81  203 1    
   162   81  204 1    
   163   82   83 2    
   164   82   84 am   BACKBONE|DICT|INTERRES
   165   84   85 1    
   166   84  205 1    
   167   85   86 1    
   168   85   87 1    
   169   85  206 1    
   170   86  207 1    
   171   86  208 1    
   172   86  209 1    
   173   87   88 2    
   174   87   89 am   BACKBONE|DICT|INTERRES
   175   89   90 1    
   176   89  210 1    
   177   90   91 1    
   178   90   92 1    
   179   90  211 1    
   180   91  212 1    
   181   91  213 1    
   182   91  214 1    
   183   92   93 2    
   184   92   94 am   BACKBONE|DICT|INTERRES
   185   94   95 1    
   186   94  215 1    
   187   95   96 1    
   188   95   97 1    
   189   95  216 1    
   190   96  217 1    
   191   96  218 1    
   192   96  219 1    
   193   97   98 2    
   194   97   99 am   BACKBONE|DICT|INTERRES
   195   99  100 1    
   196   99  220 1    
   197  100  101 1    
   198  100  102 1    
   199  100  221 1    
   200  101  222 1    
   201  101  223 1    
   202  101  224 1    
   203  102  103 2    
   204  102  104 am   BACKBONE|DICT|INTERRES
   205  104  105 1    
   206  104  225 1    
   207  105  106 1    
   208  105  107 1    
   209  105  226 1    
   210  106  227 1    
   211  106  228 1    
   212  106  229 1    
   213  107  108 2    
   214  107  109 am   BACKBONE|DICT|INTERRES
   215  109  110 1    
   216  109  230 1    
   217  110  111 1    
   218  110  112 1    
   219  110  231 1    
   220  111  232 1    
   221  111  233 1    
   222  111  234 1    
   223  112  113 2    
   224  112  114 am   BACKBONE|DICT|INTERRES
   225  114  115 1    
   226  114  235 1    
   227  115  116 1    
   228  115  117 1    
   229  115  236 1    
   230  116  237 1    
   231  116  238 1    
   232  116  239 1    
   233  117  118 2    
   234  117  119 am   BACKBONE|DICT|INTERRES
   235  119  120 1    
   236  119  240 1    
   237  120  121 1    
   238  120  124 1    
   239  120  241 1    
   240  121  122 am   BACKBONE|DICT|INTERRES
   241  121  123 2    
   242  122  242 1    
   243  122  243 1    
   244  124  125 1    
   245  124  244 1    
   246  124  245 1    
   247  125  126 1    
   248  126  246 1    
   249  126  247 1    
@<TRIPOS>SUBSTRUCTURE
     1 UNK         1 GROUP             0       ****    0 ROOT    
