@<TRIPOS>MOLECULE
3R540
247   249    1
SMALL
USER_CHARGES


@<TRIPOS>ATOM
      1 CA          6.4032  -18.7562  -46.9331 C.3       0 UNK        -0.1800 
      2 C           5.2920  -17.7744  -46.5909 C.2       0 UNK         0.5000 
      3 O           4.5281  -18.0188  -45.6585 O.2       0 UNK        -0.5000 
      4 N           5.2029  -16.6701  -47.3443 N.am      1 UNK        -0.5000 
      5 CA          4.1776  -15.6261  -47.2097 C.3       1 UNK         0.1400 
      6 C6          4.2245  -14.5780  -48.3590 C.3       23 UNK        -0.0398 
      7 S7          4.6492  -15.2432  -50.0079 S.3       23 UNK        -0.2404 
      8 C8          3.0680  -15.1490  -50.9089 C.3       23 UNK        -0.0205 
      9 C9          2.1189  -16.3056  -50.6155 C.ar      23 UNK        -0.0193 
     10 C10         0.7489  -16.0602  -50.4881 C.ar      23 UNK        -0.1150 
     11 C11        -0.1512  -17.1136  -50.3048 C.ar      23 UNK        -0.0193 
     12 C12         0.3311  -18.4228  -50.2180 C.ar      23 UNK        -0.1150 
     13 C13         1.6998  -18.6839  -50.3375 C.ar      23 UNK        -0.0193 
     14 C14         2.5846  -17.6236  -50.5465 C.ar      23 UNK        -0.1150 
     15 C15         2.2230  -20.1125  -50.2775 C.3       23 UNK        -0.0205 
     16 S16         3.1942  -20.4529  -48.7697 S.3       23 UNK        -0.2404 
     17 C17         1.9738  -20.1756  -47.4407 C.3       23 UNK        -0.0398 
     18 CA          1.2675  -21.4629  -46.9500 C.3       11 UNK         0.1400 
     19 N           0.5773  -21.2452  -45.6777 N.am      11 UNK        -0.5000 
     20 C          -0.0420  -22.1849  -44.9505 C.2       10 UNK         0.5000 
     21 O          -0.0350  -23.3824  -45.2306 O.2       10 UNK        -0.5000 
     22 CA         -0.8576  -21.6967  -43.7388 C.3       10 UNK         0.1400 
     23 CB          0.0428  -21.4925  -42.5117 C.3       10 UNK        -0.1800 
     24 N          -1.6018  -20.4678  -44.0255 N.am      10 UNK        -0.5000 
     25 C          -2.5886  -20.3814  -44.9298 C.2       9 UNK         0.5000 
     26 O          -3.0129  -21.3463  -45.5654 O.2       9 UNK        -0.5000 
     27 CA         -3.1711  -18.9828  -45.2044 C.3       9 UNK         0.1400 
     28 CB         -4.1987  -18.5989  -44.1298 C.3       9 UNK        -0.1800 
     29 N          -2.1385  -17.9494  -45.2990 N.am      9 UNK        -0.5000 
     30 C          -1.2056  -17.8970  -46.2610 C.2       8 UNK         0.5000 
     31 O          -1.1661  -18.6841  -47.2064 O.2       8 UNK        -0.5000 
     32 CA         -0.0980  -16.8329  -46.1105 C.3       8 UNK         0.1400 
     33 CB         -0.5590  -15.4591  -46.6139 C.3       8 UNK        -0.1800 
     34 N           0.3681  -16.6976  -44.7320 N.am      8 UNK        -0.5000 
     35 C           0.9602  -17.6729  -44.0312 C.2       7 UNK         0.5000 
     36 O           1.2104  -18.7858  -44.4877 O.2       7 UNK        -0.5000 
     37 CA          1.2581  -17.3817  -42.5528 C.3       7 UNK         0.1400 
     38 CB          2.5381  -16.5548  -42.4029 C.3       7 UNK        -0.1800 
     39 N           0.1465  -16.6917  -41.9014 N.am      7 UNK        -0.5000 
     40 C          -1.0334  -17.2627  -41.6243 C.2       6 UNK         0.5000 
     41 O          -1.2942  -18.4427  -41.8579 O.2       6 UNK        -0.5000 
     42 CA         -2.1140  -16.3484  -41.0202 C.3       6 UNK         0.1400 
     43 CB         -1.9249  -16.2138  -39.5019 C.3       6 UNK        -0.1800 
     44 N          -2.1267  -15.0171  -41.6291 N.am      6 UNK        -0.5000 
     45 C          -2.4711  -14.7740  -42.9014 C.2       5 UNK         0.5000 
     46 O          -2.8317  -15.6459  -43.6902 O.2       5 UNK        -0.5000 
     47 CA         -2.3547  -13.3181  -43.3856 C.3       5 UNK         0.1400 
     48 CB         -3.6301  -12.5324  -43.0464 C.3       5 UNK        -0.1800 
     49 N          -1.1893  -12.6135  -42.8442 N.am      5 UNK        -0.5000 
     50 C           0.0829  -12.9591  -43.0793 C.2       4 UNK         0.5000 
     51 O           0.4142  -13.9561  -43.7232 O.2       4 UNK        -0.5000 
     52 CA          1.1626  -12.0591  -42.4703 C.3       4 UNK         0.1400 
     53 CB          1.7466  -12.6878  -41.1947 C.3       4 UNK        -0.1800 
     54 N           2.2270  -11.8666  -43.4501 N.am      4 UNK        -0.5000 
     55 C           2.8550  -10.7058  -43.6817 C.2       3 UNK         0.5000 
     56 O           2.6002   -9.6647  -43.0724 O.2       3 UNK        -0.5000 
     57 CA          3.9451  -10.7067  -44.7788 C.3       3 UNK         0.1400 
     58 CB          4.9178   -9.5136  -44.6674 C.3       3 UNK        -0.1800 
     59 N           4.6825  -11.9719  -44.8608 N.am      3 UNK        -0.5000 
     60 C           5.4031  -12.5629  -43.8962 C.2       2 UNK         0.5000 
     61 O           5.6299  -12.0444  -42.8019 O.2       2 UNK        -0.5000 
     62 CA          5.9737  -13.9697  -44.1920 C.3       2 UNK         0.1400 
     63 CB          5.7433  -14.9229  -43.0055 C.3       2 UNK        -0.1800 
     64 N           5.5252  -14.6025  -45.4434 N.am      2 UNK        -0.5000 
     65 C           4.2782  -14.8978  -45.8505 C.2       1 UNK         0.5000 
     66 O           3.2573  -14.5927  -45.2364 O.2       1 UNK        -0.5000 
     67 C           0.3113  -22.0393  -48.0137 C.2       11 UNK         0.5000 
     68 O           0.6413  -23.0501  -48.6323 O.2       11 UNK        -0.5000 
     69 N          -0.8683  -21.4210  -48.1770 N.am      12 UNK        -0.5000 
     70 CA         -1.9255  -21.8788  -49.0817 C.3       12 UNK         0.1400 
     71 CB         -3.0795  -20.8655  -49.0852 C.3       12 UNK        -0.1800 
     72 C          -2.4384  -23.2885  -48.7363 C.2       12 UNK         0.5000 
     73 O          -2.6033  -24.1120  -49.6348 O.2       12 UNK        -0.5000 
     74 N          -2.6449  -23.5572  -47.4398 N.am      13 UNK        -0.5000 
     75 CA         -3.0430  -24.8667  -46.9229 C.3       13 UNK         0.1400 
     76 CB         -3.3874  -24.7491  -45.4308 C.3       13 UNK        -0.1800 
     77 C          -1.9779  -25.9550  -47.1607 C.2       13 UNK         0.5000 
     78 O          -2.3309  -27.0672  -47.5536 O.2       13 UNK        -0.5000 
     79 N          -0.7001  -25.6116  -46.9449 N.am      14 UNK        -0.5000 
     80 CA          0.4502  -26.4874  -47.1751 C.3       14 UNK         0.1400 
     81 CB          1.7034  -25.8688  -46.5366 C.3       14 UNK        -0.1800 
     82 C           0.6888  -26.7841  -48.6670 C.2       14 UNK         0.5000 
     83 O           0.9749  -27.9294  -49.0188 O.2       14 UNK        -0.5000 
     84 N           0.5548  -25.7560  -49.5161 N.am      15 UNK        -0.5000 
     85 CA          0.6674  -25.8549  -50.9734 C.3       15 UNK         0.1400 
     86 CB          0.7888  -24.4411  -51.5638 C.3       15 UNK        -0.1800 
     87 C          -0.5094  -26.6080  -51.6254 C.2       15 UNK         0.5000 
     88 O          -0.3275  -27.1925  -52.6946 O.2       15 UNK        -0.5000 
     89 N          -1.6736  -26.5761  -50.9610 N.am      16 UNK        -0.5000 
     90 CA         -2.9854  -27.0806  -51.3722 C.3       16 UNK         0.1400 
     91 CB         -2.9320  -28.5738  -51.7594 C.3       16 UNK        -0.1800 
     92 C          -3.6373  -26.2099  -52.4658 C.2       16 UNK         0.5000 
     93 O          -2.9990  -25.3141  -53.0234 O.2       16 UNK        -0.5000 
     94 N          -4.9249  -26.4829  -52.7274 N.am      17 UNK        -0.5000 
     95 CA         -5.8205  -25.7270  -53.6131 C.3       17 UNK         0.1400 
     96 CB         -5.3658  -25.8167  -55.0854 C.3       17 UNK        -0.1800 
     97 C          -6.0283  -24.2784  -53.1216 C.2       17 UNK         0.5000 
     98 O          -5.9264  -23.3279  -53.9005 O.2       17 UNK        -0.5000 
     99 N          -6.3217  -24.1456  -51.8200 N.am      18 UNK        -0.5000 
    100 CA        -6.5731  -22.8890  -51.1106 C.3       18 UNK         0.1400 
    101 CB        -6.3243  -23.1169  -49.6082 C.3       18 UNK        -0.1800 
    102 C         -7.9831  -22.3278  -51.4017 C.2       18 UNK         0.5000 
    103 O         -8.7858  -22.1444  -50.4845 O.2       18 UNK        -0.5000 
    104 N         -8.2640  -22.0902  -52.6838 N.am      19 UNK        -0.5000 
    105 CA        -9.4694  -21.4657  -53.2118 C.3       19 UNK         0.1400 
    106 CB       -10.3702  -22.5452  -53.8319 C.3       19 UNK        -0.1800 
    107 C         -9.0355  -20.4352  -54.2621 C.2       19 UNK         0.5000 
    108 O         -7.9730  -20.6007  -54.8673 O.2       19 UNK        -0.5000 
    109 N         -9.8550  -19.3897  -54.4508 N.am      20 UNK        -0.5000 
    110 CA        -9.5689  -18.2003  -55.2667 C.3       20 UNK         0.1400 
    111 CB        -9.5282  -18.5517  -56.7692 C.3       20 UNK        -0.1800 
    112 C         -8.2907  -17.4951  -54.7657 C.2       20 UNK         0.5000 
    113 O         -7.3011  -17.3944  -55.4930 O.2       20 UNK        -0.5000 
    114 N         -8.3389  -17.0913  -53.4883 N.am      21 UNK        -0.5000 
    115 CA        -7.2241  -16.6510  -52.6488 C.3       21 UNK         0.1400 
    116 CB        -6.4888  -15.4224  -53.2354 C.3       21 UNK        -0.1800 
    117 C         -6.3183  -17.8466  -52.2910 C.2       21 UNK         0.5000 
    118 O         -6.7888  -18.7662  -51.6195 O.2       21 UNK        -0.5000 
    119 N         -5.0481  -17.8066  -52.7059 N.am      22 UNK        -0.5000 
    120 CA        -3.9858  -18.7450  -52.3015 C.3       22 UNK         0.1400 
    121 C         -4.0931  -20.1939  -52.8652 C.2       22 UNK         0.5000 
    122 N         -5.0610  -20.5228  -53.7094 N.am      22 UNK        -0.7600 
    123 O         -3.2857  -21.0458  -52.5088 O.2       22 UNK        -0.5000 
    124 C124       -2.5719  -18.1534  -52.5456 C.3       23 UNK        -0.0398 
    125 S125       -2.3693  -16.4781  -51.8456 S.3       23 UNK        -0.2404 
    126 C126       -1.6432  -16.8281  -50.2146 C.3       23 UNK        -0.0205 
    127 H127        7.0760  -18.8728  -46.0835 H         1 UNK         0.0600 
    128 H128        6.9895  -18.4233  -47.7899 H         1 UNK         0.0600 
    129 H129        5.9792  -19.7319  -47.1708 H         1 UNK         0.0600 
    130 H130        5.8416  -16.5446  -48.1171 H         1 UNK         0.3000 
    131 H131        3.2069  -16.1259  -47.2482 H         1 UNK         0.0600 
    132 H132        3.2724  -14.0474  -48.4116 H         1 UNK         0.0800 
    133 H133        4.9753  -13.8118  -48.1555 H         1 UNK         0.0800 
    134 H134        2.5923  -14.1885  -50.7049 H         1 UNK         0.0800 
    135 H135        3.2847  -15.1586  -51.9777 H         1 UNK         0.0800 
    136 H136        0.3735  -15.0492  -50.5640 H         1 UNK         0.1150 
    137 H137       -0.3607  -19.2390  -50.0665 H         1 UNK         0.1150 
    138 H138        3.6390  -17.8310  -50.6624 H         1 UNK         0.1150 
    139 H139        1.4049  -20.8285  -50.3600 H         1 UNK         0.0800 
    140 H140        2.8597  -20.2902  -51.1452 H         1 UNK         0.0800 
    141 H141        1.2540  -19.4164  -47.7404 H         1 UNK         0.0800 
    142 H142        2.5282  -19.7337  -46.6120 H         1 UNK         0.0800 
    143 H143        2.0355  -22.2154  -46.7596 H         1 UNK         0.0600 
    144 H144        0.5832  -20.2913  -45.3224 H         1 UNK         0.3000 
    145 H145       -1.5843  -22.4744  -43.4952 H         1 UNK         0.0600 
    146 H146       -0.5423  -21.2080  -41.6371 H         1 UNK         0.0600 
    147 H147        0.5752  -22.4113  -42.2628 H         1 UNK         0.0600 
    148 H148        0.7893  -20.7171  -42.6808 H         1 UNK         0.0600 
    149 H149       -1.3379  -19.6402  -43.5010 H         1 UNK         0.3000 
    150 H150       -3.6888  -19.0242  -46.1649 H         1 UNK         0.0600 
    151 H151       -4.9816  -19.3541  -44.0501 H         1 UNK         0.0600 
    152 H152       -4.6834  -17.6525  -44.3698 H         1 UNK         0.0600 
    153 H153       -3.7372  -18.4981  -43.1473 H         1 UNK         0.0600 
    154 H154       -2.1518  -17.2261  -44.5858 H         1 UNK         0.3000 
    155 H155        0.7530  -17.1480  -46.7178 H         1 UNK         0.0600 
    156 H156        0.2278  -14.7134  -46.4954 H         1 UNK         0.0600 
    157 H157       -1.4392  -15.1059  -46.0767 H         1 UNK         0.0600 
    158 H158       -0.8078  -15.4953  -47.6713 H         1 UNK         0.0600 
    159 H159        0.2538  -15.7848  -44.2993 H         1 UNK         0.3000 
    160 H160        1.4131  -18.3371  -42.0472 H         1 UNK         0.0600 
    161 H161        2.7988  -16.4102  -41.3546 H         1 UNK         0.0600 
    162 H162        2.4311  -15.5733  -42.8638 H         1 UNK         0.0600 
    163 H163        3.3798  -17.0533  -42.8863 H         1 UNK         0.0600 
    164 H164        0.2606  -15.7040  -41.7311 H         1 UNK         0.3000 
    165 H165       -3.0844  -16.8151  -41.2030 H         1 UNK         0.0600 
    166 H166       -2.7309  -15.6319  -39.0545 H         1 UNK         0.0600 
    167 H167       -1.9267  -17.1929  -39.0208 H         1 UNK         0.0600 
    168 H168       -0.9809  -15.7274  -39.2532 H         1 UNK         0.0600 
    169 H169       -1.8412  -14.2422  -41.0489 H         1 UNK         0.3000 
    170 H170       -2.2511  -13.3423  -44.4723 H         1 UNK         0.0600 
    171 H171       -4.5129  -13.0266  -43.4546 H         1 UNK         0.0600 
    172 H172       -3.7738  -12.4409  -41.9691 H         1 UNK         0.0600 
    173 H173       -3.5985  -11.5276  -43.4681 H         1 UNK         0.0600 
    174 H174       -1.3803  -11.7877  -42.2951 H         1 UNK         0.3000 
    175 H175        0.7050  -11.1011  -42.2145 H         1 UNK         0.0600 
    176 H176        2.2360  -13.6397  -41.4017 H         1 UNK         0.0600 
    177 H177        2.4849  -12.0291  -40.7372 H         1 UNK         0.0600 
    178 H178        0.9678  -12.8695  -40.4531 H         1 UNK         0.0600 
    179 H179        2.4500  -12.6825  -44.0106 H         1 UNK         0.3000 
    180 H180        3.4130  -10.6058  -45.7256 H         1 UNK         0.0600 
    181 H181        5.6654   -9.5390  -45.4603 H         1 UNK         0.0600 
    182 H182        5.4425   -9.5054  -43.7117 H         1 UNK         0.0600 
    183 H183        4.3863   -8.5654  -44.7558 H         1 UNK         0.0600 
    184 H184        4.5410  -12.5016  -45.7078 H         1 UNK         0.3000 
    185 H185        7.0509  -13.8372  -44.3013 H         1 UNK         0.0600 
    186 H186        6.0591  -15.9401  -43.2380 H         1 UNK         0.0600 
    187 H187        6.3049  -14.5991  -42.1287 H         1 UNK         0.0600 
    188 H188        4.6932  -14.9484  -42.7228 H         1 UNK         0.0600 
    189 H189        6.2756  -14.8946  -46.0539 H         1 UNK         0.3000 
    190 H190       -1.0549  -20.5708  -47.6519 H         1 UNK         0.3000 
    191 H191       -1.5055  -21.9169  -50.0890 H         1 UNK         0.0600 
    192 H192       -3.8679  -21.1759  -49.7715 H         1 UNK         0.0600 
    193 H193       -2.7362  -19.8837  -49.4056 H         1 UNK         0.0600 
    194 H194       -3.5297  -20.7566  -48.0992 H         1 UNK         0.0600 
    195 H195       -2.5377  -22.8083  -46.7612 H         1 UNK         0.3000 
    196 H196       -3.9482  -25.1689  -47.4540 H         1 UNK         0.0600 
    197 H197       -2.5271  -24.4317  -44.8417 H         1 UNK         0.0600 
    198 H198       -4.1882  -24.0277  -45.2672 H         1 UNK         0.0600 
    199 H199       -3.7240  -25.7065  -45.0313 H         1 UNK         0.0600 
    200 H200       -0.4984  -24.6895  -46.5676 H         1 UNK         0.3000 
    201 H201        0.2525  -27.4383  -46.6758 H         1 UNK         0.0600 
    202 H202        1.9343  -24.8931  -46.9653 H         1 UNK         0.0600 
    203 H203        2.5744  -26.5083  -46.6843 H         1 UNK         0.0600 
    204 H204        1.5737  -25.7385  -45.4621 H         1 UNK         0.0600 
    205 H205        0.3859  -24.8260  -49.1381 H         1 UNK         0.3000 
    206 H206        1.5825  -26.4026  -51.2077 H         1 UNK         0.0600 
    207 H207        1.6569  -23.9177  -51.1625 H         1 UNK         0.0600 
    208 H208        0.9017  -24.4776  -52.6479 H         1 UNK         0.0600 
    209 H209       -0.0954  -23.8403  -51.3456 H         1 UNK         0.0600 
    210 H210       -1.7056  -25.9722  -50.1479 H         1 UNK         0.3000 
    211 H211       -3.6131  -26.9890  -50.4844 H         1 UNK         0.0600 
    212 H212       -3.9343  -28.9943  -51.8424 H         1 UNK         0.0600 
    213 H213       -2.4003  -29.1573  -51.0074 H         1 UNK         0.0600 
    214 H214       -2.4379  -28.7301  -52.7185 H         1 UNK         0.0600 
    215 H215       -5.3602  -27.2433  -52.2240 H         1 UNK         0.3000 
    216 H216       -6.7963  -26.2106  -53.5478 H         1 UNK         0.0600 
    217 H217       -6.1060  -25.3662  -55.7476 H         1 UNK         0.0600 
    218 H218       -4.4220  -25.2981  -55.2551 H         1 UNK         0.0600 
    219 H219       -5.2399  -26.8535  -55.3968 H         1 UNK         0.0600 
    220 H220       -6.4010  -24.9848  -51.2656 H         1 UNK         0.3000 
    221 H221       -5.8514  -22.1461  -51.4531 H         1 UNK         0.0600 
    222 H222       -5.3181  -23.4929  -49.4284 H         1 UNK         0.0600 
    223 H223       -7.0283  -23.8349  -49.1858 H         1 UNK         0.0600 
    224 H224       -6.4259  -22.1856  -49.0496 H         1 UNK         0.0600 
    225 H225       -7.5282  -22.2358  -53.3706 H         1 UNK         0.3000 
    226 H226      -10.0089  -20.9480  -52.4159 H         1 UNK         0.0600 
    227 H227       -9.8650  -23.0729  -54.6421 H         1 UNK         0.0600 
    228 H228      -10.6687  -23.2831  -53.0871 H         1 UNK         0.0600 
    229 H229      -11.2815  -22.1075  -54.2409 H         1 UNK         0.0600 
    230 H230      -10.7127  -19.3529  -53.9175 H         1 UNK         0.3000 
    231 H231      -10.3949  -17.5037  -55.1154 H         1 UNK         0.0600 
    232 H232       -8.7048  -19.2235  -57.0132 H         1 UNK         0.0600 
    233 H233       -9.4030  -17.6525  -57.3733 H         1 UNK         0.0600 
    234 H234      -10.4547  -19.0301  -57.0861 H         1 UNK         0.0600 
    235 H235       -9.1975  -17.2628  -52.9842 H         1 UNK         0.3000 
    236 H236       -7.6708  -16.3288  -51.7070 H         1 UNK         0.0600 
    237 H237       -5.7449  -15.0445  -52.5327 H         1 UNK         0.0600 
    238 H238       -5.9724  -15.6420  -54.1695 H         1 UNK         0.0600 
    239 H239       -7.1874  -14.6084  -53.4292 H         1 UNK         0.0600 
    240 H240       -4.7502  -17.0236  -53.2689 H         1 UNK         0.3000 
    241 H241       -4.0898  -18.8640  -51.2217 H         1 UNK         0.0600 
    242 H242       -5.1470  -21.4882  -54.0077 H         1 UNK         0.3800 
    243 H243       -5.7581  -19.8537  -53.9987 H         1 UNK         0.3800 
    244 H244       -2.3727  -18.0930  -53.6167 H         1 UNK         0.0800 
    245 H245       -1.8020  -18.8077  -52.1343 H         1 UNK         0.0800 
    246 H246       -1.8103  -15.9542  -49.5869 H         1 UNK         0.0800 
    247 H247       -2.1735  -17.6503  -49.7341 H         1 UNK         0.0800 
@<TRIPOS>BOND
     1    1    2 1    
     2    1  127 1    
     3    1  128 1    
     4    1  129 1    
     5    2    3 2    
     6    2    4 am   BACKBONE|DICT|INTERRES
     7    4    5 1    
     8    4  130 1    
     9    5    6 1    
    10    5   65 1    
    11    5  131 1    
    12    6    7 1    
    13    6  132 1    
    14    6  133 1    
    15    7    8 1    
    16    8    9 1    
    17    8  134 1    
    18    8  135 1    
    19    9   10 ar   
    20    9   14 ar   
    21   10   11 ar   
    22   10  136 1    
    23   11   12 ar   
    24   11  126 1    
    25   12   13 ar   
    26   12  137 1    
    27   13   14 ar   
    28   13   15 1    
    29   14  138 1    
    30   15   16 1    
    31   15  139 1    
    32   15  140 1    
    33   16   17 1    
    34   17   18 1    
    35   17  141 1    
    36   17  142 1    
    37   18   19 1    
    38   18   67 1    
    39   18  143 1    
    40   19   20 am   BACKBONE|DICT|INTERRES
    41   19  144 1    
    42   20   21 2    
    43   20   22 1    
    44   22   23 1    
    45   22   24 1    
    46   22  145 1    
    47   23  146 1    
    48   23  147 1    
    49   23  148 1    
    50   24   25 am   BACKBONE|DICT|INTERRES
    51   24  149 1    
    52   25   26 2    
    53   25   27 1    
    54   27   28 1    
    55   27   29 1    
    56   27  150 1    
    57   28  151 1    
    58   28  152 1    
    59   28  153 1    
    60   29   30 am   BACKBONE|DICT|INTERRES
    61   29  154 1    
    62   30   31 2    
    63   30   32 1    
    64   32   33 1    
    65   32   34 1    
    66   32  155 1    
    67   33  156 1    
    68   33  157 1    
    69   33  158 1    
    70   34   35 am   BACKBONE|DICT|INTERRES
    71   34  159 1    
    72   35   36 2    
    73   35   37 1    
    74   37   38 1    
    75   37   39 1    
    76   37  160 1    
    77   38  161 1    
    78   38  162 1    
    79   38  163 1    
    80   39   40 am   BACKBONE|DICT|INTERRES
    81   39  164 1    
    82   40   41 2    
    83   40   42 1    
    84   42   43 1    
    85   42   44 1    
    86   42  165 1    
    87   43  166 1    
    88   43  167 1    
    89   43  168 1    
    90   44   45 am   BACKBONE|DICT|INTERRES
    91   44  169 1    
    92   45   46 2    
    93   45   47 1    
    94   47   48 1    
    95   47   49 1    
    96   47  170 1    
    97   48  171 1    
    98   48  172 1    
    99   48  173 1    
   100   49   50 am   BACKBONE|DICT|INTERRES
   101   49  174 1    
   102   50   51 2    
   103   50   52 1    
   104   52   53 1    
   105   52   54 1    
   106   52  175 1    
   107   53  176 1    
   108   53  177 1    
   109   53  178 1    
   110   54   55 am   BACKBONE|DICT|INTERRES
   111   54  179 1    
   112   55   56 2    
   113   55   57 1    
   114   57   58 1    
   115   57   59 1    
   116   57  180 1    
   117   58  181 1    
   118   58  182 1    
   119   58  183 1    
   120   59   60 am   BACKBONE|DICT|INTERRES
   121   59  184 1    
   122   60   61 2    
   123   60   62 1    
   124   62   63 1    
   125   62   64 1    
   126   62  185 1    
   127   63  186 1    
   128   63  187 1    
   129   63  188 1    
   130   64   65 am   BACKBONE|DICT|INTERRES
   131   64  189 1    
   132   65   66 2    
   133   67   68 2    
   134   67   69 am   BACKBONE|DICT|INTERRES
   135   69   70 1    
   136   69  190 1    
   137   70   71 1    
   138   70   72 1    
   139   70  191 1    
   140   71  192 1    
   141   71  193 1    
   142   71  194 1    
   143   72   73 2    
   144   72   74 am   BACKBONE|DICT|INTERRES
   145   74   75 1    
   146   74  195 1    
   147   75   76 1    
   148   75   77 1    
   149   75  196 1    
   150   76  197 1    
   151   76  198 1    
   152   76  199 1    
   153   77   78 2    
   154   77   79 am   BACKBONE|DICT|INTERRES
   155   79   80 1    
   156   79  200 1    
   157   80   81 1    
   158   80   82 1    
   159   80  201 1    
   160   81  202 1    
   161   81  203 1    
   162   81  204 1    
   163   82   83 2    
   164   82   84 am   BACKBONE|DICT|INTERRES
   165   84   85 1    
   166   84  205 1    
   167   85   86 1    
   168   85   87 1    
   169   85  206 1    
   170   86  207 1    
   171   86  208 1    
   172   86  209 1    
   173   87   88 2    
   174   87   89 am   BACKBONE|DICT|INTERRES
   175   89   90 1    
   176   89  210 1    
   177   90   91 1    
   178   90   92 1    
   179   90  211 1    
   180   91  212 1    
   181   91  213 1    
   182   91  214 1    
   183   92   93 2    
   184   92   94 am   BACKBONE|DICT|INTERRES
   185   94   95 1    
   186   94  215 1    
   187   95   96 1    
   188   95   97 1    
   189   95  216 1    
   190   96  217 1    
   191   96  218 1    
   192   96  219 1    
   193   97   98 2    
   194   97   99 am   BACKBONE|DICT|INTERRES
   195   99  100 1    
   196   99  220 1    
   197  100  101 1    
   198  100  102 1    
   199  100  221 1    
   200  101  222 1    
   201  101  223 1    
   202  101  224 1    
   203  102  103 2    
   204  102  104 am   BACKBONE|DICT|INTERRES
   205  104  105 1    
   206  104  225 1    
   207  105  106 1    
   208  105  107 1    
   209  105  226 1    
   210  106  227 1    
   211  106  228 1    
   212  106  229 1    
   213  107  108 2    
   214  107  109 am   BACKBONE|DICT|INTERRES
   215  109  110 1    
   216  109  230 1    
   217  110  111 1    
   218  110  112 1    
   219  110  231 1    
   220  111  232 1    
   221  111  233 1    
   222  111  234 1    
   223  112  113 2    
   224  112  114 am   BACKBONE|DICT|INTERRES
   225  114  115 1    
   226  114  235 1    
   227  115  116 1    
   228  115  117 1    
   229  115  236 1    
   230  116  237 1    
   231  116  238 1    
   232  116  239 1    
   233  117  118 2    
   234  117  119 am   BACKBONE|DICT|INTERRES
   235  119  120 1    
   236  119  240 1    
   237  120  121 1    
   238  120  124 1    
   239  120  241 1    
   240  121  122 am   BACKBONE|DICT|INTERRES
   241  121  123 2    
   242  122  242 1    
   243  122  243 1    
   244  124  125 1    
   245  124  244 1    
   246  124  245 1    
   247  125  126 1    
   248  126  246 1    
   249  126  247 1    
@<TRIPOS>SUBSTRUCTURE
     1 UNK         1 GROUP             0       ****    0 ROOT    
