@<TRIPOS>MOLECULE
3R540
247   249    1
SMALL
USER_CHARGES


@<TRIPOS>ATOM
      1 CA         -3.2292  -12.8766  -42.4762 C.3       0 UNK        -0.1800 
      2 C          -4.2387  -13.2653  -43.5478 C.2       0 UNK         0.5000 
      3 O          -5.4176  -13.4461  -43.2447 O.2       0 UNK        -0.5000 
      4 N          -3.7757  -13.3943  -44.7941 N.am      1 UNK        -0.5000 
      5 CA         -4.5603  -13.7580  -45.9745 C.3       1 UNK         0.1400 
      6 C6         -5.1572  -15.1951  -45.8978 C.3       23 UNK        -0.0398 
      7 S7         -5.9329  -15.7825  -47.4466 S.3       23 UNK        -0.2404 
      8 C8         -4.7387  -17.0421  -47.9993 C.3       23 UNK        -0.0205 
      9 C9         -5.2363  -18.4458  -47.6946 C.ar      23 UNK        -0.0193 
     10 C10        -5.7938  -19.2188  -48.7158 C.ar      23 UNK        -0.1150 
     11 C11        -6.2477  -20.5136  -48.4606 C.ar      23 UNK        -0.0193 
     12 C12        -6.1735  -21.0211  -47.1610 C.ar      23 UNK        -0.1150 
     13 C13        -5.6174  -20.2616  -46.1229 C.ar      23 UNK        -0.0193 
     14 C14        -5.1402  -18.9765  -46.4038 C.ar      23 UNK        -0.1150 
     15 C15        -5.5707  -20.7808  -44.6849 C.3       23 UNK        -0.0205 
     16 S16        -5.3516  -22.5883  -44.5319 S.3       23 UNK        -0.2404 
     17 C17        -3.5347  -22.7863  -44.5005 C.3       23 UNK        -0.0398 
     18 CA         -2.7630  -22.3709  -45.7873 C.3       11 UNK         0.1400 
     19 N          -1.3517  -22.1198  -45.4814 N.am      11 UNK        -0.5000 
     20 C          -0.4401  -23.0333  -45.1130 C.2       10 UNK         0.5000 
     21 O          -0.6184  -24.2513  -45.1553 O.2       10 UNK        -0.5000 
     22 CA          0.8662  -22.4794  -44.5106 C.3       10 UNK         0.1400 
     23 CB          1.9021  -22.1744  -45.6043 C.3       10 UNK        -0.1800 
     24 N           0.6308  -21.2842  -43.6929 N.am      10 UNK        -0.5000 
     25 C          -0.0714  -21.2780  -42.5480 C.2       9 UNK         0.5000 
     26 O          -0.5302  -22.2949  -42.0259 O.2       9 UNK        -0.5000 
     27 CA         -0.3227  -19.9182  -41.8688 C.3       9 UNK         0.1400 
     28 CB          0.7459  -19.6493  -40.7987 C.3       9 UNK        -0.1800 
     29 N          -0.3705  -18.7910  -42.8005 N.am      9 UNK        -0.5000 
     30 C          -1.3217  -18.5920  -43.7240 C.2       8 UNK         0.5000 
     31 O          -2.2890  -19.3349  -43.8856 O.2       8 UNK        -0.5000 
     32 CA         -1.1287  -17.3826  -44.6599 C.3       8 UNK         0.1400 
     33 CB         -1.5831  -16.0819  -43.9807 C.3       8 UNK        -0.1800 
     34 N           0.2569  -17.2401  -45.1112 N.am      8 UNK        -0.5000 
     35 C           0.9079  -18.1577  -45.8411 C.2       7 UNK         0.5000 
     36 O           0.3911  -19.2014  -46.2360 O.2       7 UNK        -0.5000 
     37 CA          2.4002  -17.9000  -46.1087 C.3       7 UNK         0.1400 
     38 CB          2.6121  -16.9195  -47.2725 C.3       7 UNK        -0.1800 
     39 N           3.0808  -17.3990  -44.9161 N.am      7 UNK        -0.5000 
     40 C           3.3425  -18.1383  -43.8290 C.2       6 UNK         0.5000 
     41 O           3.0903  -19.3393  -43.7413 O.2       6 UNK        -0.5000 
     42 CA          3.9545  -17.3997  -42.6241 C.3       6 UNK         0.1400 
     43 CB          5.4830  -17.3263  -42.7548 C.3       6 UNK        -0.1800 
     44 N           3.4173  -16.0474  -42.4596 N.am      6 UNK        -0.5000 
     45 C           2.1456  -15.7703  -42.1375 C.2       5 UNK         0.5000 
     46 O           1.2983  -16.6301  -41.9053 O.2       5 UNK        -0.5000 
     47 CA          1.7390  -14.2856  -42.1277 C.3       5 UNK         0.1400 
     48 CB          1.9986  -13.6617  -40.7489 C.3       5 UNK        -0.1800 
     49 N           2.4256  -13.5011  -43.1571 N.am      5 UNK        -0.5000 
     50 C           2.2703  -13.6849  -44.4739 C.2       4 UNK         0.5000 
     51 O           1.5299  -14.5426  -44.9649 O.2       4 UNK        -0.5000 
     52 CA          3.1281  -12.8043  -45.3893 C.3       4 UNK         0.1400 
     53 CB          4.4684  -13.4913  -45.6978 C.3       4 UNK        -0.1800 
     54 N           2.4029  -12.5830  -46.6332 N.am      4 UNK        -0.5000 
     55 C           2.2856  -11.4108  -47.2670 C.2       3 UNK         0.5000 
     56 O           2.8722  -10.3858  -46.9162 O.2       3 UNK        -0.5000 
     57 CA          1.3591  -11.3588  -48.5021 C.3       3 UNK         0.1400 
     58 CB          2.1913  -11.2638  -49.7909 C.3       3 UNK        -0.1800 
     59 N           0.4342  -12.4906  -48.6277 N.am      3 UNK        -0.5000 
     60 C          -0.5636  -12.7774  -47.7816 C.2       2 UNK         0.5000 
     61 O          -0.8096  -12.1189  -46.7673 O.2       2 UNK        -0.5000 
     62 CA         -1.3939  -14.0316  -48.1224 C.3       2 UNK         0.1400 
     63 CB         -0.5198  -15.2947  -48.0954 C.3       2 UNK        -0.1800 
     64 N          -2.4896  -14.2187  -47.1754 N.am      2 UNK        -0.5000 
     65 C          -3.6408  -13.5336  -47.1872 C.2       1 UNK         0.5000 
     66 O          -3.9580  -12.7292  -48.0647 O.2       1 UNK        -0.5000 
     67 C          -2.9641  -23.3132  -47.0018 C.2       11 UNK         0.5000 
     68 O          -2.0573  -23.4622  -47.8254 O.2       11 UNK        -0.5000 
     69 N          -4.1580  -23.9077  -47.1241 N.am      12 UNK        -0.5000 
     70 CA         -4.6251  -24.6921  -48.2709 C.3       12 UNK         0.1400 
     71 CB         -6.0793  -25.1213  -48.0290 C.3       12 UNK        -0.1800 
     72 C          -3.7548  -25.9098  -48.6265 C.2       12 UNK         0.5000 
     73 O          -3.6971  -26.2834  -49.7977 O.2       12 UNK        -0.5000 
     74 N          -3.0547  -26.4686  -47.6303 N.am      13 UNK        -0.5000 
     75 CA         -2.0917  -27.5611  -47.7851 C.3       13 UNK         0.1400 
     76 CB         -1.6415  -28.0231  -46.3908 C.3       13 UNK        -0.1800 
     77 C          -0.8672  -27.1937  -48.6495 C.2       13 UNK         0.5000 
     78 O          -0.2612  -28.0870  -49.2425 O.2       13 UNK        -0.5000 
     79 N          -0.5344  -25.8980  -48.7113 N.am      14 UNK        -0.5000 
     80 CA          0.5718  -25.3428  -49.4908 C.3       14 UNK         0.1400 
     81 CB          1.5532  -24.6805  -48.5095 C.3       14 UNK        -0.1800 
     82 C           0.0834  -24.3222  -50.5371 C.2       14 UNK         0.5000 
     83 O           0.9136  -23.6290  -51.1256 O.2       14 UNK        -0.5000 
     84 N          -1.2419  -24.1903  -50.7098 N.am      15 UNK        -0.5000 
     85 CA         -1.9297  -23.1513  -51.4901 C.3       15 UNK         0.1400 
     86 CB         -1.7290  -23.3841  -53.0003 C.3       15 UNK        -0.1800 
     87 C          -1.5472  -21.7228  -51.0362 C.2       15 UNK         0.5000 
     88 O          -1.3120  -20.8413  -51.8633 O.2       15 UNK        -0.5000 
     89 N          -1.4311  -21.5537  -49.7116 N.am      16 UNK        -0.5000 
     90 CA         -0.9305  -20.3823  -48.9916 C.3       16 UNK         0.1400 
     91 CB         -1.9093  -19.2021  -49.1237 C.3       16 UNK        -0.1800 
     92 C           0.5124  -20.0297  -49.4032 C.2       16 UNK         0.5000 
     93 O           0.8003  -18.8796  -49.7276 O.2       16 UNK        -0.5000 
     94 N           1.3786  -21.0539  -49.4497 N.am      17 UNK        -0.5000 
     95 CA          2.7546  -21.0177  -49.9643 C.3       17 UNK         0.1400 
     96 CB          3.6682  -20.2006  -49.0290 C.3       17 UNK        -0.1800 
     97 C           2.8107  -20.5532  -51.4374 C.2       17 UNK         0.5000 
     98 O           3.6641  -19.7469  -51.8107 O.2       17 UNK        -0.5000 
     99 N           1.8569  -21.0626  -52.2293 N.am      18 UNK        -0.5000 
    100 CA         1.5667  -20.7497  -53.6312 C.3       18 UNK         0.1400 
    101 CB         2.7416  -21.1697  -54.5385 C.3       18 UNK        -0.1800 
    102 C          1.1045  -19.2978  -53.8959 C.2       18 UNK         0.5000 
    103 O          1.0720  -18.8863  -55.0574 O.2       18 UNK        -0.5000 
    104 N          0.7385  -18.5423  -52.8490 N.am      19 UNK        -0.5000 
    105 CA         0.2197  -17.1774  -52.9713 C.3       19 UNK         0.1400 
    106 CB         0.4605  -16.4118  -51.6606 C.3       19 UNK        -0.1800 
    107 C         -1.2752  -17.1351  -53.3405 C.2       19 UNK         0.5000 
    108 O         -1.7366  -16.1035  -53.8314 O.2       19 UNK        -0.5000 
    109 N         -2.0051  -18.2288  -53.0909 N.am      20 UNK        -0.5000 
    110 CA        -3.4335  -18.3693  -53.3552 C.3       20 UNK         0.1400 
    111 CB        -4.1481  -18.6274  -52.0184 C.3       20 UNK        -0.1800 
    112 C         -3.6896  -19.5139  -54.3494 C.2       20 UNK         0.5000 
    113 O         -2.7726  -20.2570  -54.7059 O.2       20 UNK        -0.5000 
    114 N         -4.9506  -19.6333  -54.7753 N.am      21 UNK        -0.5000 
    115 CA        -5.4559  -20.6872  -55.6500 C.3       21 UNK         0.1400 
    116 CB        -5.9599  -20.0550  -56.9605 C.3       21 UNK        -0.1800 
    117 C         -6.5528  -21.4466  -54.8874 C.2       21 UNK         0.5000 
    118 O         -7.7345  -21.3377  -55.2193 O.2       21 UNK        -0.5000 
    119 N         -6.1372  -22.1598  -53.8336 N.am      22 UNK        -0.5000 
    120 CA        -7.0199  -22.8999  -52.9130 C.3       22 UNK         0.1400 
    121 C         -7.7166  -24.1535  -53.5231 C.2       22 UNK         0.5000 
    122 N         -7.2998  -24.6545  -54.6796 N.am      22 UNK        -0.7600 
    123 O         -8.6565  -24.6800  -52.9340 O.2       22 UNK        -0.5000 
    124 C124       -6.2965  -23.2829  -51.5960 C.3       23 UNK        -0.0398 
    125 S125       -5.5138  -21.8689  -50.7482 S.3       23 UNK        -0.2404 
    126 C126       -6.8201  -21.3595  -49.5879 C.3       23 UNK        -0.0205 
    127 H127       -3.5178  -11.9337  -42.0120 H         1 UNK         0.0600 
    128 H128       -2.2253  -12.7615  -42.8864 H         1 UNK         0.0600 
    129 H129       -3.1919  -13.6427  -41.7017 H         1 UNK         0.0600 
    130 H130       -2.8125  -13.1522  -44.9892 H         1 UNK         0.3000 
    131 H131       -5.3864  -13.0488  -46.0588 H         1 UNK         0.0600 
    132 H132       -5.9261  -15.2298  -45.1257 H         1 UNK         0.0800 
    133 H133       -4.3960  -15.9055  -45.5756 H         1 UNK         0.0800 
    134 H134       -3.7585  -16.8869  -47.5476 H         1 UNK         0.0800 
    135 H135       -4.5883  -16.9221  -49.0729 H         1 UNK         0.0800 
    136 H136       -5.8661  -18.8190  -49.7167 H         1 UNK         0.1150 
    137 H137       -6.5588  -22.0095  -46.9606 H         1 UNK         0.1150 
    138 H138       -4.7131  -18.3787  -45.6110 H         1 UNK         0.1150 
    139 H139       -4.7862  -20.2769  -44.1187 H         1 UNK         0.0800 
    140 H140       -6.5122  -20.5119  -44.2049 H         1 UNK         0.0800 
    141 H141       -3.3063  -23.8214  -44.2405 H         1 UNK         0.0800 
    142 H142       -3.1765  -22.1934  -43.6568 H         1 UNK         0.0800 
    143 H143       -3.1397  -21.4016  -46.1108 H         1 UNK         0.0600 
    144 H144       -1.0886  -21.1456  -45.4101 H         1 UNK         0.3000 
    145 H145        1.2853  -23.2466  -43.8563 H         1 UNK         0.0600 
    146 H146        2.7837  -21.6834  -45.1924 H         1 UNK         0.0600 
    147 H147        2.2421  -23.0955  -46.0767 H         1 UNK         0.0600 
    148 H148        1.4966  -21.5348  -46.3877 H         1 UNK         0.0600 
    149 H149        1.0124  -20.4121  -44.0357 H         1 UNK         0.3000 
    150 H150       -1.2929  -19.9776  -41.3711 H         1 UNK         0.0600 
    151 H151        0.7918  -20.4652  -40.0763 H         1 UNK         0.0600 
    152 H152        0.5273  -18.7370  -40.2435 H         1 UNK         0.0600 
    153 H153        1.7373  -19.5444  -41.2400 H         1 UNK         0.0600 
    154 H154        0.3560  -18.0884  -42.6920 H         1 UNK         0.3000 
    155 H155       -1.7490  -17.5419  -45.5447 H         1 UNK         0.0600 
    156 H156       -1.0488  -15.9064  -43.0472 H         1 UNK         0.0600 
    157 H157       -2.6466  -16.1185  -43.7427 H         1 UNK         0.0600 
    158 H158       -1.4144  -15.2177  -44.6220 H         1 UNK         0.0600 
    159 H159        0.7452  -16.3908  -44.8464 H         1 UNK         0.3000 
    160 H160        2.8503  -18.8548  -46.3871 H         1 UNK         0.0600 
    161 H161        3.6637  -16.8701  -47.5548 H         1 UNK         0.0600 
    162 H162        2.2888  -15.9103  -47.0250 H         1 UNK         0.0600 
    163 H163        2.0547  -17.2299  -48.1556 H         1 UNK         0.0600 
    164 H164        3.2759  -16.4099  -44.8866 H         1 UNK         0.3000 
    165 H165        3.7147  -17.9721  -41.7256 H         1 UNK         0.0600 
    166 H166        5.9329  -16.8727  -41.8714 H         1 UNK         0.0600 
    167 H167        5.9134  -18.3229  -42.8617 H         1 UNK         0.0600 
    168 H168        5.7869  -16.7422  -43.6245 H         1 UNK         0.0600 
    169 H169        4.0499  -15.2797  -42.6283 H         1 UNK         0.3000 
    170 H170        0.6666  -14.2354  -42.3274 H         1 UNK         0.0600 
    171 H171        1.4807  -14.2173  -39.9659 H         1 UNK         0.0600 
    172 H172        3.0607  -13.6571  -40.5008 H         1 UNK         0.0600 
    173 H173        1.6389  -12.6334  -40.7074 H         1 UNK         0.0600 
    174 H174        3.0562  -12.7830  -42.8301 H         1 UNK         0.3000 
    175 H175        3.3139  -11.8560  -44.8807 H         1 UNK         0.0600 
    176 H176        4.3259  -14.4479  -46.2019 H         1 UNK         0.0600 
    177 H177        5.0892  -12.8665  -46.3401 H         1 UNK         0.0600 
    178 H178        5.0340  -13.6798  -44.7846 H         1 UNK         0.0600 
    179 H179        1.8311  -13.3598  -46.9342 H         1 UNK         0.3000 
    180 H180        0.7608  -10.4496  -48.4145 H         1 UNK         0.0600 
    181 H181        2.7975  -12.1576  -49.9440 H         1 UNK         0.0600 
    182 H182        2.8691  -10.4097  -49.7585 H         1 UNK         0.0600 
    183 H183        1.5533  -11.1352  -50.6655 H         1 UNK         0.0600 
    184 H184        0.5747  -13.0847  -49.4317 H         1 UNK         0.3000 
    185 H185       -1.8051  -13.9089  -49.1267 H         1 UNK         0.0600 
    186 H186        0.2841  -15.2475  -48.8301 H         1 UNK         0.0600 
    187 H187       -0.0627  -15.4333  -47.1172 H         1 UNK         0.0600 
    188 H188       -1.1058  -16.1841  -48.3220 H         1 UNK         0.0600 
    189 H189       -2.2989  -14.8337  -46.4008 H         1 UNK         0.3000 
    190 H190       -4.8409  -23.7327  -46.3978 H         1 UNK         0.3000 
    191 H191       -4.6026  -24.0317  -49.1367 H         1 UNK         0.0600 
    192 H192       -6.7295  -24.2593  -47.8844 H         1 UNK         0.0600 
    193 H193       -6.4697  -25.6797  -48.8810 H         1 UNK         0.0600 
    194 H194       -6.1678  -25.7592  -47.1488 H         1 UNK         0.0600 
    195 H195       -3.1490  -26.0774  -46.7044 H         1 UNK         0.3000 
    196 H196       -2.6028  -28.3919  -48.2757 H         1 UNK         0.0600 
    197 H197       -0.9394  -28.8550  -46.4617 H         1 UNK         0.0600 
    198 H198       -2.4881  -28.3641  -45.7947 H         1 UNK         0.0600 
    199 H199       -1.1455  -27.2201  -45.8433 H         1 UNK         0.0600 
    200 H200       -1.0867  -25.2249  -48.1886 H         1 UNK         0.3000 
    201 H201        1.1002  -26.1275  -50.0353 H         1 UNK         0.0600 
    202 H202        1.8998  -25.3912  -47.7590 H         1 UNK         0.0600 
    203 H203        1.0829  -23.8471  -47.9874 H         1 UNK         0.0600 
    204 H204        2.4359  -24.2992  -49.0239 H         1 UNK         0.0600 
    205 H205       -1.8420  -24.8208  -50.1960 H         1 UNK         0.3000 
    206 H206       -2.9920  -23.2662  -51.2779 H         1 UNK         0.0600 
    207 H207       -2.0487  -24.3852  -53.2888 H         1 UNK         0.0600 
    208 H208       -2.3154  -22.6762  -53.5860 H         1 UNK         0.0600 
    209 H209       -0.6860  -23.2686  -53.2942 H         1 UNK         0.0600 
    210 H210       -1.6464  -22.3525  -49.1162 H         1 UNK         0.3000 
    211 H211       -0.8987  -20.6708  -47.9416 H         1 UNK         0.0600 
    212 H212       -2.9313  -19.5214  -48.9272 H         1 UNK         0.0600 
    213 H213       -1.8801  -18.7577  -50.1184 H         1 UNK         0.0600 
    214 H214       -1.6650  -18.4224  -48.4035 H         1 UNK         0.0600 
    215 H215        1.0241  -21.9732  -49.2337 H         1 UNK         0.3000 
    216 H216        3.1139  -22.0474  -49.9573 H         1 UNK         0.0600 
    217 H217        4.7112  -20.2787  -49.3372 H         1 UNK         0.0600 
    218 H218        3.6050  -20.5626  -48.0030 H         1 UNK         0.0600 
    219 H219        3.4063  -19.1429  -49.0322 H         1 UNK         0.0600 
    220 H220        1.2378  -21.7507  -51.8122 H         1 UNK         0.3000 
    221 H221        0.7134  -21.3745  -53.8965 H         1 UNK         0.0600 
    222 H222        3.6172  -20.5383  -54.3859 H         1 UNK         0.0600 
    223 H223        3.0345  -22.2027  -54.3510 H         1 UNK         0.0600 
    224 H224        2.4690  -21.0990  -55.5921 H         1 UNK         0.0600 
    225 H225        0.7787  -18.9317  -51.9141 H         1 UNK         0.3000 
    226 H226        0.7722  -16.6629  -53.7603 H         1 UNK         0.0600 
    227 H227       -0.1795  -16.7802  -50.8585 H         1 UNK         0.0600 
    228 H228        1.4967  -16.4957  -51.3320 H         1 UNK         0.0600 
    229 H229        0.2414  -15.3509  -51.7855 H         1 UNK         0.0600 
    230 H230       -1.5479  -19.0696  -52.7471 H         1 UNK         0.3000 
    231 H231       -3.8384  -17.4563  -53.7960 H         1 UNK         0.0600 
    232 H232       -3.9775  -17.8085  -51.3201 H         1 UNK         0.0600 
    233 H233       -3.7950  -19.5446  -51.5472 H         1 UNK         0.0600 
    234 H234       -5.2265  -18.7204  -52.1496 H         1 UNK         0.0600 
    235 H235       -5.6499  -19.0017  -54.4104 H         1 UNK         0.3000 
    236 H236       -4.6727  -21.4065  -55.8987 H         1 UNK         0.0600 
    237 H237       -5.1492  -19.5541  -57.4898 H         1 UNK         0.0600 
    238 H238       -6.3648  -20.8147  -57.6302 H         1 UNK         0.0600 
    239 H239       -6.7452  -19.3197  -56.7810 H         1 UNK         0.0600 
    240 H240       -5.1542  -22.1647  -53.6060 H         1 UNK         0.3000 
    241 H241       -7.8298  -22.2188  -52.6443 H         1 UNK         0.0600 
    242 H242       -6.5318  -24.2329  -55.1762 H         1 UNK         0.3800 
    243 H243       -7.7619  -25.4632  -55.0651 H         1 UNK         0.3800 
    244 H244       -6.9855  -23.7723  -50.9056 H         1 UNK         0.0800 
    245 H245       -5.5148  -24.0164  -51.8011 H         1 UNK         0.0800 
    246 H246       -7.3206  -22.2384  -49.1807 H         1 UNK         0.0800 
    247 H247       -7.5798  -20.7913  -50.1264 H         1 UNK         0.0800 
@<TRIPOS>BOND
     1    1    2 1    
     2    1  127 1    
     3    1  128 1    
     4    1  129 1    
     5    2    3 2    
     6    2    4 am   BACKBONE|DICT|INTERRES
     7    4    5 1    
     8    4  130 1    
     9    5    6 1    
    10    5   65 1    
    11    5  131 1    
    12    6    7 1    
    13    6  132 1    
    14    6  133 1    
    15    7    8 1    
    16    8    9 1    
    17    8  134 1    
    18    8  135 1    
    19    9   10 ar   
    20    9   14 ar   
    21   10   11 ar   
    22   10  136 1    
    23   11   12 ar   
    24   11  126 1    
    25   12   13 ar   
    26   12  137 1    
    27   13   14 ar   
    28   13   15 1    
    29   14  138 1    
    30   15   16 1    
    31   15  139 1    
    32   15  140 1    
    33   16   17 1    
    34   17   18 1    
    35   17  141 1    
    36   17  142 1    
    37   18   19 1    
    38   18   67 1    
    39   18  143 1    
    40   19   20 am   BACKBONE|DICT|INTERRES
    41   19  144 1    
    42   20   21 2    
    43   20   22 1    
    44   22   23 1    
    45   22   24 1    
    46   22  145 1    
    47   23  146 1    
    48   23  147 1    
    49   23  148 1    
    50   24   25 am   BACKBONE|DICT|INTERRES
    51   24  149 1    
    52   25   26 2    
    53   25   27 1    
    54   27   28 1    
    55   27   29 1    
    56   27  150 1    
    57   28  151 1    
    58   28  152 1    
    59   28  153 1    
    60   29   30 am   BACKBONE|DICT|INTERRES
    61   29  154 1    
    62   30   31 2    
    63   30   32 1    
    64   32   33 1    
    65   32   34 1    
    66   32  155 1    
    67   33  156 1    
    68   33  157 1    
    69   33  158 1    
    70   34   35 am   BACKBONE|DICT|INTERRES
    71   34  159 1    
    72   35   36 2    
    73   35   37 1    
    74   37   38 1    
    75   37   39 1    
    76   37  160 1    
    77   38  161 1    
    78   38  162 1    
    79   38  163 1    
    80   39   40 am   BACKBONE|DICT|INTERRES
    81   39  164 1    
    82   40   41 2    
    83   40   42 1    
    84   42   43 1    
    85   42   44 1    
    86   42  165 1    
    87   43  166 1    
    88   43  167 1    
    89   43  168 1    
    90   44   45 am   BACKBONE|DICT|INTERRES
    91   44  169 1    
    92   45   46 2    
    93   45   47 1    
    94   47   48 1    
    95   47   49 1    
    96   47  170 1    
    97   48  171 1    
    98   48  172 1    
    99   48  173 1    
   100   49   50 am   BACKBONE|DICT|INTERRES
   101   49  174 1    
   102   50   51 2    
   103   50   52 1    
   104   52   53 1    
   105   52   54 1    
   106   52  175 1    
   107   53  176 1    
   108   53  177 1    
   109   53  178 1    
   110   54   55 am   BACKBONE|DICT|INTERRES
   111   54  179 1    
   112   55   56 2    
   113   55   57 1    
   114   57   58 1    
   115   57   59 1    
   116   57  180 1    
   117   58  181 1    
   118   58  182 1    
   119   58  183 1    
   120   59   60 am   BACKBONE|DICT|INTERRES
   121   59  184 1    
   122   60   61 2    
   123   60   62 1    
   124   62   63 1    
   125   62   64 1    
   126   62  185 1    
   127   63  186 1    
   128   63  187 1    
   129   63  188 1    
   130   64   65 am   BACKBONE|DICT|INTERRES
   131   64  189 1    
   132   65   66 2    
   133   67   68 2    
   134   67   69 am   BACKBONE|DICT|INTERRES
   135   69   70 1    
   136   69  190 1    
   137   70   71 1    
   138   70   72 1    
   139   70  191 1    
   140   71  192 1    
   141   71  193 1    
   142   71  194 1    
   143   72   73 2    
   144   72   74 am   BACKBONE|DICT|INTERRES
   145   74   75 1    
   146   74  195 1    
   147   75   76 1    
   148   75   77 1    
   149   75  196 1    
   150   76  197 1    
   151   76  198 1    
   152   76  199 1    
   153   77   78 2    
   154   77   79 am   BACKBONE|DICT|INTERRES
   155   79   80 1    
   156   79  200 1    
   157   80   81 1    
   158   80   82 1    
   159   80  201 1    
   160   81  202 1    
   161   81  203 1    
   162   81  204 1    
   163   82   83 2    
   164   82   84 am   BACKBONE|DICT|INTERRES
   165   84   85 1    
   166   84  205 1    
   167   85   86 1    
   168   85   87 1    
   169   85  206 1    
   170   86  207 1    
   171   86  208 1    
   172   86  209 1    
   173   87   88 2    
   174   87   89 am   BACKBONE|DICT|INTERRES
   175   89   90 1    
   176   89  210 1    
   177   90   91 1    
   178   90   92 1    
   179   90  211 1    
   180   91  212 1    
   181   91  213 1    
   182   91  214 1    
   183   92   93 2    
   184   92   94 am   BACKBONE|DICT|INTERRES
   185   94   95 1    
   186   94  215 1    
   187   95   96 1    
   188   95   97 1    
   189   95  216 1    
   190   96  217 1    
   191   96  218 1    
   192   96  219 1    
   193   97   98 2    
   194   97   99 am   BACKBONE|DICT|INTERRES
   195   99  100 1    
   196   99  220 1    
   197  100  101 1    
   198  100  102 1    
   199  100  221 1    
   200  101  222 1    
   201  101  223 1    
   202  101  224 1    
   203  102  103 2    
   204  102  104 am   BACKBONE|DICT|INTERRES
   205  104  105 1    
   206  104  225 1    
   207  105  106 1    
   208  105  107 1    
   209  105  226 1    
   210  106  227 1    
   211  106  228 1    
   212  106  229 1    
   213  107  108 2    
   214  107  109 am   BACKBONE|DICT|INTERRES
   215  109  110 1    
   216  109  230 1    
   217  110  111 1    
   218  110  112 1    
   219  110  231 1    
   220  111  232 1    
   221  111  233 1    
   222  111  234 1    
   223  112  113 2    
   224  112  114 am   BACKBONE|DICT|INTERRES
   225  114  115 1    
   226  114  235 1    
   227  115  116 1    
   228  115  117 1    
   229  115  236 1    
   230  116  237 1    
   231  116  238 1    
   232  116  239 1    
   233  117  118 2    
   234  117  119 am   BACKBONE|DICT|INTERRES
   235  119  120 1    
   236  119  240 1    
   237  120  121 1    
   238  120  124 1    
   239  120  241 1    
   240  121  122 am   BACKBONE|DICT|INTERRES
   241  121  123 2    
   242  122  242 1    
   243  122  243 1    
   244  124  125 1    
   245  124  244 1    
   246  124  245 1    
   247  125  126 1    
   248  126  246 1    
   249  126  247 1    
@<TRIPOS>SUBSTRUCTURE
     1 UNK         1 GROUP             0       ****    0 ROOT    
