@<TRIPOS>MOLECULE
3R540
247   249    1
SMALL
USER_CHARGES


@<TRIPOS>ATOM
      1 CA          0.6696  -10.9760  -47.9773 C.3       0 UNK        -0.1800 
      2 C           0.7175  -12.2968  -47.2224 C.2       0 UNK         0.5000 
      3 O           1.5022  -12.4350  -46.2854 O.2       0 UNK        -0.5000 
      4 N          -0.1101  -13.2611  -47.6401 N.am      1 UNK        -0.5000 
      5 CA         -0.2858  -14.5711  -47.0125 C.3       1 UNK         0.1400 
      6 C6         -0.5471  -15.7077  -48.0412 C.3       23 UNK        -0.0398 
      7 S7         -1.6811  -15.2957  -49.4204 S.3       23 UNK        -0.2404 
      8 C8         -0.5338  -14.6957  -50.7091 C.3       23 UNK        -0.0205 
      9 C9          0.2755  -15.8165  -51.3454 C.ar      23 UNK        -0.0193 
     10 C10        -0.2270  -16.5082  -52.4511 C.ar      23 UNK        -0.1150 
     11 C11         0.5176  -17.5309  -53.0471 C.ar      23 UNK        -0.0193 
     12 C12         1.7635  -17.8746  -52.5135 C.ar      23 UNK        -0.1150 
     13 C13         2.2771  -17.1893  -51.4088 C.ar      23 UNK        -0.0193 
     14 C14         1.5376  -16.1478  -50.8444 C.ar      23 UNK        -0.1150 
     15 C15         3.6377  -17.5575  -50.8353 C.3       23 UNK        -0.0205 
     16 S16         3.6556  -19.2121  -50.0736 S.3       23 UNK        -0.2404 
     17 C17         2.5929  -19.0022  -48.6017 C.3       23 UNK        -0.0398 
     18 CA          1.7306  -20.2652  -48.3346 C.3       11 UNK         0.1400 
     19 N           1.5985  -20.5490  -46.9028 N.am      11 UNK        -0.5000 
     20 C           1.3087  -21.7566  -46.3945 C.2       10 UNK         0.5000 
     21 O           1.1987  -22.7733  -47.0793 O.2       10 UNK        -0.5000 
     22 CA          1.0710  -21.8535  -44.8731 C.3       10 UNK         0.1400 
     23 CB          2.3218  -22.3956  -44.1659 C.3       10 UNK        -0.1800 
     24 N           0.6698  -20.5897  -44.2501 N.am      10 UNK        -0.5000 
     25 C          -0.4531  -19.9173  -44.5396 C.2       9 UNK         0.5000 
     26 O          -1.2909  -20.3140  -45.3477 O.2       9 UNK        -0.5000 
     27 CA         -0.6359  -18.5440  -43.8749 C.3       9 UNK         0.1400 
     28 CB         -1.2255  -18.7085  -42.4672 C.3       9 UNK        -0.1800 
     29 N           0.6123  -17.7853  -43.7963 N.am      9 UNK        -0.5000 
     30 C           1.3492  -17.3878  -44.8433 C.2       8 UNK         0.5000 
     31 O           1.0452  -17.6026  -46.0165 O.2       8 UNK        -0.5000 
     32 CA          2.6844  -16.6964  -44.5190 C.3       8 UNK         0.1400 
     33 CB          2.4776  -15.2505  -44.0427 C.3       8 UNK        -0.1800 
     34 N           3.4241  -17.4380  -43.5008 N.am      8 UNK        -0.5000 
     35 C           4.0278  -18.6160  -43.7082 C.2       7 UNK         0.5000 
     36 O           4.0730  -19.1785  -44.8022 O.2       7 UNK        -0.5000 
     37 CA          4.6717  -19.2846  -42.4788 C.3       7 UNK         0.1400 
     38 CB          6.1393  -18.8538  -42.3393 C.3       7 UNK        -0.1800 
     39 N           3.9623  -18.9861  -41.2319 N.am      7 UNK        -0.5000 
     40 C           2.7435  -19.4526  -40.9261 C.2       6 UNK         0.5000 
     41 O           2.0906  -20.1930  -41.6612 O.2       6 UNK        -0.5000 
     42 CA          2.1322  -18.9564  -39.6014 C.3       6 UNK         0.1400 
     43 CB          2.7186  -19.7249  -38.4077 C.3       6 UNK        -0.1800 
     44 N           2.3063  -17.5139  -39.3923 N.am      6 UNK        -0.5000 
     45 C           1.7956  -16.5767  -40.2002 C.2       5 UNK         0.5000 
     46 O           1.1446  -16.8394  -41.2147 O.2       5 UNK        -0.5000 
     47 CA          2.0801  -15.1091  -39.8537 C.3       5 UNK         0.1400 
     48 CB          3.5370  -14.7412  -40.1947 C.3       5 UNK        -0.1800 
     49 N           1.1506  -14.3034  -40.6364 N.am      5 UNK        -0.5000 
     50 C           0.8805  -13.0020  -40.5097 C.2       4 UNK         0.5000 
     51 O           1.4252  -12.2618  -39.6898 O.2       4 UNK        -0.5000 
     52 CA         -0.1968  -12.4353  -41.4573 C.3       4 UNK         0.1400 
     53 CB          0.4543  -11.8551  -42.7224 C.3       4 UNK        -0.1800 
     54 N          -1.2142  -13.4184  -41.8509 N.am      4 UNK        -0.5000 
     55 C          -2.1222  -13.9487  -41.0145 C.2       3 UNK         0.5000 
     56 O          -2.1801  -13.6687  -39.8161 O.2       3 UNK        -0.5000 
     57 CA         -3.1467  -14.9265  -41.6220 C.3       3 UNK         0.1400 
     58 CB         -4.4344  -15.0557  -40.7871 C.3       3 UNK        -0.1800 
     59 N          -3.4840  -14.5130  -42.9797 N.am      3 UNK        -0.5000 
     60 C          -3.6351  -15.3249  -44.0310 C.2       2 UNK         0.5000 
     61 O          -3.6078  -16.5540  -43.9639 O.2       2 UNK        -0.5000 
     62 CA         -3.8107  -14.6467  -45.4069 C.3       2 UNK         0.1400 
     63 CB         -4.2445  -13.1658  -45.3231 C.3       2 UNK        -0.1800 
     64 N          -2.6096  -14.7585  -46.2413 N.am      2 UNK        -0.5000 
     65 C          -1.3476  -14.4501  -45.9032 C.2       1 UNK         0.5000 
     66 O          -1.0074  -14.0542  -44.7859 O.2       1 UNK        -0.5000 
     67 C           0.3562  -20.2052  -49.0415 C.2       11 UNK         0.5000 
     68 O           0.2873  -20.4827  -50.2382 O.2       11 UNK        -0.5000 
     69 N          -0.7140  -19.8884  -48.2938 N.am      12 UNK        -0.5000 
     70 CA         -2.0968  -19.9972  -48.7618 C.3       12 UNK         0.1400 
     71 CB         -2.9747  -18.9292  -48.0922 C.3       12 UNK        -0.1800 
     72 C          -2.6683  -21.4033  -48.5176 C.2       12 UNK         0.5000 
     73 O          -3.3507  -21.9365  -49.3938 O.2       12 UNK        -0.5000 
     74 N          -2.3412  -21.9808  -47.3535 N.am      13 UNK        -0.5000 
     75 CA         -2.7124  -23.3100  -46.8624 C.3       13 UNK         0.1400 
     76 CB         -2.1877  -24.4116  -47.8083 C.3       13 UNK        -0.1800 
     77 C          -4.2192  -23.4632  -46.5661 C.2       13 UNK         0.5000 
     78 O          -4.9974  -22.5155  -46.7110 O.2       13 UNK        -0.5000 
     79 N          -4.5994  -24.6672  -46.1161 N.am      14 UNK        -0.5000 
     80 CA         -5.9734  -25.0572  -45.7985 C.3       14 UNK         0.1400 
     81 CB         -5.9782  -26.4934  -45.2539 C.3       14 UNK        -0.1800 
     82 C          -6.8950  -24.9393  -47.0243 C.2       14 UNK         0.5000 
     83 O          -6.5156  -25.3722  -48.1148 O.2       14 UNK        -0.5000 
     84 N          -8.0652  -24.3165  -46.8253 N.am      15 UNK        -0.5000 
     85 CA         -9.0896  -24.0164  -47.8364 C.3       15 UNK         0.1400 
     86 CB         -9.7490  -25.3202  -48.3336 C.3       15 UNK        -0.1800 
     87 C          -8.5892  -23.1317  -49.0033 C.2       15 UNK         0.5000 
     88 O          -9.2110  -23.1246  -50.0668 O.2       15 UNK        -0.5000 
     89 N          -7.4728  -22.4151  -48.7882 N.am      16 UNK        -0.5000 
     90 CA         -6.7303  -21.6093  -49.7625 C.3       16 UNK         0.1400 
     91 CB         -7.5680  -20.3971  -50.2233 C.3       16 UNK        -0.1800 
     92 C          -6.1735  -22.4395  -50.9424 C.2       16 UNK         0.5000 
     93 O          -6.0096  -21.9044  -52.0394 O.2       16 UNK        -0.5000 
     94 N          -5.8944  -23.7319  -50.7112 N.am      17 UNK        -0.5000 
     95 CA         -5.4732  -24.6878  -51.7372 C.3       17 UNK         0.1400 
     96 CB         -5.4217  -26.0973  -51.1301 C.3       17 UNK        -0.1800 
     97 C          -4.1332  -24.3421  -52.4111 C.2       17 UNK         0.5000 
     98 O          -4.0177  -24.4774  -53.6301 O.2       17 UNK        -0.5000 
     99 N          -3.1526  -23.8824  -51.6222 N.am      18 UNK        -0.5000 
    100 CA        -1.8476  -23.4622  -52.1329 C.3       18 UNK         0.1400 
    101 CB        -0.7788  -23.5732  -51.0374 C.3       18 UNK        -0.1800 
    102 C         -1.9022  -22.0508  -52.7401 C.2       18 UNK         0.5000 
    103 O         -1.1876  -21.7975  -53.7084 O.2       18 UNK        -0.5000 
    104 N         -2.7867  -21.1870  -52.2163 N.am      19 UNK        -0.5000 
    105 CA        -3.0946  -19.8674  -52.7751 C.3       19 UNK         0.1400 
    106 CB        -3.9853  -19.0566  -51.8161 C.3       19 UNK        -0.1800 
    107 C         -3.7259  -19.9525  -54.1766 C.2       19 UNK         0.5000 
    108 O         -3.3564  -19.1784  -55.0593 O.2       19 UNK        -0.5000 
    109 N         -4.6517  -20.9035  -54.3564 N.am      20 UNK        -0.5000 
    110 CA        -5.3083  -21.1962  -55.6293 C.3       20 UNK         0.1400 
    111 CB        -6.4767  -22.1632  -55.3841 C.3       20 UNK        -0.1800 
    112 C         -4.3434  -21.7656  -56.6864 C.2       20 UNK         0.5000 
    113 O         -4.4770  -21.4354  -57.8654 O.2       20 UNK        -0.5000 
    114 N         -3.3960  -22.6062  -56.2489 N.am      21 UNK        -0.5000 
    115 CA        -2.3709  -23.2101  -57.0970 C.3       21 UNK         0.1400 
    116 CB        -1.7976  -24.4539  -56.3967 C.3       21 UNK        -0.1800 
    117 C         -1.2636  -22.2043  -57.4621 C.2       21 UNK         0.5000 
    118 O         -1.0829  -21.8938  -58.6399 O.2       21 UNK        -0.5000 
    119 N         -0.5469  -21.7218  -56.4391 N.am      22 UNK        -0.5000 
    120 CA         0.5785  -20.7756  -56.5106 C.3       22 UNK         0.1400 
    121 C          1.8064  -21.2372  -57.3576 C.2       22 UNK         0.5000 
    122 N          2.0033  -22.5327  -57.5706 N.am      22 UNK        -0.7600 
    123 O          2.6087  -20.4236  -57.8078 O.2       22 UNK        -0.5000 
    124 C124        0.1046  -19.3230  -56.8105 C.3       23 UNK        -0.0398 
    125 S125        0.9418  -18.0933  -55.7499 S.3       23 UNK        -0.2404 
    126 C126       -0.0444  -18.2962  -54.2344 C.3       23 UNK        -0.0205 
    127 H127        1.6486  -10.7498  -48.3998 H         1 UNK         0.0600 
    128 H128        0.3942  -10.1676  -47.3001 H         1 UNK         0.0600 
    129 H129       -0.0547  -10.9993  -48.7920 H         1 UNK         0.0600 
    130 H130       -0.7462  -13.0681  -48.4003 H         1 UNK         0.3000 
    131 H131        0.6419  -14.8396  -46.5090 H         1 UNK         0.0600 
    132 H132       -0.9270  -16.5972  -47.5366 H         1 UNK         0.0800 
    133 H133        0.4061  -16.0311  -48.4495 H         1 UNK         0.0800 
    134 H134        0.1357  -13.9409  -50.2957 H         1 UNK         0.0800 
    135 H135       -1.1154  -14.1871  -51.4795 H         1 UNK         0.0800 
    136 H136       -1.2003  -16.2498  -52.8445 H         1 UNK         0.1150 
    137 H137        2.3330  -18.6793  -52.9571 H         1 UNK         0.1150 
    138 H138        1.9447  -15.5980  -50.0078 H         1 UNK         0.1150 
    139 H139        4.3753  -17.5343  -51.6386 H         1 UNK         0.0800 
    140 H140        3.9661  -16.8219  -50.0993 H         1 UNK         0.0800 
    141 H141        1.9772  -18.1057  -48.6890 H         1 UNK         0.0800 
    142 H142        3.2630  -18.8151  -47.7608 H         1 UNK         0.0800 
    143 H143        2.2536  -21.1228  -48.7643 H         1 UNK         0.0600 
    144 H144        1.6655  -19.7554  -46.2783 H         1 UNK         0.3000 
    145 H145        0.2592  -22.5673  -44.7194 H         1 UNK         0.0600 
    146 H146        2.1365  -22.5571  -43.1040 H         1 UNK         0.0600 
    147 H147        2.6277  -23.3528  -44.5901 H         1 UNK         0.0600 
    148 H148        3.1646  -21.7110  -44.2601 H         1 UNK         0.0600 
    149 H149        1.2807  -20.2276  -43.5248 H         1 UNK         0.3000 
    150 H150       -1.3364  -17.9673  -44.4819 H         1 UNK         0.0600 
    151 H151       -2.1957  -19.2051  -42.5063 H         1 UNK         0.0600 
    152 H152       -1.3730  -17.7426  -41.9880 H         1 UNK         0.0600 
    153 H153       -0.5746  -19.3006  -41.8230 H         1 UNK         0.0600 
    154 H154        0.9239  -17.5419  -42.8582 H         1 UNK         0.3000 
    155 H155        3.2851  -16.6707  -45.4308 H         1 UNK         0.0600 
    156 H156        1.7852  -15.1896  -43.2051 H         1 UNK         0.0600 
    157 H157        2.0735  -14.6284  -44.8377 H         1 UNK         0.0600 
    158 H158        3.4190  -14.7953  -43.7358 H         1 UNK         0.0600 
    159 H159        3.4033  -17.0693  -42.5628 H         1 UNK         0.3000 
    160 H160        4.6461  -20.3648  -42.6370 H         1 UNK         0.0600 
    161 H161        6.2301  -17.7819  -42.1591 H         1 UNK         0.0600 
    162 H162        6.7010  -19.0832  -43.2459 H         1 UNK         0.0600 
    163 H163        6.6270  -19.3759  -41.5159 H         1 UNK         0.0600 
    164 H164        4.4279  -18.3790  -40.5735 H         1 UNK         0.3000 
    165 H165        1.0598  -19.1595  -39.6404 H         1 UNK         0.0600 
    166 H166        2.2205  -19.4483  -37.4783 H         1 UNK         0.0600 
    167 H167        2.5905  -20.8007  -38.5354 H         1 UNK         0.0600 
    168 H168        3.7854  -19.5332  -38.2868 H         1 UNK         0.0600 
    169 H169        2.8355  -17.2329  -38.5793 H         1 UNK         0.3000 
    170 H170        1.8872  -14.9509  -38.7911 H         1 UNK         0.0600 
    171 H171        4.2409  -15.3581  -39.6352 H         1 UNK         0.0600 
    172 H172        3.7496  -14.8790  -41.2550 H         1 UNK         0.0600 
    173 H173        3.7555  -13.7032  -39.9448 H         1 UNK         0.0600 
    174 H174        0.6279  -14.8475  -41.3120 H         1 UNK         0.3000 
    175 H175       -0.7009  -11.6217  -40.9316 H         1 UNK         0.0600 
    176 H176        0.9668  -12.6250  -43.3007 H         1 UNK         0.0600 
    177 H177       -0.2878  -11.3916  -43.3726 H         1 UNK         0.0600 
    178 H178        1.1897  -11.0902  -42.4699 H         1 UNK         0.0600 
    179 H179       -1.2131  -13.7002  -42.8282 H         1 UNK         0.3000 
    180 H180       -2.6565  -15.8998  -41.6451 H         1 UNK         0.0600 
    181 H181       -5.1249  -15.7689  -41.2374 H         1 UNK         0.0600 
    182 H182       -4.9509  -14.0994  -40.6979 H         1 UNK         0.0600 
    183 H183       -4.2168  -15.4106  -39.7791 H         1 UNK         0.0600 
    184 H184       -3.4949  -13.5156  -43.1420 H         1 UNK         0.3000 
    185 H185       -4.6024  -15.1954  -45.9192 H         1 UNK         0.0600 
    186 H186       -5.1451  -13.0508  -44.7183 H         1 UNK         0.0600 
    187 H187       -3.4679  -12.5302  -44.8958 H         1 UNK         0.0600 
    188 H188       -4.4749  -12.7749  -46.3143 H         1 UNK         0.0600 
    189 H189       -2.7715  -15.0800  -47.1865 H         1 UNK         0.3000 
    190 H190       -0.5846  -19.7148  -47.3054 H         1 UNK         0.3000 
    191 H191       -2.1153  -19.8225  -49.8360 H         1 UNK         0.0600 
    192 H192       -4.0194  -19.0458  -48.3838 H         1 UNK         0.0600 
    193 H193       -2.6703  -17.9290  -48.3929 H         1 UNK         0.0600 
    194 H194       -2.9306  -18.9839  -47.0043 H         1 UNK         0.0600 
    195 H195       -1.8591  -21.4000  -46.6712 H         1 UNK         0.3000 
    196 H196       -2.1975  -23.4183  -45.9068 H         1 UNK         0.0600 
    197 H197       -2.7520  -24.4514  -48.7398 H         1 UNK         0.0600 
    198 H198       -1.1385  -24.2486  -48.0550 H         1 UNK         0.0600 
    199 H199       -2.2537  -25.3975  -47.3481 H         1 UNK         0.0600 
    200 H200       -3.9061  -25.3963  -46.0407 H         1 UNK         0.3000 
    201 H201       -6.3345  -24.3886  -45.0142 H         1 UNK         0.0600 
    202 H202       -5.5984  -27.2036  -45.9897 H         1 UNK         0.0600 
    203 H203       -6.9888  -26.8063  -44.9877 H         1 UNK         0.0600 
    204 H204       -5.3656  -26.5786  -44.3563 H         1 UNK         0.0600 
    205 H205       -8.2717  -23.9781  -45.8954 H         1 UNK         0.3000 
    206 H206       -9.8573  -23.4323  -47.3272 H         1 UNK         0.0600 
    207 H207      -10.1000  -25.9280  -47.4997 H         1 UNK         0.0600 
    208 H208      -10.6136  -25.1084  -48.9636 H         1 UNK         0.0600 
    209 H209       -9.0574  -25.9246  -48.9216 H         1 UNK         0.0600 
    210 H210       -7.0204  -22.5088  -47.8871 H         1 UNK         0.3000 
    211 H211       -5.8639  -21.2193  -49.2285 H         1 UNK         0.0600 
    212 H212       -6.9743  -19.7106  -50.8263 H         1 UNK         0.0600 
    213 H213       -7.9452  -19.8321  -49.3710 H         1 UNK         0.0600 
    214 H214       -8.4216  -20.7003  -50.8298 H         1 UNK         0.0600 
    215 H215       -6.0614  -24.1098  -49.7852 H         1 UNK         0.3000 
    216 H216       -6.2377  -24.6852  -52.5168 H         1 UNK         0.0600 
    217 H217       -4.7151  -26.1518  -50.3007 H         1 UNK         0.0600 
    218 H218       -5.1163  -26.8346  -51.8736 H         1 UNK         0.0600 
    219 H219       -6.3999  -26.3999  -50.7557 H         1 UNK         0.0600 
    220 H220       -3.3489  -23.6888  -50.6475 H         1 UNK         0.3000 
    221 H221       -1.5523  -24.1461  -52.9315 H         1 UNK         0.0600 
    222 H222       -0.7075  -24.5921  -50.6572 H         1 UNK         0.0600 
    223 H223       -0.9838  -22.9150  -50.1967 H         1 UNK         0.0600 
    224 H224        0.2031  -23.3004  -51.4260 H         1 UNK         0.0600 
    225 H225       -3.3185  -21.4847  -51.4067 H         1 UNK         0.3000 
    226 H226       -2.1554  -19.3268  -52.8722 H         1 UNK         0.0600 
    227 H227       -4.6843  -19.6900  -51.2738 H         1 UNK         0.0600 
    228 H228       -3.3870  -18.5145  -51.0859 H         1 UNK         0.0600 
    229 H229       -4.5695  -18.3035  -52.3472 H         1 UNK         0.0600 
    230 H230       -4.9638  -21.4373  -53.5487 H         1 UNK         0.3000 
    231 H231       -5.7160  -20.2616  -56.0201 H         1 UNK         0.0600 
    232 H232       -6.1346  -23.1074  -54.9585 H         1 UNK         0.0600 
    233 H233       -6.9993  -22.3904  -56.3141 H         1 UNK         0.0600 
    234 H234       -7.2059  -21.7333  -54.6971 H         1 UNK         0.0600 
    235 H235       -3.3781  -22.8445  -55.2664 H         1 UNK         0.3000 
    236 H236       -2.8397  -23.5415  -58.0262 H         1 UNK         0.0600 
    237 H237       -2.5751  -25.1986  -56.2248 H         1 UNK         0.0600 
    238 H238       -1.0257  -24.9251  -57.0063 H         1 UNK         0.0600 
    239 H239       -1.3540  -24.2123  -55.4305 H         1 UNK         0.0600 
    240 H240       -0.8103  -21.9833  -55.4914 H         1 UNK         0.3000 
    241 H241        0.9677  -20.7945  -55.4926 H         1 UNK         0.0600 
    242 H242        2.8001  -22.8310  -58.1113 H         1 UNK         0.3800 
    243 H243        1.3632  -23.2170  -57.2011 H         1 UNK         0.3800 
    244 H244       -0.9696  -19.2244  -56.6444 H         1 UNK         0.0800 
    245 H245        0.2571  -19.0626  -57.8590 H         1 UNK         0.0800 
    246 H246       -1.0639  -17.9742  -54.4476 H         1 UNK         0.0800 
    247 H247       -0.0934  -19.3523  -53.9696 H         1 UNK         0.0800 
@<TRIPOS>BOND
     1    1    2 1    
     2    1  127 1    
     3    1  128 1    
     4    1  129 1    
     5    2    3 2    
     6    2    4 am   BACKBONE|DICT|INTERRES
     7    4    5 1    
     8    4  130 1    
     9    5    6 1    
    10    5   65 1    
    11    5  131 1    
    12    6    7 1    
    13    6  132 1    
    14    6  133 1    
    15    7    8 1    
    16    8    9 1    
    17    8  134 1    
    18    8  135 1    
    19    9   10 ar   
    20    9   14 ar   
    21   10   11 ar   
    22   10  136 1    
    23   11   12 ar   
    24   11  126 1    
    25   12   13 ar   
    26   12  137 1    
    27   13   14 ar   
    28   13   15 1    
    29   14  138 1    
    30   15   16 1    
    31   15  139 1    
    32   15  140 1    
    33   16   17 1    
    34   17   18 1    
    35   17  141 1    
    36   17  142 1    
    37   18   19 1    
    38   18   67 1    
    39   18  143 1    
    40   19   20 am   BACKBONE|DICT|INTERRES
    41   19  144 1    
    42   20   21 2    
    43   20   22 1    
    44   22   23 1    
    45   22   24 1    
    46   22  145 1    
    47   23  146 1    
    48   23  147 1    
    49   23  148 1    
    50   24   25 am   BACKBONE|DICT|INTERRES
    51   24  149 1    
    52   25   26 2    
    53   25   27 1    
    54   27   28 1    
    55   27   29 1    
    56   27  150 1    
    57   28  151 1    
    58   28  152 1    
    59   28  153 1    
    60   29   30 am   BACKBONE|DICT|INTERRES
    61   29  154 1    
    62   30   31 2    
    63   30   32 1    
    64   32   33 1    
    65   32   34 1    
    66   32  155 1    
    67   33  156 1    
    68   33  157 1    
    69   33  158 1    
    70   34   35 am   BACKBONE|DICT|INTERRES
    71   34  159 1    
    72   35   36 2    
    73   35   37 1    
    74   37   38 1    
    75   37   39 1    
    76   37  160 1    
    77   38  161 1    
    78   38  162 1    
    79   38  163 1    
    80   39   40 am   BACKBONE|DICT|INTERRES
    81   39  164 1    
    82   40   41 2    
    83   40   42 1    
    84   42   43 1    
    85   42   44 1    
    86   42  165 1    
    87   43  166 1    
    88   43  167 1    
    89   43  168 1    
    90   44   45 am   BACKBONE|DICT|INTERRES
    91   44  169 1    
    92   45   46 2    
    93   45   47 1    
    94   47   48 1    
    95   47   49 1    
    96   47  170 1    
    97   48  171 1    
    98   48  172 1    
    99   48  173 1    
   100   49   50 am   BACKBONE|DICT|INTERRES
   101   49  174 1    
   102   50   51 2    
   103   50   52 1    
   104   52   53 1    
   105   52   54 1    
   106   52  175 1    
   107   53  176 1    
   108   53  177 1    
   109   53  178 1    
   110   54   55 am   BACKBONE|DICT|INTERRES
   111   54  179 1    
   112   55   56 2    
   113   55   57 1    
   114   57   58 1    
   115   57   59 1    
   116   57  180 1    
   117   58  181 1    
   118   58  182 1    
   119   58  183 1    
   120   59   60 am   BACKBONE|DICT|INTERRES
   121   59  184 1    
   122   60   61 2    
   123   60   62 1    
   124   62   63 1    
   125   62   64 1    
   126   62  185 1    
   127   63  186 1    
   128   63  187 1    
   129   63  188 1    
   130   64   65 am   BACKBONE|DICT|INTERRES
   131   64  189 1    
   132   65   66 2    
   133   67   68 2    
   134   67   69 am   BACKBONE|DICT|INTERRES
   135   69   70 1    
   136   69  190 1    
   137   70   71 1    
   138   70   72 1    
   139   70  191 1    
   140   71  192 1    
   141   71  193 1    
   142   71  194 1    
   143   72   73 2    
   144   72   74 am   BACKBONE|DICT|INTERRES
   145   74   75 1    
   146   74  195 1    
   147   75   76 1    
   148   75   77 1    
   149   75  196 1    
   150   76  197 1    
   151   76  198 1    
   152   76  199 1    
   153   77   78 2    
   154   77   79 am   BACKBONE|DICT|INTERRES
   155   79   80 1    
   156   79  200 1    
   157   80   81 1    
   158   80   82 1    
   159   80  201 1    
   160   81  202 1    
   161   81  203 1    
   162   81  204 1    
   163   82   83 2    
   164   82   84 am   BACKBONE|DICT|INTERRES
   165   84   85 1    
   166   84  205 1    
   167   85   86 1    
   168   85   87 1    
   169   85  206 1    
   170   86  207 1    
   171   86  208 1    
   172   86  209 1    
   173   87   88 2    
   174   87   89 am   BACKBONE|DICT|INTERRES
   175   89   90 1    
   176   89  210 1    
   177   90   91 1    
   178   90   92 1    
   179   90  211 1    
   180   91  212 1    
   181   91  213 1    
   182   91  214 1    
   183   92   93 2    
   184   92   94 am   BACKBONE|DICT|INTERRES
   185   94   95 1    
   186   94  215 1    
   187   95   96 1    
   188   95   97 1    
   189   95  216 1    
   190   96  217 1    
   191   96  218 1    
   192   96  219 1    
   193   97   98 2    
   194   97   99 am   BACKBONE|DICT|INTERRES
   195   99  100 1    
   196   99  220 1    
   197  100  101 1    
   198  100  102 1    
   199  100  221 1    
   200  101  222 1    
   201  101  223 1    
   202  101  224 1    
   203  102  103 2    
   204  102  104 am   BACKBONE|DICT|INTERRES
   205  104  105 1    
   206  104  225 1    
   207  105  106 1    
   208  105  107 1    
   209  105  226 1    
   210  106  227 1    
   211  106  228 1    
   212  106  229 1    
   213  107  108 2    
   214  107  109 am   BACKBONE|DICT|INTERRES
   215  109  110 1    
   216  109  230 1    
   217  110  111 1    
   218  110  112 1    
   219  110  231 1    
   220  111  232 1    
   221  111  233 1    
   222  111  234 1    
   223  112  113 2    
   224  112  114 am   BACKBONE|DICT|INTERRES
   225  114  115 1    
   226  114  235 1    
   227  115  116 1    
   228  115  117 1    
   229  115  236 1    
   230  116  237 1    
   231  116  238 1    
   232  116  239 1    
   233  117  118 2    
   234  117  119 am   BACKBONE|DICT|INTERRES
   235  119  120 1    
   236  119  240 1    
   237  120  121 1    
   238  120  124 1    
   239  120  241 1    
   240  121  122 am   BACKBONE|DICT|INTERRES
   241  121  123 2    
   242  122  242 1    
   243  122  243 1    
   244  124  125 1    
   245  124  244 1    
   246  124  245 1    
   247  125  126 1    
   248  126  246 1    
   249  126  247 1    
@<TRIPOS>SUBSTRUCTURE
     1 UNK         1 GROUP             0       ****    0 ROOT    
