@<TRIPOS>MOLECULE
3R540
247   249    1
SMALL
USER_CHARGES


@<TRIPOS>ATOM
      1 CA          3.6878  -17.1292  -48.5192 C.3       0 UNK        -0.1800 
      2 C           2.9368  -15.8069  -48.5847 C.2       0 UNK         0.5000 
      3 O           3.3438  -14.9075  -49.3187 O.2       0 UNK        -0.5000 
      4 N           1.8402  -15.6913  -47.8226 N.am      1 UNK        -0.5000 
      5 CA          0.9315  -14.5338  -47.7857 C.3       1 UNK         0.1400 
      6 C6          0.2716  -14.2360  -49.1658 C.3       23 UNK        -0.0398 
      7 S7         -1.5311  -13.9605  -49.0573 S.3       23 UNK        -0.2404 
      8 C8         -2.1840  -15.6540  -48.8642 C.3       23 UNK        -0.0205 
      9 C9         -1.7578  -16.5801  -49.9930 C.ar      23 UNK        -0.0193 
     10 C10        -2.3853  -16.5109  -51.2401 C.ar      23 UNK        -0.1150 
     11 C11        -1.9757  -17.3441  -52.2854 C.ar      23 UNK        -0.0193 
     12 C12        -0.9435  -18.2614  -52.0707 C.ar      23 UNK        -0.1150 
     13 C13        -0.3021  -18.3301  -50.8319 C.ar      23 UNK        -0.0193 
     14 C14        -0.7188  -17.4939  -49.7940 C.ar      23 UNK        -0.1150 
     15 C15         0.8573  -19.2892  -50.6284 C.3       23 UNK        -0.0205 
     16 S16         0.2841  -20.9031  -50.0310 S.3       23 UNK        -0.2404 
     17 C17         0.0598  -20.5721  -48.2538 C.3       23 UNK        -0.0398 
     18 CA         -0.1558  -21.8738  -47.4504 C.3       11 UNK         0.1400 
     19 N           0.2960  -21.7306  -46.0637 N.am      11 UNK        -0.5000 
     20 C           0.5036  -22.7588  -45.2305 C.2       10 UNK         0.5000 
     21 O           0.3471  -23.9357  -45.5515 O.2       10 UNK        -0.5000 
     22 CA          0.9095  -22.4154  -43.7865 C.3       10 UNK         0.1400 
     23 CB          2.4104  -22.1000  -43.7067 C.3       10 UNK        -0.1800 
     24 N           0.1386  -21.3008  -43.2341 N.am      10 UNK        -0.5000 
     25 C          -1.1880  -21.3175  -43.0419 C.2       9 UNK         0.5000 
     26 O          -1.8950  -22.2987  -43.2651 O.2       9 UNK        -0.5000 
     27 CA         -1.8465  -20.0052  -42.5804 C.3       9 UNK         0.1400 
     28 CB         -1.6918  -19.8156  -41.0645 C.3       9 UNK        -0.1800 
     29 N          -1.3220  -18.8318  -43.2789 N.am      9 UNK        -0.5000 
     30 C          -1.3973  -18.6269  -44.6020 C.2       8 UNK         0.5000 
     31 O          -1.9391  -19.3999  -45.3909 O.2       8 UNK        -0.5000 
     32 CA         -0.6881  -17.3729  -45.1379 C.3       8 UNK         0.1400 
     33 CB         -1.5247  -16.1104  -44.8700 C.3       8 UNK        -0.1800 
     34 N           0.6447  -17.2287  -44.5496 N.am      8 UNK        -0.5000 
     35 C           1.6737  -18.0491  -44.8096 C.2       7 UNK         0.5000 
     36 O           1.6274  -18.9507  -45.6455 O.2       7 UNK        -0.5000 
     37 CA          2.9605  -17.8347  -43.9915 C.3       7 UNK         0.1400 
     38 CB          3.8440  -16.7698  -44.6541 C.3       7 UNK        -0.1800 
     39 N           2.6902  -17.4367  -42.6098 N.am      7 UNK        -0.5000 
     40 C           2.1478  -18.2378  -41.6822 C.2       6 UNK         0.5000 
     41 O           1.8432  -19.4112  -41.8882 O.2       6 UNK        -0.5000 
     42 CA          1.8451  -17.6020  -40.3123 C.3       6 UNK         0.1400 
     43 CB          3.0813  -17.6610  -39.4033 C.3       6 UNK        -0.1800 
     44 N           1.3868  -16.2147  -40.4134 N.am      6 UNK        -0.5000 
     45 C           0.2973  -15.8030  -41.0735 C.2       5 UNK         0.5000 
     46 O          -0.4602  -16.5737  -41.6628 O.2       5 UNK        -0.5000 
     47 CA          0.0257  -14.2882  -41.1481 C.3       5 UNK         0.1400 
     48 CB         -1.0530  -13.8661  -40.1338 C.3       5 UNK        -0.1800 
     49 N           1.2191  -13.4337  -41.0561 N.am      5 UNK        -0.5000 
     50 C           2.0174  -13.2001  -40.0011 C.2       4 UNK         0.5000 
     51 O           1.8924  -13.7675  -38.9161 O.2       4 UNK        -0.5000 
     52 CA          3.1783  -12.1989  -40.1887 C.3       4 UNK         0.1400 
     53 CB          4.5181  -12.9489  -40.2580 C.3       4 UNK        -0.1800 
     54 N           3.0513  -11.3650  -41.3845 N.am      4 UNK        -0.5000 
     55 C           2.1206  -10.4214  -41.5844 C.2       3 UNK         0.5000 
     56 O           1.3249  -10.0555  -40.7192 O.2       3 UNK        -0.5000 
     57 CA          2.0416   -9.8056  -42.9979 C.3       3 UNK         0.1400 
     58 CB          2.6141   -8.3797  -42.9943 C.3       3 UNK        -0.1800 
     59 N           2.7164  -10.5830  -44.0462 N.am      3 UNK        -0.5000 
     60 C           2.4025  -11.8291  -44.4276 C.2       2 UNK         0.5000 
     61 O           1.5263  -12.5130  -43.8909 O.2       2 UNK        -0.5000 
     62 CA          3.2768  -12.4288  -45.5444 C.3       2 UNK         0.1400 
     63 CB          4.5686  -13.0109  -44.9480 C.3       2 UNK        -0.1800 
     64 N           2.5852  -13.4789  -46.2919 N.am      2 UNK        -0.5000 
     65 C           1.5476  -13.2794  -47.1166 C.2       1 UNK         0.5000 
     66 O           1.0810  -12.1631  -47.3505 O.2       1 UNK        -0.5000 
     67 C          -1.6125  -22.3842  -47.5483 C.2       11 UNK         0.5000 
     68 O          -1.9373  -23.1331  -48.4724 O.2       11 UNK        -0.5000 
     69 N          -2.4597  -21.9974  -46.5843 N.am      12 UNK        -0.5000 
     70 CA         -3.8226  -22.5032  -46.4259 C.3       12 UNK         0.1400 
     71 CB         -4.6130  -21.5849  -45.4835 C.3       12 UNK        -0.1800 
     72 C          -3.8469  -23.9621  -45.9383 C.2       12 UNK         0.5000 
     73 O          -4.6306  -24.7532  -46.4602 O.2       12 UNK        -0.5000 
     74 N          -2.9627  -24.3121  -44.9928 N.am      13 UNK        -0.5000 
     75 CA         -2.7683  -25.6779  -44.4943 C.3       13 UNK         0.1400 
     76 CB         -1.8477  -25.6542  -43.2651 C.3       13 UNK        -0.1800 
     77 C          -2.2206  -26.6341  -45.5720 C.2       13 UNK         0.5000 
     78 O          -2.6366  -27.7915  -45.6286 O.2       13 UNK        -0.5000 
     79 N          -1.3394  -26.1169  -46.4396 N.am      14 UNK        -0.5000 
     80 CA         -0.8344  -26.7889  -47.6406 C.3       14 UNK         0.1400 
     81 CB          0.4208  -26.0476  -48.1283 C.3       14 UNK        -0.1800 
     82 C          -1.8750  -26.8834  -48.7783 C.2       14 UNK         0.5000 
     83 O          -1.6221  -27.5724  -49.7665 O.2       14 UNK        -0.5000 
     84 N          -3.0060  -26.1785  -48.6279 N.am      15 UNK        -0.5000 
     85 CA         -4.1595  -26.0761  -49.5260 C.3       15 UNK         0.1400 
     86 CB         -4.7809  -27.4580  -49.8117 C.3       15 UNK        -0.1800 
     87 C          -3.9053  -25.2768  -50.8177 C.2       15 UNK         0.5000 
     88 O          -4.8245  -25.1488  -51.6241 O.2       15 UNK        -0.5000 
     89 N          -2.7067  -24.7071  -50.9904 N.am      16 UNK        -0.5000 
     90 CA         -2.3374  -23.9028  -52.1553 C.3       16 UNK         0.1400 
     91 CB         -0.8130  -23.7373  -52.2007 C.3       16 UNK        -0.1800 
     92 C          -3.0596  -22.5447  -52.1848 C.2       16 UNK         0.5000 
     93 O          -3.5141  -22.1218  -53.2492 O.2       16 UNK        -0.5000 
     94 N          -3.2119  -21.9097  -51.0138 N.am      17 UNK        -0.5000 
     95 CA         -3.9978  -20.6808  -50.8728 C.3       17 UNK         0.1400 
     96 CB         -3.6488  -19.9766  -49.5555 C.3       17 UNK        -0.1800 
     97 C          -5.5119  -20.9485  -50.9655 C.2       17 UNK         0.5000 
     98 O          -6.2438  -20.1031  -51.4785 O.2       17 UNK        -0.5000 
     99 N          -5.9487  -22.1289  -50.4999 N.am      18 UNK        -0.5000 
    100 CA        -7.3410  -22.5830  -50.5506 C.3       18 UNK         0.1400 
    101 CB        -7.5237  -23.7896  -49.6167 C.3       18 UNK        -0.1800 
    102 C         -7.7926  -22.9213  -51.9838 C.2       18 UNK         0.5000 
    103 O         -8.8995  -22.5530  -52.3776 O.2       18 UNK        -0.5000 
    104 N         -6.9103  -23.5795  -52.7489 N.am      19 UNK        -0.5000 
    105 CA        -7.0822  -23.8805  -54.1727 C.3       19 UNK         0.1400 
    106 CB        -6.0788  -24.9743  -54.5716 C.3       19 UNK        -0.1800 
    107 C         -6.9117  -22.6476  -55.0833 C.2       19 UNK         0.5000 
    108 O         -7.2632  -22.7213  -56.2614 O.2       19 UNK        -0.5000 
    109 N         -6.3739  -21.5534  -54.5245 N.am      20 UNK        -0.5000 
    110 CA        -6.0642  -20.2760  -55.1645 C.3       20 UNK         0.1400 
    111 CB        -7.3459  -19.5699  -55.6533 C.3       20 UNK        -0.1800 
    112 C         -4.9921  -20.4297  -56.2589 C.2       20 UNK         0.5000 
    113 O         -5.2020  -20.0237  -57.4043 O.2       20 UNK        -0.5000 
    114 N         -3.8370  -20.9911  -55.8688 N.am      21 UNK        -0.5000 
    115 CA        -2.6506  -21.2067  -56.7103 C.3       21 UNK         0.1400 
    116 CB        -1.5759  -21.9220  -55.8759 C.3       21 UNK        -0.1800 
    117 C         -2.0699  -19.9262  -57.3520 C.2       21 UNK         0.5000 
    118 O         -1.3360  -20.0184  -58.3370 O.2       21 UNK        -0.5000 
    119 N         -2.4323  -18.7622  -56.7999 N.am      22 UNK        -0.5000 
    120 CA        -2.2005  -17.4258  -57.3657 C.3       22 UNK         0.1400 
    121 C         -2.9667  -17.1481  -58.6949 C.2       22 UNK         0.5000 
    122 N         -4.0063  -17.8994  -59.0425 N.am      22 UNK        -0.7600 
    123 O         -2.6070  -16.2297  -59.4264 O.2       22 UNK        -0.5000 
    124 C124       -2.5234  -16.3161  -56.3319 C.3       23 UNK        -0.0398 
    125 S125       -1.4952  -16.4126  -54.8287 S.3       23 UNK        -0.2404 
    126 C126       -2.6202  -17.2369  -53.6569 C.3       23 UNK        -0.0205 
    127 H127        3.1730  -17.8601  -47.8948 H         1 UNK         0.0600 
    128 H128        4.6874  -16.9739  -48.1137 H         1 UNK         0.0600 
    129 H129        3.7887  -17.5513  -49.5190 H         1 UNK         0.0600 
    130 H130        1.5703  -16.4703  -47.2401 H         1 UNK         0.3000 
    131 H131        0.1465  -14.8461  -47.0996 H         1 UNK         0.0600 
    132 H132        0.7245  -13.3677  -49.6472 H         1 UNK         0.0800 
    133 H133        0.4507  -15.0456  -49.8716 H         1 UNK         0.0800 
    134 H134       -3.2733  -15.6089  -48.8264 H         1 UNK         0.0800 
    135 H135       -1.8668  -16.0560  -47.9021 H         1 UNK         0.0800 
    136 H136       -3.1771  -15.7926  -51.4001 H         1 UNK         0.1150 
    137 H137       -0.6214  -18.9030  -52.8790 H         1 UNK         0.1150 
    138 H138       -0.2211  -17.5423  -48.8367 H         1 UNK         0.1150 
    139 H139        1.5874  -18.8690  -49.9359 H         1 UNK         0.0800 
    140 H140        1.3850  -19.4338  -51.5722 H         1 UNK         0.0800 
    141 H141       -0.7500  -19.8603  -48.0901 H         1 UNK         0.0800 
    142 H142        0.9692  -20.0763  -47.9136 H         1 UNK         0.0800 
    143 H143        0.4767  -22.6465  -47.8929 H         1 UNK         0.0600 
    144 H144        0.4688  -20.7881  -45.7342 H         1 UNK         0.3000 
    145 H145        0.7143  -23.2941  -43.1686 H         1 UNK         0.0600 
    146 H146        3.0046  -22.9215  -44.1089 H         1 UNK         0.0600 
    147 H147        2.7258  -21.9464  -42.6747 H         1 UNK         0.0600 
    148 H148        2.6644  -21.2027  -44.2714 H         1 UNK         0.0600 
    149 H149        0.6654  -20.4783  -42.9532 H         1 UNK         0.3000 
    150 H150       -2.9125  -20.0719  -42.8066 H         1 UNK         0.0600 
    151 H151       -0.6447  -19.7433  -40.7717 H         1 UNK         0.0600 
    152 H152       -2.1272  -20.6547  -40.5206 H         1 UNK         0.0600 
    153 H153       -2.1965  -18.9102  -40.7265 H         1 UNK         0.0600 
    154 H154       -0.8865  -18.1165  -42.7026 H         1 UNK         0.3000 
    155 H155       -0.5745  -17.4843  -46.2182 H         1 UNK         0.0600 
    156 H156       -0.9968  -15.2042  -45.1625 H         1 UNK         0.0600 
    157 H157       -1.7884  -16.0082  -43.8178 H         1 UNK         0.0600 
    158 H158       -2.4588  -16.1412  -45.4316 H         1 UNK         0.0600 
    159 H159        0.7399  -16.5529  -43.8061 H         1 UNK         0.3000 
    160 H160        3.5105  -18.7780  -43.9756 H         1 UNK         0.0600 
    161 H161        3.3242  -15.8161  -44.7342 H         1 UNK         0.0600 
    162 H162        4.1367  -17.0760  -45.6578 H         1 UNK         0.0600 
    163 H163        4.7613  -16.6071  -44.0879 H         1 UNK         0.0600 
    164 H164        2.9112  -16.4865  -42.3521 H         1 UNK         0.3000 
    165 H165        1.0470  -18.1825  -39.8455 H         1 UNK         0.0600 
    166 H166        3.4368  -18.6864  -39.2932 H         1 UNK         0.0600 
    167 H167        3.9048  -17.0677  -39.8031 H         1 UNK         0.0600 
    168 H168        2.8539  -17.2877  -38.4045 H         1 UNK         0.0600 
    169 H169        1.9067  -15.5145  -39.8966 H         1 UNK         0.3000 
    170 H170       -0.3790  -14.1050  -42.1448 H         1 UNK         0.0600 
    171 H171       -1.2855  -12.8050  -40.2249 H         1 UNK         0.0600 
    172 H172       -0.7450  -14.0563  -39.1056 H         1 UNK         0.0600 
    173 H173       -1.9791  -14.4175  -40.3013 H         1 UNK         0.0600 
    174 H174        1.4447  -12.9550  -41.9229 H         1 UNK         0.3000 
    175 H175        3.1914  -11.5446  -39.3148 H         1 UNK         0.0600 
    176 H176        4.5638  -13.6130  -41.1221 H         1 UNK         0.0600 
    177 H177        4.6733  -13.5588  -39.3671 H         1 UNK         0.0600 
    178 H178        5.3561  -12.2547  -40.3230 H         1 UNK         0.0600 
    179 H179        3.6694  -11.5826  -42.1512 H         1 UNK         0.3000 
    180 H180        0.9837   -9.7488  -43.2614 H         1 UNK         0.0600 
    181 H181        3.6797   -8.3752  -42.7617 H         1 UNK         0.0600 
    182 H182        2.1135   -7.7577  -42.2511 H         1 UNK         0.0600 
    183 H183        2.4783   -7.8967  -43.9621 H         1 UNK         0.0600 
    184 H184        3.4680  -10.1084  -44.5258 H         1 UNK         0.3000 
    185 H185        3.5418  -11.6351  -46.2461 H         1 UNK         0.0600 
    186 H186        4.3619  -13.7538  -44.1774 H         1 UNK         0.0600 
    187 H187        5.1830  -13.4826  -45.7151 H         1 UNK         0.0600 
    188 H188        5.1735  -12.2283  -44.4885 H         1 UNK         0.0600 
    189 H189        2.9085  -14.4228  -46.1540 H         1 UNK         0.3000 
    190 H190       -2.1469  -21.3088  -45.9070 H         1 UNK         0.3000 
    191 H191       -4.3121  -22.4808  -47.4014 H         1 UNK         0.0600 
    192 H192       -4.6373  -20.5624  -45.8611 H         1 UNK         0.0600 
    193 H193       -5.6457  -21.9219  -45.3866 H         1 UNK         0.0600 
    194 H194       -4.1802  -21.5607  -44.4837 H         1 UNK         0.0600 
    195 H195       -2.3994  -23.5860  -44.5575 H         1 UNK         0.3000 
    196 H196       -3.7423  -26.0583  -44.1798 H         1 UNK         0.0600 
    197 H197       -1.7178  -26.6565  -42.8554 H         1 UNK         0.0600 
    198 H198       -2.2633  -25.0303  -42.4736 H         1 UNK         0.0600 
    199 H199       -0.8580  -25.2688  -43.5094 H         1 UNK         0.0600 
    200 H200       -0.9760  -25.1856  -46.2580 H         1 UNK         0.3000 
    201 H201       -0.5493  -27.8078  -47.3714 H         1 UNK         0.0600 
    202 H202        0.8648  -26.5498  -48.9887 H         1 UNK         0.0600 
    203 H203        1.1824  -26.0053  -47.3494 H         1 UNK         0.0600 
    204 H204        0.1909  -25.0251  -48.4284 H         1 UNK         0.0600 
    205 H205       -3.0984  -25.6394  -47.7765 H         1 UNK         0.3000 
    206 H206       -4.9031  -25.5014  -48.9743 H         1 UNK         0.0600 
    207 H207       -4.9759  -28.0014  -48.8870 H         1 UNK         0.0600 
    208 H208       -5.7332  -27.3568  -50.3337 H         1 UNK         0.0600 
    209 H209       -4.1345  -28.0749  -50.4363 H         1 UNK         0.0600 
    210 H210       -2.0282  -24.7821  -50.2454 H         1 UNK         0.3000 
    211 H211       -2.6391  -24.4443  -53.0545 H         1 UNK         0.0600 
    212 H212       -0.3247  -24.6881  -52.4145 H         1 UNK         0.0600 
    213 H213       -0.5115  -23.0335  -52.9778 H         1 UNK         0.0600 
    214 H214       -0.4224  -23.3745  -51.2514 H         1 UNK         0.0600 
    215 H215       -2.7971  -22.3088  -50.1784 H         1 UNK         0.3000 
    216 H216       -3.7287  -20.0052  -51.6880 H         1 UNK         0.0600 
    217 H217       -3.9132  -20.5776  -48.6878 H         1 UNK         0.0600 
    218 H218       -4.1783  -19.0269  -49.4703 H         1 UNK         0.0600 
    219 H219       -2.5852  -19.7545  -49.5047 H         1 UNK         0.0600 
    220 H220       -5.2710  -22.7754  -50.1275 H         1 UNK         0.3000 
    221 H221       -7.9738  -21.7726  -50.1822 H         1 UNK         0.0600 
    222 H222       -6.9655  -24.6592  -49.9624 H         1 UNK         0.0600 
    223 H223       -7.1976  -23.5607  -48.6018 H         1 UNK         0.0600 
    224 H224       -8.5735  -24.0800  -49.5629 H         1 UNK         0.0600 
    225 H225       -6.0541  -23.9281  -52.3242 H         1 UNK         0.3000 
    226 H226       -8.0919  -24.2667  -54.3259 H         1 UNK         0.0600 
    227 H227       -6.2214  -25.8765  -53.9766 H         1 UNK         0.0600 
    228 H228       -6.1971  -25.2545  -55.6190 H         1 UNK         0.0600 
    229 H229       -5.0490  -24.6412  -54.4341 H         1 UNK         0.0600 
    230 H230       -6.1003  -21.6271  -53.5549 H         1 UNK         0.3000 
    231 H231       -5.6238  -19.6474  -54.3889 H         1 UNK         0.0600 
    232 H232       -7.8306  -20.1144  -56.4640 H         1 UNK         0.0600 
    233 H233       -7.1203  -18.5692  -56.0236 H         1 UNK         0.0600 
    234 H234       -8.0674  -19.4615  -54.8435 H         1 UNK         0.0600 
    235 H235       -3.7650  -21.3341  -54.9123 H         1 UNK         0.3000 
    236 H236       -2.9471  -21.8676  -57.5271 H         1 UNK         0.0600 
    237 H237       -1.2740  -21.3236  -55.0150 H         1 UNK         0.0600 
    238 H238       -1.9377  -22.8819  -55.5068 H         1 UNK         0.0600 
    239 H239       -0.6823  -22.1199  -56.4696 H         1 UNK         0.0600 
    240 H240       -3.0321  -18.8009  -55.9924 H         1 UNK         0.3000 
    241 H241       -1.1380  -17.3601  -57.6081 H         1 UNK         0.0600 
    242 H242       -4.3353  -18.6572  -58.4506 H         1 UNK         0.3800 
    243 H243       -4.4862  -17.7057  -59.9070 H         1 UNK         0.3800 
    244 H244       -2.3493  -15.3310  -56.7689 H         1 UNK         0.0800 
    245 H245       -3.5797  -16.3386  -56.0582 H         1 UNK         0.0800 
    246 H246       -3.5574  -16.6814  -53.5964 H         1 UNK         0.0800 
    247 H247       -2.8685  -18.2359  -54.0160 H         1 UNK         0.0800 
@<TRIPOS>BOND
     1    1    2 1    
     2    1  127 1    
     3    1  128 1    
     4    1  129 1    
     5    2    3 2    
     6    2    4 am   BACKBONE|DICT|INTERRES
     7    4    5 1    
     8    4  130 1    
     9    5    6 1    
    10    5   65 1    
    11    5  131 1    
    12    6    7 1    
    13    6  132 1    
    14    6  133 1    
    15    7    8 1    
    16    8    9 1    
    17    8  134 1    
    18    8  135 1    
    19    9   10 ar   
    20    9   14 ar   
    21   10   11 ar   
    22   10  136 1    
    23   11   12 ar   
    24   11  126 1    
    25   12   13 ar   
    26   12  137 1    
    27   13   14 ar   
    28   13   15 1    
    29   14  138 1    
    30   15   16 1    
    31   15  139 1    
    32   15  140 1    
    33   16   17 1    
    34   17   18 1    
    35   17  141 1    
    36   17  142 1    
    37   18   19 1    
    38   18   67 1    
    39   18  143 1    
    40   19   20 am   BACKBONE|DICT|INTERRES
    41   19  144 1    
    42   20   21 2    
    43   20   22 1    
    44   22   23 1    
    45   22   24 1    
    46   22  145 1    
    47   23  146 1    
    48   23  147 1    
    49   23  148 1    
    50   24   25 am   BACKBONE|DICT|INTERRES
    51   24  149 1    
    52   25   26 2    
    53   25   27 1    
    54   27   28 1    
    55   27   29 1    
    56   27  150 1    
    57   28  151 1    
    58   28  152 1    
    59   28  153 1    
    60   29   30 am   BACKBONE|DICT|INTERRES
    61   29  154 1    
    62   30   31 2    
    63   30   32 1    
    64   32   33 1    
    65   32   34 1    
    66   32  155 1    
    67   33  156 1    
    68   33  157 1    
    69   33  158 1    
    70   34   35 am   BACKBONE|DICT|INTERRES
    71   34  159 1    
    72   35   36 2    
    73   35   37 1    
    74   37   38 1    
    75   37   39 1    
    76   37  160 1    
    77   38  161 1    
    78   38  162 1    
    79   38  163 1    
    80   39   40 am   BACKBONE|DICT|INTERRES
    81   39  164 1    
    82   40   41 2    
    83   40   42 1    
    84   42   43 1    
    85   42   44 1    
    86   42  165 1    
    87   43  166 1    
    88   43  167 1    
    89   43  168 1    
    90   44   45 am   BACKBONE|DICT|INTERRES
    91   44  169 1    
    92   45   46 2    
    93   45   47 1    
    94   47   48 1    
    95   47   49 1    
    96   47  170 1    
    97   48  171 1    
    98   48  172 1    
    99   48  173 1    
   100   49   50 am   BACKBONE|DICT|INTERRES
   101   49  174 1    
   102   50   51 2    
   103   50   52 1    
   104   52   53 1    
   105   52   54 1    
   106   52  175 1    
   107   53  176 1    
   108   53  177 1    
   109   53  178 1    
   110   54   55 am   BACKBONE|DICT|INTERRES
   111   54  179 1    
   112   55   56 2    
   113   55   57 1    
   114   57   58 1    
   115   57   59 1    
   116   57  180 1    
   117   58  181 1    
   118   58  182 1    
   119   58  183 1    
   120   59   60 am   BACKBONE|DICT|INTERRES
   121   59  184 1    
   122   60   61 2    
   123   60   62 1    
   124   62   63 1    
   125   62   64 1    
   126   62  185 1    
   127   63  186 1    
   128   63  187 1    
   129   63  188 1    
   130   64   65 am   BACKBONE|DICT|INTERRES
   131   64  189 1    
   132   65   66 2    
   133   67   68 2    
   134   67   69 am   BACKBONE|DICT|INTERRES
   135   69   70 1    
   136   69  190 1    
   137   70   71 1    
   138   70   72 1    
   139   70  191 1    
   140   71  192 1    
   141   71  193 1    
   142   71  194 1    
   143   72   73 2    
   144   72   74 am   BACKBONE|DICT|INTERRES
   145   74   75 1    
   146   74  195 1    
   147   75   76 1    
   148   75   77 1    
   149   75  196 1    
   150   76  197 1    
   151   76  198 1    
   152   76  199 1    
   153   77   78 2    
   154   77   79 am   BACKBONE|DICT|INTERRES
   155   79   80 1    
   156   79  200 1    
   157   80   81 1    
   158   80   82 1    
   159   80  201 1    
   160   81  202 1    
   161   81  203 1    
   162   81  204 1    
   163   82   83 2    
   164   82   84 am   BACKBONE|DICT|INTERRES
   165   84   85 1    
   166   84  205 1    
   167   85   86 1    
   168   85   87 1    
   169   85  206 1    
   170   86  207 1    
   171   86  208 1    
   172   86  209 1    
   173   87   88 2    
   174   87   89 am   BACKBONE|DICT|INTERRES
   175   89   90 1    
   176   89  210 1    
   177   90   91 1    
   178   90   92 1    
   179   90  211 1    
   180   91  212 1    
   181   91  213 1    
   182   91  214 1    
   183   92   93 2    
   184   92   94 am   BACKBONE|DICT|INTERRES
   185   94   95 1    
   186   94  215 1    
   187   95   96 1    
   188   95   97 1    
   189   95  216 1    
   190   96  217 1    
   191   96  218 1    
   192   96  219 1    
   193   97   98 2    
   194   97   99 am   BACKBONE|DICT|INTERRES
   195   99  100 1    
   196   99  220 1    
   197  100  101 1    
   198  100  102 1    
   199  100  221 1    
   200  101  222 1    
   201  101  223 1    
   202  101  224 1    
   203  102  103 2    
   204  102  104 am   BACKBONE|DICT|INTERRES
   205  104  105 1    
   206  104  225 1    
   207  105  106 1    
   208  105  107 1    
   209  105  226 1    
   210  106  227 1    
   211  106  228 1    
   212  106  229 1    
   213  107  108 2    
   214  107  109 am   BACKBONE|DICT|INTERRES
   215  109  110 1    
   216  109  230 1    
   217  110  111 1    
   218  110  112 1    
   219  110  231 1    
   220  111  232 1    
   221  111  233 1    
   222  111  234 1    
   223  112  113 2    
   224  112  114 am   BACKBONE|DICT|INTERRES
   225  114  115 1    
   226  114  235 1    
   227  115  116 1    
   228  115  117 1    
   229  115  236 1    
   230  116  237 1    
   231  116  238 1    
   232  116  239 1    
   233  117  118 2    
   234  117  119 am   BACKBONE|DICT|INTERRES
   235  119  120 1    
   236  119  240 1    
   237  120  121 1    
   238  120  124 1    
   239  120  241 1    
   240  121  122 am   BACKBONE|DICT|INTERRES
   241  121  123 2    
   242  122  242 1    
   243  122  243 1    
   244  124  125 1    
   245  124  244 1    
   246  124  245 1    
   247  125  126 1    
   248  126  246 1    
   249  126  247 1    
@<TRIPOS>SUBSTRUCTURE
     1 UNK         1 GROUP             0       ****    0 ROOT    
