@<TRIPOS>MOLECULE
3R540
247   249    1
SMALL
USER_CHARGES


@<TRIPOS>ATOM
      1 CA          2.6824  -16.3606  -48.9303 C.3       0 UNK        -0.1800 
      2 C           1.4525  -15.5377  -48.5892 C.2       0 UNK         0.5000 
      3 O           1.5487  -14.5581  -47.8488 O.2       0 UNK        -0.5000 
      4 N           0.2857  -15.9135  -49.1300 N.am      1 UNK        -0.5000 
      5 CA         -1.0041  -15.2449  -48.8880 C.3       1 UNK         0.1400 
      6 C6         -2.2196  -16.1052  -49.3078 C.3       23 UNK        -0.0398 
      7 S7         -2.3749  -17.6216  -48.2992 S.3       23 UNK        -0.2404 
      8 C8         -2.1286  -18.9638  -49.5044 C.3       23 UNK        -0.0205 
      9 C9         -0.7065  -19.0119  -50.0246 C.ar      23 UNK        -0.0193 
     10 C10        -0.3891  -18.3780  -51.2229 C.ar      23 UNK        -0.1150 
     11 C11         0.9152  -18.3942  -51.7122 C.ar      23 UNK        -0.0193 
     12 C12         1.9041  -19.0884  -51.0091 C.ar      23 UNK        -0.1150 
     13 C13         1.5994  -19.7468  -49.8106 C.ar      23 UNK        -0.0193 
     14 C14         0.2888  -19.6908  -49.3185 C.ar      23 UNK        -0.1150 
     15 C15         2.7086  -20.4726  -49.0516 C.3       23 UNK        -0.0205 
     16 S16         2.2478  -22.1434  -48.4762 S.3       23 UNK        -0.2404 
     17 C17         1.7693  -21.7823  -46.7522 C.3       23 UNK        -0.0398 
     18 CA          0.8716  -22.8449  -46.0758 C.3       11 UNK         0.1400 
     19 N           0.6657  -22.5231  -44.6610 N.am      11 UNK        -0.5000 
     20 C           0.0705  -23.3140  -43.7579 C.2       10 UNK         0.5000 
     21 O          -0.3442  -24.4453  -44.0090 O.2       10 UNK        -0.5000 
     22 CA         -0.1340  -22.7194  -42.3505 C.3       10 UNK         0.1400 
     23 CB          1.1638  -22.7782  -41.5310 C.3       10 UNK        -0.1800 
     24 N          -0.6214  -21.3396  -42.4004 N.am      10 UNK        -0.5000 
     25 C          -1.8329  -20.9851  -42.8536 C.2       9 UNK         0.5000 
     26 O          -2.7003  -21.7943  -43.1833 O.2       9 UNK        -0.5000 
     27 CA         -2.1030  -19.4754  -43.0124 C.3       9 UNK         0.1400 
     28 CB         -2.5730  -18.8534  -41.6893 C.3       9 UNK        -0.1800 
     29 N          -0.9384  -18.7426  -43.5133 N.am      9 UNK        -0.5000 
     30 C          -0.3840  -18.9385  -44.7178 C.2       8 UNK         0.5000 
     31 O          -0.8241  -19.7217  -45.5541 O.2       8 UNK        -0.5000 
     32 CA          0.9123  -18.1755  -45.0210 C.3       8 UNK         0.1400 
     33 CB          0.5933  -16.7611  -45.5087 C.3       8 UNK        -0.1800 
     34 N           1.7966  -18.1263  -43.8583 N.am      8 UNK        -0.5000 
     35 C           2.4519  -19.1891  -43.3696 C.2       7 UNK         0.5000 
     36 O           2.4110  -20.3064  -43.8832 O.2       7 UNK        -0.5000 
     37 CA          3.2503  -18.9811  -42.0689 C.3       7 UNK         0.1400 
     38 CB          4.6744  -18.5000  -42.3831 C.3       7 UNK        -0.1800 
     39 N           2.6084  -18.0295  -41.1611 N.am      7 UNK        -0.5000 
     40 C           1.4379  -18.2410  -40.5418 C.2       6 UNK         0.5000 
     41 O           0.8104  -19.2981  -40.6144 O.2       6 UNK        -0.5000 
     42 CA          0.8430  -17.0443  -39.7691 C.3       6 UNK         0.1400 
     43 CB          1.3547  -17.0277  -38.3214 C.3       6 UNK        -0.1800 
     44 N           1.1281  -15.7493  -40.4034 N.am      6 UNK        -0.5000 
     45 C           0.7224  -15.4113  -41.6354 C.2       5 UNK         0.5000 
     46 O           0.0236  -16.1522  -42.3299 O.2       5 UNK        -0.5000 
     47 CA          1.2477  -14.0725  -42.2005 C.3       5 UNK         0.1400 
     48 CB          2.7792  -14.1106  -42.3465 C.3       5 UNK        -0.1800 
     49 N           0.6813  -13.7612  -43.5148 N.am      5 UNK        -0.5000 
     50 C          -0.5715  -13.3461  -43.7412 C.2       4 UNK         0.5000 
     51 O          -1.3709  -13.0710  -42.8440 O.2       4 UNK        -0.5000 
     52 CA         -0.9889  -13.2360  -45.2250 C.3       4 UNK         0.1400 
     53 CB         -2.3150  -12.4742  -45.4302 C.3       4 UNK        -0.1800 
     54 N           0.0666  -12.6985  -46.0946 N.am      4 UNK        -0.5000 
     55 C           0.6017  -11.4673  -46.0523 C.2       3 UNK         0.5000 
     56 O           0.3025  -10.6106  -45.2200 O.2       3 UNK        -0.5000 
     57 CA          1.6352  -11.1272  -47.1409 C.3       3 UNK         0.1400 
     58 CB          3.0351  -11.6004  -46.7184 C.3       3 UNK        -0.1800 
     59 N           1.2825  -11.7429  -48.4213 N.am      3 UNK        -0.5000 
     60 C           0.5701  -11.1503  -49.3917 C.2       2 UNK         0.5000 
     61 O           0.1961   -9.9778  -49.3479 O.2       2 UNK        -0.5000 
     62 CA          0.2019  -12.0177  -50.6164 C.3       2 UNK         0.1400 
     63 CB          1.3416  -11.9882  -51.6464 C.3       2 UNK        -0.1800 
     64 N          -0.0719  -13.4082  -50.2543 N.am      2 UNK        -0.5000 
     65 C          -1.0823  -13.8138  -49.4722 C.2       1 UNK         0.5000 
     66 O          -2.0243  -13.0880  -49.1559 O.2       1 UNK        -0.5000 
     67 C          -0.4659  -23.0709  -46.8165 C.2       11 UNK         0.5000 
     68 O          -0.5879  -24.0537  -47.5441 O.2       11 UNK        -0.5000 
     69 N          -1.4668  -22.2149  -46.5661 N.am      12 UNK        -0.5000 
     70 CA         -2.8210  -22.2959  -47.1223 C.3       12 UNK         0.1400 
     71 CB         -3.6482  -21.1021  -46.6203 C.3       12 UNK        -0.1800 
     72 C          -3.5634  -23.6053  -46.7969 C.2       12 UNK         0.5000 
     73 O          -4.3970  -24.0358  -47.5920 O.2       12 UNK        -0.5000 
     74 N          -3.2536  -24.2158  -45.6456 N.am      13 UNK        -0.5000 
     75 CA         -3.8013  -25.5079  -45.2344 C.3       13 UNK         0.1400 
     76 CB         -3.6667  -25.6486  -43.7104 C.3       13 UNK        -0.1800 
     77 C          -3.1309  -26.6957  -45.9535 C.2       13 UNK         0.5000 
     78 O          -3.7577  -27.7478  -46.0853 O.2       13 UNK        -0.5000 
     79 N          -1.8773  -26.5193  -46.3913 N.am      14 UNK        -0.5000 
     80 CA         -1.0836  -27.5377  -47.0772 C.3       14 UNK         0.1400 
     81 CB          0.3902  -27.3776  -46.6705 C.3       14 UNK        -0.1800 
     82 C          -1.2321  -27.4580  -48.6067 C.2       14 UNK         0.5000 
     83 O          -1.2849  -28.4985  -49.2641 O.2       14 UNK        -0.5000 
     84 N          -1.2714  -26.2328  -49.1466 N.am      15 UNK        -0.5000 
     85 CA         -1.3527  -25.9324  -50.5740 C.3       15 UNK         0.1400 
     86 CB         -1.1799  -24.4173  -50.7769 C.3       15 UNK        -0.1800 
     87 C          -2.6760  -26.4009  -51.2021 C.2       15 UNK         0.5000 
     88 O          -3.7461  -26.1132  -50.6626 O.2       15 UNK        -0.5000 
     89 N          -2.5840  -27.0537  -52.3686 N.am      16 UNK        -0.5000 
     90 CA         -3.7315  -27.5088  -53.1624 C.3       16 UNK         0.1400 
     91 CB         -3.2331  -28.4412  -54.2771 C.3       16 UNK        -0.1800 
     92 C          -4.5582  -26.3498  -53.7558 C.2       16 UNK         0.5000 
     93 O          -5.7541  -26.5144  -53.9976 O.2       16 UNK        -0.5000 
     94 N          -3.9101  -25.1931  -53.9521 N.am      17 UNK        -0.5000 
     95 CA         -4.5302  -23.9378  -54.3791 C.3       17 UNK         0.1400 
     96 CB         -3.4362  -23.0266  -54.9564 C.3       17 UNK        -0.1800 
     97 C          -5.3016  -23.2186  -53.2502 C.2       17 UNK         0.5000 
     98 O          -6.0339  -22.2727  -53.5416 O.2       17 UNK        -0.5000 
     99 N          -5.1323  -23.6786  -52.0005 N.am      18 UNK        -0.5000 
    100 CA        -5.7307  -23.1633  -50.7680 C.3       18 UNK         0.1400 
    101 CB        -7.2645  -23.3551  -50.7841 C.3       18 UNK        -0.1800 
    102 C         -5.2805  -21.7224  -50.4370 C.2       18 UNK         0.5000 
    103 O         -4.1682  -21.3257  -50.7933 O.2       18 UNK        -0.5000 
    104 N         -6.1314  -20.9768  -49.7211 N.am      19 UNK        -0.5000 
    105 CA        -5.9137  -19.5814  -49.3468 C.3       19 UNK         0.1400 
    106 CB        -6.9247  -19.1991  -48.2550 C.3       19 UNK        -0.1800 
    107 C         -6.0360  -18.6286  -50.5508 C.2       19 UNK         0.5000 
    108 O         -6.7560  -18.9266  -51.5057 O.2       19 UNK        -0.5000 
    109 N         -5.3503  -17.4806  -50.4516 N.am      20 UNK        -0.5000 
    110 CA        -5.3568  -16.3526  -51.3954 C.3       20 UNK         0.1400 
    111 CB        -6.7627  -15.7236  -51.4884 C.3       20 UNK        -0.1800 
    112 C         -4.7588  -16.6564  -52.7877 C.2       20 UNK         0.5000 
    113 O         -4.9431  -15.8564  -53.7061 O.2       20 UNK        -0.5000 
    114 N         -4.0116  -17.7635  -52.9185 N.am      21 UNK        -0.5000 
    115 CA        -3.4406  -18.2773  -54.1725 C.3       21 UNK         0.1400 
    116 CB        -2.7947  -19.6440  -53.8976 C.3       21 UNK        -0.1800 
    117 C         -2.4503  -17.3370  -54.8982 C.2       21 UNK         0.5000 
    118 O         -2.2119  -17.5208  -56.0924 O.2       21 UNK        -0.5000 
    119 N         -1.9168  -16.3428  -54.1823 N.am      22 UNK        -0.5000 
    120 CA        -1.1129  -15.2286  -54.7097 C.3       22 UNK         0.1400 
    121 C         -1.6220  -13.8438  -54.2101 C.2       22 UNK         0.5000 
    122 N         -2.8570  -13.7276  -53.7326 N.am      22 UNK        -0.7600 
    123 O         -0.9084  -12.8482  -54.2835 O.2       22 UNK        -0.5000 
    124 C124        0.4172  -15.4500  -54.5358 C.3       23 UNK        -0.0398 
    125 S125        0.9345  -15.8679  -52.8330 S.3       23 UNK        -0.2404 
    126 C126        1.2283  -17.6605  -53.0039 C.3       23 UNK        -0.0205 
    127 H127        2.6692  -17.3018  -48.3809 H         1 UNK         0.0600 
    128 H128        3.5907  -15.8204  -48.6626 H         1 UNK         0.0600 
    129 H129        2.7200  -16.5741  -49.9982 H         1 UNK         0.0600 
    130 H130        0.2547  -16.7355  -49.7191 H         1 UNK         0.3000 
    131 H131       -1.0827  -15.1057  -47.8087 H         1 UNK         0.0600 
    132 H132       -2.1826  -16.3425  -50.3701 H         1 UNK         0.0800 
    133 H133       -3.1422  -15.5434  -49.1551 H         1 UNK         0.0800 
    134 H134       -2.8304  -18.8580  -50.3307 H         1 UNK         0.0800 
    135 H135       -2.3655  -19.9175  -49.0343 H         1 UNK         0.0800 
    136 H136       -1.1542  -17.8553  -51.7765 H         1 UNK         0.1150 
    137 H137        2.9151  -19.1068  -51.3910 H         1 UNK         0.1150 
    138 H138        0.0274  -20.1773  -48.3916 H         1 UNK         0.1150 
    139 H139        3.5856  -20.5807  -49.6915 H         1 UNK         0.0800 
    140 H140        3.0275  -19.8586  -48.2085 H         1 UNK         0.0800 
    141 H141        1.2895  -20.8077  -46.7074 H         1 UNK         0.0800 
    142 H142        2.6949  -21.6798  -46.1842 H         1 UNK         0.0800 
    143 H143        1.4116  -23.7937  -46.1041 H         1 UNK         0.0600 
    144 H144        1.0281  -21.6268  -44.3515 H         1 UNK         0.3000 
    145 H145       -0.8848  -23.3253  -41.8388 H         1 UNK         0.0600 
    146 H146        1.0073  -22.4041  -40.5190 H         1 UNK         0.0600 
    147 H147        1.5254  -23.8038  -41.4475 H         1 UNK         0.0600 
    148 H148        1.9584  -22.1864  -41.9852 H         1 UNK         0.0600 
    149 H149        0.0124  -20.6131  -42.0874 H         1 UNK         0.3000 
    150 H150       -2.9050  -19.3591  -43.7445 H         1 UNK         0.0600 
    151 H151       -3.4796  -19.3424  -41.3307 H         1 UNK         0.0600 
    152 H152       -2.7995  -17.7938  -41.8100 H         1 UNK         0.0600 
    153 H153       -1.8200  -18.9472  -40.9072 H         1 UNK         0.0600 
    154 H154       -0.5375  -18.0356  -42.9063 H         1 UNK         0.3000 
    155 H155        1.4390  -18.6909  -45.8256 H         1 UNK         0.0600 
    156 H156       -0.0436  -16.2218  -44.8127 H         1 UNK         0.0600 
    157 H157        0.0515  -16.8092  -46.4517 H         1 UNK         0.0600 
    158 H158        1.5005  -16.1787  -45.6654 H         1 UNK         0.0600 
    159 H159        1.8137  -17.2608  -43.3402 H         1 UNK         0.3000 
    160 H160        3.3173  -19.9457  -41.5612 H         1 UNK         0.0600 
    161 H161        4.6729  -17.5260  -42.8741 H         1 UNK         0.0600 
    162 H162        5.1854  -19.2007  -43.0449 H         1 UNK         0.0600 
    163 H163        5.2721  -18.4179  -41.4751 H         1 UNK         0.0600 
    164 H164        3.0627  -17.1369  -41.0388 H         1 UNK         0.3000 
    165 H165       -0.2410  -17.1744  -39.7471 H         1 UNK         0.0600 
    166 H166        0.8757  -16.2377  -37.7427 H         1 UNK         0.0600 
    167 H167        1.1382  -17.9723  -37.8204 H         1 UNK         0.0600 
    168 H168        2.4333  -16.8715  -38.2761 H         1 UNK         0.0600 
    169 H169        1.6984  -15.1037  -39.8763 H         1 UNK         0.3000 
    170 H170        0.9763  -13.2779  -41.5027 H         1 UNK         0.0600 
    171 H171        3.2701  -14.2598  -41.3843 H         1 UNK         0.0600 
    172 H172        3.1019  -14.9148  -43.0093 H         1 UNK         0.0600 
    173 H173        3.1578  -13.1724  -42.7532 H         1 UNK         0.0600 
    174 H174        1.2640  -13.9632  -44.3129 H         1 UNK         0.3000 
    175 H175       -1.1602  -14.2592  -45.5585 H         1 UNK         0.0600 
    176 H176       -2.2571  -11.4495  -45.0624 H         1 UNK         0.0600 
    177 H177       -2.5890  -12.4369  -46.4845 H         1 UNK         0.0600 
    178 H178       -3.1330  -12.9646  -44.9014 H         1 UNK         0.0600 
    179 H179        0.4492  -13.3452  -46.7775 H         1 UNK         0.3000 
    180 H180        1.6662  -10.0410  -47.2488 H         1 UNK         0.0600 
    181 H181        3.0762  -12.6818  -46.5837 H         1 UNK         0.0600 
    182 H182        3.3332  -11.1412  -45.7750 H         1 UNK         0.0600 
    183 H183        3.7829  -11.3279  -47.4632 H         1 UNK         0.0600 
    184 H184        1.5141  -12.7263  -48.5143 H         1 UNK         0.3000 
    185 H185       -0.6961  -11.6004  -51.0768 H         1 UNK         0.0600 
    186 H186        1.5361  -10.9693  -51.9832 H         1 UNK         0.0600 
    187 H187        2.2707  -12.3814  -51.2319 H         1 UNK         0.0600 
    188 H188        1.0954  -12.5798  -52.5276 H         1 UNK         0.0600 
    189 H189        0.6400  -14.0836  -50.4919 H         1 UNK         0.3000 
    190 H190       -1.2686  -21.3925  -45.9981 H         1 UNK         0.3000 
    191 H191       -2.7339  -22.2278  -48.2084 H         1 UNK         0.0600 
    192 H192       -3.7790  -21.1321  -45.5390 H         1 UNK         0.0600 
    193 H193       -4.6424  -21.1038  -47.0666 H         1 UNK         0.0600 
    194 H194       -3.1788  -20.1517  -46.8669 H         1 UNK         0.0600 
    195 H195       -2.5668  -23.7919  -45.0359 H         1 UNK         0.3000 
    196 H196       -4.8653  -25.5303  -45.4796 H         1 UNK         0.0600 
    197 H197       -4.1315  -26.5719  -43.3625 H         1 UNK         0.0600 
    198 H198       -4.1551  -24.8227  -43.1926 H         1 UNK         0.0600 
    199 H199       -2.6231  -25.6702  -43.3965 H         1 UNK         0.0600 
    200 H200       -1.4479  -25.6092  -46.2824 H         1 UNK         0.3000 
    201 H201       -1.4092  -28.5309  -46.7607 H         1 UNK         0.0600 
    202 H202        0.5139  -27.4811  -45.5923 H         1 UNK         0.0600 
    203 H203        0.7871  -26.4036  -46.9590 H         1 UNK         0.0600 
    204 H204        1.0109  -28.1389  -47.1445 H         1 UNK         0.0600 
    205 H205       -1.1776  -25.4295  -48.5284 H         1 UNK         0.3000 
    206 H206       -0.5234  -26.4429  -51.0677 H         1 UNK         0.0600 
    207 H207       -1.9635  -23.8519  -50.2695 H         1 UNK         0.0600 
    208 H208       -0.2200  -24.0735  -50.3901 H         1 UNK         0.0600 
    209 H209       -1.2169  -24.1530  -51.8344 H         1 UNK         0.0600 
    210 H210       -1.6697  -27.2545  -52.7485 H         1 UNK         0.3000 
    211 H211       -4.3915  -28.0808  -52.5066 H         1 UNK         0.0600 
    212 H212       -2.5516  -27.9284  -54.9570 H         1 UNK         0.0600 
    213 H213       -4.0661  -28.8197  -54.8711 H         1 UNK         0.0600 
    214 H214       -2.7113  -29.3052  -53.8651 H         1 UNK         0.0600 
    215 H215       -2.9241  -25.1593  -53.7405 H         1 UNK         0.3000 
    216 H216       -5.2455  -24.1565  -55.1747 H         1 UNK         0.0600 
    217 H217       -3.8666  -22.1050  -55.3500 H         1 UNK         0.0600 
    218 H218       -2.9093  -23.5118  -55.7782 H         1 UNK         0.0600 
    219 H219       -2.7007  -22.7520  -54.1992 H         1 UNK         0.0600 
    220 H220       -4.5100  -24.4647  -51.8637 H         1 UNK         0.3000 
    221 H221       -5.3333  -23.7939  -49.9740 H         1 UNK         0.0600 
    222 H222       -7.7541  -22.6635  -51.4709 H         1 UNK         0.0600 
    223 H223       -7.5281  -24.3680  -51.0894 H         1 UNK         0.0600 
    224 H224       -7.6950  -23.2031  -49.7940 H         1 UNK         0.0600 
    225 H225       -7.0362  -21.3632  -49.4973 H         1 UNK         0.3000 
    226 H226       -4.9090  -19.4927  -48.9314 H         1 UNK         0.0600 
    227 H227       -7.9520  -19.2712  -48.6149 H         1 UNK         0.0600 
    228 H228       -6.8290  -19.8452  -47.3821 H         1 UNK         0.0600 
    229 H229       -6.7675  -18.1743  -47.9160 H         1 UNK         0.0600 
    230 H230       -4.8069  -17.3324  -49.6125 H         1 UNK         0.3000 
    231 H231       -4.7031  -15.5958  -50.9620 H         1 UNK         0.0600 
    232 H232       -7.1598  -15.4967  -50.4990 H         1 UNK         0.0600 
    233 H233       -7.4706  -16.3830  -51.9911 H         1 UNK         0.0600 
    234 H234       -6.7386  -14.7874  -52.0472 H         1 UNK         0.0600 
    235 H235       -3.9437  -18.3771  -52.1212 H         1 UNK         0.3000 
    236 H236       -4.2756  -18.4363  -54.8577 H         1 UNK         0.0600 
    237 H237       -1.9593  -19.5702  -53.2033 H         1 UNK         0.0600 
    238 H238       -3.5178  -20.3424  -53.4753 H         1 UNK         0.0600 
    239 H239       -2.4129  -20.0874  -54.8179 H         1 UNK         0.0600 
    240 H240       -2.1720  -16.2617  -53.2110 H         1 UNK         0.3000 
    241 H241       -1.2874  -15.1689  -55.7853 H         1 UNK         0.0600 
    242 H242       -3.5168  -14.4963  -53.7840 H         1 UNK         0.3800 
    243 H243       -3.1761  -12.8210  -53.4310 H         1 UNK         0.3800 
    244 H244        0.7401  -16.2418  -55.2122 H         1 UNK         0.0800 
    245 H245        0.9747  -14.5684  -54.8554 H         1 UNK         0.0800 
    246 H246        0.5942  -18.0750  -53.7889 H         1 UNK         0.0800 
    247 H247        2.2607  -17.8277  -53.3142 H         1 UNK         0.0800 
@<TRIPOS>BOND
     1    1    2 1    
     2    1  127 1    
     3    1  128 1    
     4    1  129 1    
     5    2    3 2    
     6    2    4 am   BACKBONE|DICT|INTERRES
     7    4    5 1    
     8    4  130 1    
     9    5    6 1    
    10    5   65 1    
    11    5  131 1    
    12    6    7 1    
    13    6  132 1    
    14    6  133 1    
    15    7    8 1    
    16    8    9 1    
    17    8  134 1    
    18    8  135 1    
    19    9   10 ar   
    20    9   14 ar   
    21   10   11 ar   
    22   10  136 1    
    23   11   12 ar   
    24   11  126 1    
    25   12   13 ar   
    26   12  137 1    
    27   13   14 ar   
    28   13   15 1    
    29   14  138 1    
    30   15   16 1    
    31   15  139 1    
    32   15  140 1    
    33   16   17 1    
    34   17   18 1    
    35   17  141 1    
    36   17  142 1    
    37   18   19 1    
    38   18   67 1    
    39   18  143 1    
    40   19   20 am   BACKBONE|DICT|INTERRES
    41   19  144 1    
    42   20   21 2    
    43   20   22 1    
    44   22   23 1    
    45   22   24 1    
    46   22  145 1    
    47   23  146 1    
    48   23  147 1    
    49   23  148 1    
    50   24   25 am   BACKBONE|DICT|INTERRES
    51   24  149 1    
    52   25   26 2    
    53   25   27 1    
    54   27   28 1    
    55   27   29 1    
    56   27  150 1    
    57   28  151 1    
    58   28  152 1    
    59   28  153 1    
    60   29   30 am   BACKBONE|DICT|INTERRES
    61   29  154 1    
    62   30   31 2    
    63   30   32 1    
    64   32   33 1    
    65   32   34 1    
    66   32  155 1    
    67   33  156 1    
    68   33  157 1    
    69   33  158 1    
    70   34   35 am   BACKBONE|DICT|INTERRES
    71   34  159 1    
    72   35   36 2    
    73   35   37 1    
    74   37   38 1    
    75   37   39 1    
    76   37  160 1    
    77   38  161 1    
    78   38  162 1    
    79   38  163 1    
    80   39   40 am   BACKBONE|DICT|INTERRES
    81   39  164 1    
    82   40   41 2    
    83   40   42 1    
    84   42   43 1    
    85   42   44 1    
    86   42  165 1    
    87   43  166 1    
    88   43  167 1    
    89   43  168 1    
    90   44   45 am   BACKBONE|DICT|INTERRES
    91   44  169 1    
    92   45   46 2    
    93   45   47 1    
    94   47   48 1    
    95   47   49 1    
    96   47  170 1    
    97   48  171 1    
    98   48  172 1    
    99   48  173 1    
   100   49   50 am   BACKBONE|DICT|INTERRES
   101   49  174 1    
   102   50   51 2    
   103   50   52 1    
   104   52   53 1    
   105   52   54 1    
   106   52  175 1    
   107   53  176 1    
   108   53  177 1    
   109   53  178 1    
   110   54   55 am   BACKBONE|DICT|INTERRES
   111   54  179 1    
   112   55   56 2    
   113   55   57 1    
   114   57   58 1    
   115   57   59 1    
   116   57  180 1    
   117   58  181 1    
   118   58  182 1    
   119   58  183 1    
   120   59   60 am   BACKBONE|DICT|INTERRES
   121   59  184 1    
   122   60   61 2    
   123   60   62 1    
   124   62   63 1    
   125   62   64 1    
   126   62  185 1    
   127   63  186 1    
   128   63  187 1    
   129   63  188 1    
   130   64   65 am   BACKBONE|DICT|INTERRES
   131   64  189 1    
   132   65   66 2    
   133   67   68 2    
   134   67   69 am   BACKBONE|DICT|INTERRES
   135   69   70 1    
   136   69  190 1    
   137   70   71 1    
   138   70   72 1    
   139   70  191 1    
   140   71  192 1    
   141   71  193 1    
   142   71  194 1    
   143   72   73 2    
   144   72   74 am   BACKBONE|DICT|INTERRES
   145   74   75 1    
   146   74  195 1    
   147   75   76 1    
   148   75   77 1    
   149   75  196 1    
   150   76  197 1    
   151   76  198 1    
   152   76  199 1    
   153   77   78 2    
   154   77   79 am   BACKBONE|DICT|INTERRES
   155   79   80 1    
   156   79  200 1    
   157   80   81 1    
   158   80   82 1    
   159   80  201 1    
   160   81  202 1    
   161   81  203 1    
   162   81  204 1    
   163   82   83 2    
   164   82   84 am   BACKBONE|DICT|INTERRES
   165   84   85 1    
   166   84  205 1    
   167   85   86 1    
   168   85   87 1    
   169   85  206 1    
   170   86  207 1    
   171   86  208 1    
   172   86  209 1    
   173   87   88 2    
   174   87   89 am   BACKBONE|DICT|INTERRES
   175   89   90 1    
   176   89  210 1    
   177   90   91 1    
   178   90   92 1    
   179   90  211 1    
   180   91  212 1    
   181   91  213 1    
   182   91  214 1    
   183   92   93 2    
   184   92   94 am   BACKBONE|DICT|INTERRES
   185   94   95 1    
   186   94  215 1    
   187   95   96 1    
   188   95   97 1    
   189   95  216 1    
   190   96  217 1    
   191   96  218 1    
   192   96  219 1    
   193   97   98 2    
   194   97   99 am   BACKBONE|DICT|INTERRES
   195   99  100 1    
   196   99  220 1    
   197  100  101 1    
   198  100  102 1    
   199  100  221 1    
   200  101  222 1    
   201  101  223 1    
   202  101  224 1    
   203  102  103 2    
   204  102  104 am   BACKBONE|DICT|INTERRES
   205  104  105 1    
   206  104  225 1    
   207  105  106 1    
   208  105  107 1    
   209  105  226 1    
   210  106  227 1    
   211  106  228 1    
   212  106  229 1    
   213  107  108 2    
   214  107  109 am   BACKBONE|DICT|INTERRES
   215  109  110 1    
   216  109  230 1    
   217  110  111 1    
   218  110  112 1    
   219  110  231 1    
   220  111  232 1    
   221  111  233 1    
   222  111  234 1    
   223  112  113 2    
   224  112  114 am   BACKBONE|DICT|INTERRES
   225  114  115 1    
   226  114  235 1    
   227  115  116 1    
   228  115  117 1    
   229  115  236 1    
   230  116  237 1    
   231  116  238 1    
   232  116  239 1    
   233  117  118 2    
   234  117  119 am   BACKBONE|DICT|INTERRES
   235  119  120 1    
   236  119  240 1    
   237  120  121 1    
   238  120  124 1    
   239  120  241 1    
   240  121  122 am   BACKBONE|DICT|INTERRES
   241  121  123 2    
   242  122  242 1    
   243  122  243 1    
   244  124  125 1    
   245  124  244 1    
   246  124  245 1    
   247  125  126 1    
   248  126  246 1    
   249  126  247 1    
@<TRIPOS>SUBSTRUCTURE
     1 UNK         1 GROUP             0       ****    0 ROOT    
