@<TRIPOS>MOLECULE
3R540
247   249    1
SMALL
USER_CHARGES


@<TRIPOS>ATOM
      1 CA          6.9084  -12.3869  -47.6480 C.3       0 UNK        -0.1800 
      2 C           5.4237  -12.4685  -47.9748 C.2       0 UNK         0.5000 
      3 O           4.9639  -11.7578  -48.8675 O.2       0 UNK        -0.5000 
      4 N           4.6943  -13.3256  -47.2436 N.am      1 UNK        -0.5000 
      5 CA          3.2582  -13.6282  -47.3509 C.3       1 UNK         0.1400 
      6 C6          2.9162  -14.7343  -48.3895 C.3       23 UNK        -0.0398 
      7 S7          3.2433  -14.3656  -50.1499 S.3       23 UNK        -0.2404 
      8 C8          4.3487  -15.7343  -50.6354 C.3       23 UNK        -0.0205 
      9 C9          3.7284  -17.1191  -50.4616 C.ar      23 UNK        -0.0193 
     10 C10         2.4549  -17.4099  -50.9677 C.ar      23 UNK        -0.1150 
     11 C11         1.8943  -18.6792  -50.7933 C.ar      23 UNK        -0.0193 
     12 C12         2.6298  -19.6717  -50.1421 C.ar      23 UNK        -0.1150 
     13 C13         3.8984  -19.3961  -49.6305 C.ar      23 UNK        -0.0193 
     14 C14         4.4434  -18.1193  -49.7928 C.ar      23 UNK        -0.1150 
     15 C15         4.6600  -20.4798  -48.8877 C.3       23 UNK        -0.0205 
     16 S16         4.1842  -20.5230  -47.1320 S.3       23 UNK        -0.2404 
     17 C17         4.9115  -22.1172  -46.6213 C.3       23 UNK        -0.0398 
     18 CA          3.8966  -23.2634  -46.3749 C.3       11 UNK         0.1400 
     19 N           2.9276  -22.9583  -45.3164 N.am      11 UNK        -0.5000 
     20 C           2.5274  -23.8451  -44.3929 C.2       10 UNK         0.5000 
     21 O           2.9379  -25.0046  -44.3345 O.2       10 UNK        -0.5000 
     22 CA          1.4966  -23.3680  -43.3518 C.3       10 UNK         0.1400 
     23 CB          2.1992  -22.6576  -42.1849 C.3       10 UNK        -0.1800 
     24 N           0.4745  -22.4820  -43.9043 N.am      10 UNK        -0.5000 
     25 C          -0.4461  -22.8426  -44.8088 C.2       9 UNK         0.5000 
     26 O          -0.5426  -23.9770  -45.2748 O.2       9 UNK        -0.5000 
     27 CA         -1.3899  -21.7349  -45.3128 C.3       9 UNK         0.1400 
     28 CB         -2.6721  -21.6955  -44.4742 C.3       9 UNK        -0.1800 
     29 N          -0.7793  -20.4018  -45.3332 N.am      9 UNK        -0.5000 
     30 C           0.3185  -20.0809  -46.0347 C.2       8 UNK         0.5000 
     31 O           0.9344  -20.8987  -46.7164 O.2       8 UNK        -0.5000 
     32 CA          0.8320  -18.6321  -45.9623 C.3       8 UNK         0.1400 
     33 CB          0.9157  -18.0097  -47.3587 C.3       8 UNK        -0.1800 
     34 N           0.0176  -17.7701  -45.1062 N.am      8 UNK        -0.5000 
     35 C           0.2133  -17.6191  -43.7905 C.2       7 UNK         0.5000 
     36 O           1.0753  -18.2252  -43.1536 O.2       7 UNK        -0.5000 
     37 CA         -0.7105  -16.6295  -43.0604 C.3       7 UNK         0.1400 
     38 CB         -0.0462  -15.2469  -42.9740 C.3       7 UNK        -0.1800 
     39 N          -2.0350  -16.4942  -43.6741 N.am      7 UNK        -0.5000 
     40 C          -2.9780  -17.4461  -43.6310 C.2       6 UNK         0.5000 
     41 O          -2.7761  -18.5727  -43.1781 O.2       6 UNK        -0.5000 
     42 CA         -4.3725  -17.0919  -44.1668 C.3       6 UNK         0.1400 
     43 CB         -5.1658  -16.2750  -43.1335 C.3       6 UNK        -0.1800 
     44 N          -4.3128  -16.3604  -45.4317 N.am      6 UNK        -0.5000 
     45 C          -5.1656  -16.5554  -46.4477 C.2       5 UNK         0.5000 
     46 O          -6.1181  -17.3332  -46.3927 O.2       5 UNK        -0.5000 
     47 CA         -4.9563  -15.7452  -47.7453 C.3       5 UNK         0.1400 
     48 CB         -6.0831  -14.7150  -47.9246 C.3       5 UNK        -0.1800 
     49 N          -3.6724  -15.0482  -47.8434 N.am      5 UNK        -0.5000 
     50 C          -2.4767  -15.6440  -47.9226 C.2       4 UNK         0.5000 
     51 O          -2.3194  -16.8602  -47.9108 O.2       4 UNK        -0.5000 
     52 CA         -1.2380  -14.7357  -47.9887 C.3       4 UNK         0.1400 
     53 CB         -0.8873  -14.4590  -49.4597 C.3       4 UNK        -0.1800 
     54 N          -1.3303  -13.4657  -47.2565 N.am      4 UNK        -0.5000 
     55 C          -1.7372  -13.2915  -45.9890 C.2       3 UNK         0.5000 
     56 O          -2.1938  -14.1942  -45.2836 O.2       3 UNK        -0.5000 
     57 CA         -1.5537  -11.8771  -45.4158 C.3       3 UNK         0.1400 
     58 CB         -1.9592  -11.7648  -43.9349 C.3       3 UNK        -0.1800 
     59 N          -0.1523  -11.4932  -45.5672 N.am      3 UNK        -0.5000 
     60 C           0.2916  -10.3434  -46.0882 C.2       2 UNK         0.5000 
     61 O          -0.4451   -9.4178  -46.4311 O.2       2 UNK        -0.5000 
     62 CA          1.8184  -10.2060  -46.2789 C.3       2 UNK         0.1400 
     63 CB          2.4333   -9.4117  -45.1164 C.3       2 UNK        -0.1800 
     64 N           2.5391  -11.4785  -46.4166 N.am      2 UNK        -0.5000 
     65 C           2.3469  -12.3769  -47.3947 C.2       1 UNK         0.5000 
     66 O           1.4952  -12.2431  -48.2731 O.2       1 UNK        -0.5000 
     67 C           3.1986  -23.7443  -47.6639 C.2       11 UNK         0.5000 
     68 O           3.7694  -24.5720  -48.3757 O.2       11 UNK        -0.5000 
     69 N           1.9788  -23.2535  -47.9354 N.am      12 UNK        -0.5000 
     70 CA          1.1401  -23.6965  -49.0510 C.3       12 UNK         0.1400 
     71 CB         -0.0483  -22.7392  -49.2181 C.3       12 UNK        -0.1800 
     72 C           0.6332  -25.1380  -48.8675 C.2       12 UNK         0.5000 
     73 O           0.5953  -25.8924  -49.8389 O.2       12 UNK        -0.5000 
     74 N           0.2423  -25.4838  -47.6307 N.am      13 UNK        -0.5000 
     75 CA         -0.1931  -26.7910  -47.1164 C.3       13 UNK         0.1400 
     76 CB          0.9441  -27.8229  -47.2388 C.3       13 UNK        -0.1800 
     77 C          -1.5114  -27.3535  -47.6934 C.2       13 UNK         0.5000 
     78 O          -2.1321  -28.1955  -47.0431 O.2       13 UNK        -0.5000 
     79 N          -1.9148  -26.9050  -48.8879 N.am      14 UNK        -0.5000 
     80 CA         -3.0609  -27.4000  -49.6513 C.3       14 UNK         0.1400 
     81 CB         -3.0454  -26.7454  -51.0413 C.3       14 UNK        -0.1800 
     82 C          -4.4267  -27.1760  -48.9769 C.2       14 UNK         0.5000 
     83 O          -5.3060  -28.0295  -49.1035 O.2       14 UNK        -0.5000 
     84 N          -4.5872  -26.0399  -48.2886 N.am      15 UNK        -0.5000 
     85 CA         -5.8197  -25.6201  -47.6285 C.3       15 UNK         0.1400 
     86 CB         -6.8717  -25.2055  -48.6792 C.3       15 UNK        -0.1800 
     87 C          -5.5192  -24.4391  -46.6985 C.2       15 UNK         0.5000 
     88 O          -4.4945  -23.7718  -46.8643 O.2       15 UNK        -0.5000 
     89 N          -6.4609  -24.1497  -45.7903 N.am      16 UNK        -0.5000 
     90 CA         -6.4423  -22.9910  -44.8882 C.3       16 UNK         0.1400 
     91 CB         -7.5982  -23.1205  -43.8847 C.3       16 UNK        -0.1800 
     92 C          -6.5129  -21.6331  -45.6195 C.2       16 UNK         0.5000 
     93 O          -6.0611  -20.6275  -45.0750 O.2       16 UNK        -0.5000 
     94 N          -7.0491  -21.6402  -46.8484 N.am      17 UNK        -0.5000 
     95 CA         -7.0685  -20.5067  -47.7754 C.3       17 UNK         0.1400 
     96 CB         -8.2101  -20.7238  -48.7828 C.3       17 UNK        -0.1800 
     97 C          -5.7302  -20.3030  -48.5191 C.2       17 UNK         0.5000 
     98 O          -5.6257  -19.3665  -49.3128 O.2       17 UNK        -0.5000 
     99 N          -4.7550  -21.2012  -48.3009 N.am      18 UNK        -0.5000 
    100 CA        -3.4139  -21.2193  -48.8908 C.3       18 UNK         0.1400 
    101 CB        -2.6016  -20.0072  -48.4019 C.3       18 UNK        -0.1800 
    102 C         -3.4486  -21.3263  -50.4272 C.2       18 UNK         0.5000 
    103 O         -2.7740  -20.5618  -51.1154 O.2       18 UNK        -0.5000 
    104 N         -4.2834  -22.2470  -50.9349 N.am      19 UNK        -0.5000 
    105 CA        -4.5747  -22.4626  -52.3596 C.3       19 UNK         0.1400 
    106 CB        -3.3324  -23.0115  -53.0947 C.3       19 UNK        -0.1800 
    107 C         -5.1649  -21.2028  -53.0341 C.2       19 UNK         0.5000 
    108 O         -4.7902  -20.8697  -54.1591 O.2       19 UNK        -0.5000 
    109 N         -6.0552  -20.5147  -52.3006 N.am      20 UNK        -0.5000 
    110 CA        -6.6580  -19.2150  -52.6160 C.3       20 UNK         0.1400 
    111 CB        -7.5842  -19.3154  -53.8460 C.3       20 UNK        -0.1800 
    112 C         -5.5850  -18.1152  -52.7438 C.2       20 UNK         0.5000 
    113 O         -5.4738  -17.4680  -53.7877 O.2       20 UNK        -0.5000 
    114 N         -4.7790  -17.9703  -51.6803 N.am      21 UNK        -0.5000 
    115 CA        -3.6364  -17.0560  -51.5483 C.3       21 UNK         0.1400 
    116 CB        -4.1357  -15.5979  -51.4734 C.3       21 UNK        -0.1800 
    117 C         -2.5640  -17.2503  -52.6454 C.2       21 UNK         0.5000 
    118 O         -1.9126  -16.2848  -53.0474 O.2       21 UNK        -0.5000 
    119 N         -2.4236  -18.4924  -53.1264 N.am      22 UNK        -0.5000 
    120 CA        -1.6168  -18.9056  -54.2867 C.3       22 UNK         0.1400 
    121 C         -2.0468  -18.2585  -55.6423 C.2       22 UNK         0.5000 
    122 N         -3.2558  -17.7234  -55.7745 N.am      22 UNK        -0.7600 
    123 O         -1.2884  -18.2671  -56.6086 O.2       22 UNK        -0.5000 
    124 C124       -0.0863  -18.8173  -54.0191 C.3       23 UNK        -0.0398 
    125 S125        0.4437  -20.0095  -52.7431 S.3       23 UNK        -0.2404 
    126 C126        0.4753  -18.9753  -51.2477 C.3       23 UNK        -0.0205 
    127 H127        7.4997  -12.6489  -48.5254 H         1 UNK         0.0600 
    128 H128        7.1855  -13.0623  -46.8382 H         1 UNK         0.0600 
    129 H129        7.1716  -11.3722  -47.3490 H         1 UNK         0.0600 
    130 H130        5.1746  -13.8484  -46.5247 H         1 UNK         0.3000 
    131 H131        3.0187  -14.0761  -46.3848 H         1 UNK         0.0600 
    132 H132        3.4531  -15.6427  -48.1146 H         1 UNK         0.0800 
    133 H133        1.8624  -14.9953  -48.3107 H         1 UNK         0.0800 
    134 H134        4.6239  -15.6062  -51.6829 H         1 UNK         0.0800 
    135 H135        5.2732  -15.6487  -50.0620 H         1 UNK         0.0800 
    136 H136        1.8909  -16.6400  -51.4753 H         1 UNK         0.1150 
    137 H137        2.2013  -20.6531  -50.0013 H         1 UNK         0.1150 
    138 H138        5.4244  -17.9054  -49.3925 H         1 UNK         0.1150 
    139 H139        4.4563  -21.4476  -49.3489 H         1 UNK         0.0800 
    140 H140        5.7355  -20.3160  -48.9700 H         1 UNK         0.0800 
    141 H141        5.4690  -21.9366  -45.7015 H         1 UNK         0.0800 
    142 H142        5.6607  -22.4294  -47.3510 H         1 UNK         0.0800 
    143 H143        4.5033  -24.1102  -46.0463 H         1 UNK         0.0600 
    144 H144        2.5147  -22.0359  -45.3377 H         1 UNK         0.3000 
    145 H145        0.9927  -24.2529  -42.9573 H         1 UNK         0.0600 
    146 H146        1.4911  -22.3963  -41.3983 H         1 UNK         0.0600 
    147 H147        2.6936  -21.7410  -42.5097 H         1 UNK         0.0600 
    148 H148        2.9587  -23.2997  -41.7367 H         1 UNK         0.0600 
    149 H149        0.4840  -21.5228  -43.5896 H         1 UNK         0.3000 
    150 H150       -1.6682  -21.9882  -46.3362 H         1 UNK         0.0600 
    151 H151       -3.1603  -22.6703  -44.4692 H         1 UNK         0.0600 
    152 H152       -3.3825  -20.9756  -44.8802 H         1 UNK         0.0600 
    153 H153       -2.4698  -21.4203  -43.4385 H         1 UNK         0.0600 
    154 H154       -1.2288  -19.6865  -44.7781 H         1 UNK         0.3000 
    155 H155        1.8485  -18.6755  -45.5654 H         1 UNK         0.0600 
    156 H156        1.6603  -18.5327  -47.9527 H         1 UNK         0.0600 
    157 H157        1.2265  -16.9691  -47.3076 H         1 UNK         0.0600 
    158 H158       -0.0313  -18.0656  -47.8942 H         1 UNK         0.0600 
    159 H159       -0.7381  -17.2668  -45.5485 H         1 UNK         0.3000 
    160 H160       -0.8472  -17.0006  -42.0423 H         1 UNK         0.0600 
    161 H161        0.1287  -14.8202  -43.9619 H         1 UNK         0.0600 
    162 H162        0.9187  -15.3083  -42.4691 H         1 UNK         0.0600 
    163 H163       -0.6635  -14.5498  -42.4078 H         1 UNK         0.0600 
    164 H164       -2.2394  -15.5924  -44.0974 H         1 UNK         0.3000 
    165 H165       -4.8888  -18.0431  -44.3166 H         1 UNK         0.0600 
    166 H166       -6.1929  -16.1172  -43.4627 H         1 UNK         0.0600 
    167 H167       -5.2080  -16.7921  -42.1740 H         1 UNK         0.0600 
    168 H168       -4.7147  -15.2967  -42.9627 H         1 UNK         0.0600 
    169 H169       -3.5602  -15.6907  -45.5461 H         1 UNK         0.3000 
    170 H170       -5.0104  -16.4617  -48.5676 H         1 UNK         0.0600 
    171 H171       -6.0773  -13.9729  -47.1254 H         1 UNK         0.0600 
    172 H172       -5.9924  -14.1875  -48.8741 H         1 UNK         0.0600 
    173 H173       -7.0611  -15.1981  -47.9169 H         1 UNK         0.0600 
    174 H174       -3.7031  -14.0397  -47.8319 H         1 UNK         0.3000 
    175 H175       -0.4163  -15.2933  -47.5394 H         1 UNK         0.0600 
    176 H176       -1.6281  -13.8139  -49.9323 H         1 UNK         0.0600 
    177 H177        0.0815  -13.9740  -49.5604 H         1 UNK         0.0600 
    178 H178       -0.8387  -15.3844  -50.0363 H         1 UNK         0.0600 
    179 H179       -0.9333  -12.6659  -47.7316 H         1 UNK         0.3000 
    180 H180       -2.2000  -11.2182  -45.9992 H         1 UNK         0.0600 
    181 H181       -1.8620  -10.7389  -43.5796 H         1 UNK         0.0600 
    182 H182       -1.3403  -12.3974  -43.2986 H         1 UNK         0.0600 
    183 H183       -2.9981  -12.0625  -43.7880 H         1 UNK         0.0600 
    184 H184        0.5284  -12.2000  -45.3297 H         1 UNK         0.3000 
    185 H185        1.9771   -9.6404  -47.1994 H         1 UNK         0.0600 
    186 H186        3.4930   -9.2196  -45.2858 H         1 UNK         0.0600 
    187 H187        1.9442   -8.4433  -45.0018 H         1 UNK         0.0600 
    188 H188        2.3339   -9.9435  -44.1694 H         1 UNK         0.0600 
    189 H189        3.2686  -11.6541  -45.7408 H         1 UNK         0.3000 
    190 H190        1.6039  -22.5071  -47.3542 H         1 UNK         0.3000 
    191 H191        1.7389  -23.6603  -49.9635 H         1 UNK         0.0600 
    192 H192        0.2831  -21.7167  -49.3905 H         1 UNK         0.0600 
    193 H193       -0.6784  -22.7370  -48.3302 H         1 UNK         0.0600 
    194 H194       -0.6695  -23.0264  -50.0675 H         1 UNK         0.0600 
    195 H195        0.2409  -24.7577  -46.9206 H         1 UNK         0.3000 
    196 H196       -0.3763  -26.6352  -46.0523 H         1 UNK         0.0600 
    197 H197        1.8547  -27.4624  -46.7596 H         1 UNK         0.0600 
    198 H198        1.1785  -28.0481  -48.2796 H         1 UNK         0.0600 
    199 H199        0.6731  -28.7624  -46.7556 H         1 UNK         0.0600 
    200 H200       -1.2785  -26.2853  -49.3760 H         1 UNK         0.3000 
    201 H201       -2.9303  -28.4765  -49.7792 H         1 UNK         0.0600 
    202 H202       -2.1191  -26.9656  -51.5724 H         1 UNK         0.0600 
    203 H203       -3.1435  -25.6617  -50.9720 H         1 UNK         0.0600 
    204 H204       -3.8680  -27.1116  -51.6571 H         1 UNK         0.0600 
    205 H205       -3.8091  -25.4027  -48.1744 H         1 UNK         0.3000 
    206 H206       -6.2001  -26.4473  -47.0256 H         1 UNK         0.0600 
    207 H207       -6.5112  -24.3911  -49.3087 H         1 UNK         0.0600 
    208 H208       -7.1367  -26.0365  -49.3326 H         1 UNK         0.0600 
    209 H209       -7.7958  -24.8714  -48.2064 H         1 UNK         0.0600 
    210 H210       -7.2730  -24.7472  -45.7253 H         1 UNK         0.3000 
    211 H211       -5.5046  -23.0148  -44.3309 H         1 UNK         0.0600 
    212 H212       -8.5674  -23.1250  -44.3851 H         1 UNK         0.0600 
    213 H213       -7.5974  -22.2890  -43.1785 H         1 UNK         0.0600 
    214 H214       -7.5151  -24.0384  -43.3026 H         1 UNK         0.0600 
    215 H215       -7.4201  -22.5110  -47.1970 H         1 UNK         0.3000 
    216 H216       -7.2755  -19.5939  -47.2145 H         1 UNK         0.0600 
    217 H217       -8.3010  -19.8759  -49.4631 H         1 UNK         0.0600 
    218 H218       -9.1685  -20.8301  -48.2743 H         1 UNK         0.0600 
    219 H219       -8.0505  -21.6167  -49.3885 H         1 UNK         0.0600 
    220 H220       -4.9333  -21.9519  -47.6432 H         1 UNK         0.3000 
    221 H221       -2.9317  -22.1238  -48.5212 H         1 UNK         0.0600 
    222 H222       -2.9404  -19.0923  -48.8853 H         1 UNK         0.0600 
    223 H223       -2.6976  -19.8647  -47.3264 H         1 UNK         0.0600 
    224 H224       -1.5423  -20.1242  -48.6282 H         1 UNK         0.0600 
    225 H225       -4.8066  -22.8173  -50.2871 H         1 UNK         0.3000 
    226 H226       -5.3508  -23.2278  -52.4066 H         1 UNK         0.0600 
    227 H227       -2.9350  -23.8950  -52.5968 H         1 UNK         0.0600 
    228 H228       -3.5799  -23.3001  -54.1167 H         1 UNK         0.0600 
    229 H229       -2.5321  -22.2727  -53.1503 H         1 UNK         0.0600 
    230 H230       -6.2485  -20.8584  -51.3718 H         1 UNK         0.3000 
    231 H231       -7.2780  -18.9433  -51.7603 H         1 UNK         0.0600 
    232 H232       -8.1056  -18.3728  -54.0162 H         1 UNK         0.0600 
    233 H233       -8.3426  -20.0855  -53.7057 H         1 UNK         0.0600 
    234 H234       -7.0325  -19.5501  -54.7567 H         1 UNK         0.0600 
    235 H235       -4.9611  -18.5563  -50.8675 H         1 UNK         0.3000 
    236 H236       -3.1562  -17.2994  -50.5999 H         1 UNK         0.0600 
    237 H237       -4.5314  -15.2587  -52.4313 H         1 UNK         0.0600 
    238 H238       -4.9247  -15.4837  -50.7322 H         1 UNK         0.0600 
    239 H239       -3.3287  -14.9204  -51.1971 H         1 UNK         0.0600 
    240 H240       -2.9273  -19.2399  -52.6611 H         1 UNK         0.3000 
    241 H241       -1.8547  -19.9608  -54.4260 H         1 UNK         0.0600 
    242 H242       -3.9149  -17.7144  -55.0019 H         1 UNK         0.3800 
    243 H243       -3.5230  -17.3211  -56.6582 H         1 UNK         0.3800 
    244 H244        0.2142  -17.8045  -53.7484 H         1 UNK         0.0800 
    245 H245        0.4781  -19.0648  -54.9191 H         1 UNK         0.0800 
    246 H246       -0.0539  -19.5015  -50.4528 H         1 UNK         0.0800 
    247 H247       -0.0755  -18.0483  -51.4037 H         1 UNK         0.0800 
@<TRIPOS>BOND
     1    1    2 1    
     2    1  127 1    
     3    1  128 1    
     4    1  129 1    
     5    2    3 2    
     6    2    4 am   BACKBONE|DICT|INTERRES
     7    4    5 1    
     8    4  130 1    
     9    5    6 1    
    10    5   65 1    
    11    5  131 1    
    12    6    7 1    
    13    6  132 1    
    14    6  133 1    
    15    7    8 1    
    16    8    9 1    
    17    8  134 1    
    18    8  135 1    
    19    9   10 ar   
    20    9   14 ar   
    21   10   11 ar   
    22   10  136 1    
    23   11   12 ar   
    24   11  126 1    
    25   12   13 ar   
    26   12  137 1    
    27   13   14 ar   
    28   13   15 1    
    29   14  138 1    
    30   15   16 1    
    31   15  139 1    
    32   15  140 1    
    33   16   17 1    
    34   17   18 1    
    35   17  141 1    
    36   17  142 1    
    37   18   19 1    
    38   18   67 1    
    39   18  143 1    
    40   19   20 am   BACKBONE|DICT|INTERRES
    41   19  144 1    
    42   20   21 2    
    43   20   22 1    
    44   22   23 1    
    45   22   24 1    
    46   22  145 1    
    47   23  146 1    
    48   23  147 1    
    49   23  148 1    
    50   24   25 am   BACKBONE|DICT|INTERRES
    51   24  149 1    
    52   25   26 2    
    53   25   27 1    
    54   27   28 1    
    55   27   29 1    
    56   27  150 1    
    57   28  151 1    
    58   28  152 1    
    59   28  153 1    
    60   29   30 am   BACKBONE|DICT|INTERRES
    61   29  154 1    
    62   30   31 2    
    63   30   32 1    
    64   32   33 1    
    65   32   34 1    
    66   32  155 1    
    67   33  156 1    
    68   33  157 1    
    69   33  158 1    
    70   34   35 am   BACKBONE|DICT|INTERRES
    71   34  159 1    
    72   35   36 2    
    73   35   37 1    
    74   37   38 1    
    75   37   39 1    
    76   37  160 1    
    77   38  161 1    
    78   38  162 1    
    79   38  163 1    
    80   39   40 am   BACKBONE|DICT|INTERRES
    81   39  164 1    
    82   40   41 2    
    83   40   42 1    
    84   42   43 1    
    85   42   44 1    
    86   42  165 1    
    87   43  166 1    
    88   43  167 1    
    89   43  168 1    
    90   44   45 am   BACKBONE|DICT|INTERRES
    91   44  169 1    
    92   45   46 2    
    93   45   47 1    
    94   47   48 1    
    95   47   49 1    
    96   47  170 1    
    97   48  171 1    
    98   48  172 1    
    99   48  173 1    
   100   49   50 am   BACKBONE|DICT|INTERRES
   101   49  174 1    
   102   50   51 2    
   103   50   52 1    
   104   52   53 1    
   105   52   54 1    
   106   52  175 1    
   107   53  176 1    
   108   53  177 1    
   109   53  178 1    
   110   54   55 am   BACKBONE|DICT|INTERRES
   111   54  179 1    
   112   55   56 2    
   113   55   57 1    
   114   57   58 1    
   115   57   59 1    
   116   57  180 1    
   117   58  181 1    
   118   58  182 1    
   119   58  183 1    
   120   59   60 am   BACKBONE|DICT|INTERRES
   121   59  184 1    
   122   60   61 2    
   123   60   62 1    
   124   62   63 1    
   125   62   64 1    
   126   62  185 1    
   127   63  186 1    
   128   63  187 1    
   129   63  188 1    
   130   64   65 am   BACKBONE|DICT|INTERRES
   131   64  189 1    
   132   65   66 2    
   133   67   68 2    
   134   67   69 am   BACKBONE|DICT|INTERRES
   135   69   70 1    
   136   69  190 1    
   137   70   71 1    
   138   70   72 1    
   139   70  191 1    
   140   71  192 1    
   141   71  193 1    
   142   71  194 1    
   143   72   73 2    
   144   72   74 am   BACKBONE|DICT|INTERRES
   145   74   75 1    
   146   74  195 1    
   147   75   76 1    
   148   75   77 1    
   149   75  196 1    
   150   76  197 1    
   151   76  198 1    
   152   76  199 1    
   153   77   78 2    
   154   77   79 am   BACKBONE|DICT|INTERRES
   155   79   80 1    
   156   79  200 1    
   157   80   81 1    
   158   80   82 1    
   159   80  201 1    
   160   81  202 1    
   161   81  203 1    
   162   81  204 1    
   163   82   83 2    
   164   82   84 am   BACKBONE|DICT|INTERRES
   165   84   85 1    
   166   84  205 1    
   167   85   86 1    
   168   85   87 1    
   169   85  206 1    
   170   86  207 1    
   171   86  208 1    
   172   86  209 1    
   173   87   88 2    
   174   87   89 am   BACKBONE|DICT|INTERRES
   175   89   90 1    
   176   89  210 1    
   177   90   91 1    
   178   90   92 1    
   179   90  211 1    
   180   91  212 1    
   181   91  213 1    
   182   91  214 1    
   183   92   93 2    
   184   92   94 am   BACKBONE|DICT|INTERRES
   185   94   95 1    
   186   94  215 1    
   187   95   96 1    
   188   95   97 1    
   189   95  216 1    
   190   96  217 1    
   191   96  218 1    
   192   96  219 1    
   193   97   98 2    
   194   97   99 am   BACKBONE|DICT|INTERRES
   195   99  100 1    
   196   99  220 1    
   197  100  101 1    
   198  100  102 1    
   199  100  221 1    
   200  101  222 1    
   201  101  223 1    
   202  101  224 1    
   203  102  103 2    
   204  102  104 am   BACKBONE|DICT|INTERRES
   205  104  105 1    
   206  104  225 1    
   207  105  106 1    
   208  105  107 1    
   209  105  226 1    
   210  106  227 1    
   211  106  228 1    
   212  106  229 1    
   213  107  108 2    
   214  107  109 am   BACKBONE|DICT|INTERRES
   215  109  110 1    
   216  109  230 1    
   217  110  111 1    
   218  110  112 1    
   219  110  231 1    
   220  111  232 1    
   221  111  233 1    
   222  111  234 1    
   223  112  113 2    
   224  112  114 am   BACKBONE|DICT|INTERRES
   225  114  115 1    
   226  114  235 1    
   227  115  116 1    
   228  115  117 1    
   229  115  236 1    
   230  116  237 1    
   231  116  238 1    
   232  116  239 1    
   233  117  118 2    
   234  117  119 am   BACKBONE|DICT|INTERRES
   235  119  120 1    
   236  119  240 1    
   237  120  121 1    
   238  120  124 1    
   239  120  241 1    
   240  121  122 am   BACKBONE|DICT|INTERRES
   241  121  123 2    
   242  122  242 1    
   243  122  243 1    
   244  124  125 1    
   245  124  244 1    
   246  124  245 1    
   247  125  126 1    
   248  126  246 1    
   249  126  247 1    
@<TRIPOS>SUBSTRUCTURE
     1 UNK         1 GROUP             0       ****    0 ROOT    
