@<TRIPOS>MOLECULE
3R540
247   249    1
SMALL
USER_CHARGES


@<TRIPOS>ATOM
      1 CA          0.8600  -15.3162  -46.7317 C.3       0 UNK        -0.1800 
      2 C           0.4452  -14.0392  -47.4549 C.2       0 UNK         0.5000 
      3 O           1.3124  -13.2771  -47.8756 O.2       0 UNK        -0.5000 
      4 N          -0.8518  -13.7570  -47.6291 N.am      1 UNK        -0.5000 
      5 CA         -2.0115  -14.5215  -47.1604 C.3       1 UNK         0.1400 
      6 C6         -3.0457  -14.7325  -48.2997 C.3       23 UNK        -0.0398 
      7 S7         -2.7369  -16.3059  -49.1622 S.3       23 UNK        -0.2404 
      8 C8         -1.6135  -15.8422  -50.5135 C.3       23 UNK        -0.0205 
      9 C9         -0.6821  -17.0019  -50.8351 C.ar      23 UNK        -0.0193 
     10 C10        -1.1140  -18.0614  -51.6409 C.ar      23 UNK        -0.1150 
     11 C11        -0.2776  -19.1570  -51.8794 C.ar      23 UNK        -0.0193 
     12 C12         1.0056  -19.1763  -51.3254 C.ar      23 UNK        -0.1150 
     13 C13         1.4527  -18.1193  -50.5293 C.ar      23 UNK        -0.0193 
     14 C14         0.6053  -17.0330  -50.2921 C.ar      23 UNK        -0.1150 
     15 C15         2.8475  -18.1533  -49.9182 C.3       23 UNK        -0.0205 
     16 S16         3.0293  -19.4435  -48.6406 S.3       23 UNK        -0.2404 
     17 C17         1.7633  -18.9592  -47.4209 C.3       23 UNK        -0.0398 
     18 CA          0.8469  -20.1482  -47.0237 C.3       11 UNK         0.1400 
     19 N           1.1797  -20.6717  -45.6947 N.am      11 UNK        -0.5000 
     20 C           0.6656  -21.7846  -45.1540 C.2       10 UNK         0.5000 
     21 O          -0.0956  -22.5443  -45.7510 O.2       10 UNK        -0.5000 
     22 CA          1.0104  -22.0653  -43.6794 C.3       10 UNK         0.1400 
     23 CB          2.3824  -22.7431  -43.5518 C.3       10 UNK        -0.1800 
     24 N           0.9710  -20.8545  -42.8560 N.am      10 UNK        -0.5000 
     25 C          -0.1385  -20.1363  -42.6264 C.2       9 UNK         0.5000 
     26 O          -1.2540  -20.4639  -43.0277 O.2       9 UNK        -0.5000 
     27 CA          0.0271  -18.8075  -41.8667 C.3       9 UNK         0.1400 
     28 CB          0.0755  -19.0500  -40.3504 C.3       9 UNK        -0.1800 
     29 N           1.2159  -18.0656  -42.2844 N.am      9 UNK        -0.5000 
     30 C           1.4289  -17.5821  -43.5166 C.2       8 UNK         0.5000 
     31 O           0.6147  -17.6682  -44.4349 O.2       8 UNK        -0.5000 
     32 CA          2.8170  -16.9742  -43.7897 C.3       8 UNK         0.1400 
     33 CB          2.9177  -15.5268  -43.2874 C.3       8 UNK        -0.1800 
     34 N           3.8815  -17.7753  -43.1872 N.am      8 UNK        -0.5000 
     35 C           4.2378  -18.9968  -43.6079 C.2       7 UNK         0.5000 
     36 O           3.7199  -19.5657  -44.5684 O.2       7 UNK        -0.5000 
     37 CA          5.3301  -19.7141  -42.7941 C.3       7 UNK         0.1400 
     38 CB          6.7267  -19.2816  -43.2644 C.3       7 UNK        -0.1800 
     39 N           5.2055  -19.4717  -41.3555 N.am      7 UNK        -0.5000 
     40 C           4.2063  -19.9426  -40.5960 C.2       6 UNK         0.5000 
     41 O           3.3028  -20.6599  -41.0248 O.2       6 UNK        -0.5000 
     42 CA          4.1864  -19.4877  -39.1234 C.3       6 UNK         0.1400 
     43 CB          5.1104  -20.3699  -38.2707 C.3       6 UNK        -0.1800 
     44 N           4.5537  -18.0776  -38.9457 N.am      6 UNK        -0.5000 
     45 C           3.8760  -17.0528  -39.4774 C.2       5 UNK         0.5000 
     46 O           2.8763  -17.1957  -40.1876 O.2       5 UNK        -0.5000 
     47 CA          4.4149  -15.6397  -39.2136 C.3       5 UNK         0.1400 
     48 CB          5.7214  -15.3925  -39.9907 C.3       5 UNK        -0.1800 
     49 N           3.3897  -14.7053  -39.6561 N.am      5 UNK        -0.5000 
     50 C           3.2607  -13.4147  -39.3406 C.2       4 UNK         0.5000 
     51 O           4.0417  -12.8054  -38.6088 O.2       4 UNK        -0.5000 
     52 CA          2.0505  -12.6796  -39.9531 C.3       4 UNK         0.1400 
     53 CB          2.4893  -11.8470  -41.1678 C.3       4 UNK        -0.1800 
     54 N           0.9753  -13.5829  -40.3751 N.am      4 UNK        -0.5000 
     55 C           0.1278  -14.2178  -39.5561 C.2       3 UNK         0.5000 
     56 O           0.1475  -14.0905  -38.3308 O.2       3 UNK        -0.5000 
     57 CA         -0.9199  -15.1302  -40.2326 C.3       3 UNK         0.1400 
     58 CB         -1.9051  -15.7593  -39.2317 C.3       3 UNK        -0.1800 
     59 N          -1.6808  -14.4295  -41.2723 N.am      3 UNK        -0.5000 
     60 C          -1.2425  -14.2130  -42.5164 C.2       2 UNK         0.5000 
     61 O          -0.1270  -14.5627  -42.9093 O.2       2 UNK        -0.5000 
     62 CA         -2.1726  -13.4599  -43.4753 C.3       2 UNK         0.1400 
     63 CB         -1.9733  -11.9391  -43.3524 C.3       2 UNK        -0.1800 
     64 N          -1.8340  -13.9107  -44.8174 N.am      2 UNK        -0.5000 
     65 C          -2.5850  -13.8151  -45.9177 C.2       1 UNK         0.5000 
     66 O          -3.6546  -13.2062  -45.9703 O.2       1 UNK        -0.5000 
     67 C          -0.6498  -19.7819  -47.1332 C.2       11 UNK         0.5000 
     68 O          -1.3017  -20.1801  -48.0975 O.2       11 UNK        -0.5000 
     69 N          -1.1788  -19.0785  -46.1214 N.am      12 UNK        -0.5000 
     70 CA         -2.5925  -18.7131  -46.0099 C.3       12 UNK         0.1400 
     71 CB         -2.7857  -17.7678  -44.8134 C.3       12 UNK        -0.1800 
     72 C          -3.5310  -19.9322  -45.9085 C.2       12 UNK         0.5000 
     73 O          -4.6244  -19.9011  -46.4725 O.2       12 UNK        -0.5000 
     74 N          -3.0839  -20.9908  -45.2191 N.am      13 UNK        -0.5000 
     75 CA         -3.7751  -22.2770  -45.1405 C.3       13 UNK         0.1400 
     76 CB         -3.1699  -23.1264  -44.0126 C.3       13 UNK        -0.1800 
     77 C          -3.7483  -23.0328  -46.4816 C.2       13 UNK         0.5000 
     78 O          -4.7869  -23.5326  -46.9135 O.2       13 UNK        -0.5000 
     79 N          -2.5779  -23.0748  -47.1364 N.am      14 UNK        -0.5000 
     80 CA         -2.3743  -23.6939  -48.4506 C.3       14 UNK         0.1400 
     81 CB         -0.8793  -23.6808  -48.8028 C.3       14 UNK        -0.1800 
     82 C          -3.1976  -23.0302  -49.5699 C.2       14 UNK         0.5000 
     83 O          -3.6685  -23.7225  -50.4729 O.2       14 UNK        -0.5000 
     84 N          -3.4062  -21.7112  -49.4628 N.am      15 UNK        -0.5000 
     85 CA         -4.2156  -20.8991  -50.3719 C.3       15 UNK         0.1400 
     86 CB         -4.0914  -19.4252  -49.9761 C.3       15 UNK        -0.1800 
     87 C          -5.6989  -21.3098  -50.4616 C.2       15 UNK         0.5000 
     88 O          -6.3542  -20.9559  -51.4404 O.2       15 UNK        -0.5000 
     89 N          -6.2033  -22.0842  -49.4895 N.am      16 UNK        -0.5000 
     90 CA         -7.5358  -22.6921  -49.5361 C.3       16 UNK         0.1400 
     91 CB         -7.8640  -23.3012  -48.1652 C.3       16 UNK        -0.1800 
     92 C          -7.6827  -23.7541  -50.6480 C.2       16 UNK         0.5000 
     93 O          -8.8038  -24.0090  -51.0889 O.2       16 UNK        -0.5000 
     94 N          -6.5604  -24.3427  -51.0870 N.am      17 UNK        -0.5000 
     95 CA         -6.4947  -25.3244  -52.1702 C.3       17 UNK         0.1400 
     96 CB         -5.4904  -26.4194  -51.7729 C.3       17 UNK        -0.1800 
     97 C          -6.1057  -24.6935  -53.5238 C.2       17 UNK         0.5000 
     98 O          -6.0635  -25.4120  -54.5239 O.2       17 UNK        -0.5000 
     99 N          -5.8121  -23.3850  -53.5486 N.am      18 UNK        -0.5000 
    100 CA        -5.4344  -22.6469  -54.7543 C.3       18 UNK         0.1400 
    101 CB        -4.7704  -21.3213  -54.3472 C.3       18 UNK        -0.1800 
    102 C         -6.6390  -22.3800  -55.6760 C.2       18 UNK         0.5000 
    103 O         -7.7859  -22.3658  -55.2204 O.2       18 UNK        -0.5000 
    104 N         -6.3373  -22.1340  -56.9524 N.am      19 UNK        -0.5000 
    105 CA        -7.2780  -21.7189  -57.9874 C.3       19 UNK         0.1400 
    106 CB        -7.5129  -22.8952  -58.9569 C.3       19 UNK        -0.1800 
    107 C         -6.7003  -20.4527  -58.6428 C.2       19 UNK         0.5000 
    108 O         -6.5076  -19.4540  -57.9469 O.2       19 UNK        -0.5000 
    109 N         -6.3889  -20.5121  -59.9454 N.am      20 UNK        -0.5000 
    110 CA        -5.6645  -19.4656  -60.6780 C.3       20 UNK         0.1400 
    111 CB        -5.7826  -19.7398  -62.1851 C.3       20 UNK        -0.1800 
    112 C         -4.1806  -19.3585  -60.2618 C.2       20 UNK         0.5000 
    113 O         -3.5623  -18.3120  -60.4599 O.2       20 UNK        -0.5000 
    114 N         -3.6509  -20.4388  -59.6805 N.am      21 UNK        -0.5000 
    115 CA        -2.3442  -20.5462  -59.0479 C.3       21 UNK         0.1400 
    116 CB        -1.3341  -21.1107  -60.0620 C.3       21 UNK        -0.1800 
    117 C         -2.4889  -21.4604  -57.8193 C.2       21 UNK         0.5000 
    118 O         -3.5531  -22.0561  -57.6171 O.2       21 UNK        -0.5000 
    119 N         -1.4191  -21.5627  -57.0238 N.am      22 UNK        -0.5000 
    120 CA        -1.3512  -22.3934  -55.8072 C.3       22 UNK         0.1400 
    121 C         -1.3719  -23.9332  -56.0499 C.2       22 UNK         0.5000 
    122 N         -1.1967  -24.4216  -57.2716 N.am      22 UNK        -0.7600 
    123 O         -1.5553  -24.6989  -55.1084 O.2       22 UNK        -0.5000 
    124 C124       -0.1481  -22.0063  -54.9101 C.3       23 UNK        -0.0398 
    125 S125       -0.1395  -20.2470  -54.4152 S.3       23 UNK        -0.2404 
    126 C126       -0.7571  -20.3402  -52.7052 C.3       23 UNK        -0.0205 
    127 H127        1.9321  -15.4856  -46.8328 H         1 UNK         0.0600 
    128 H128        0.3490  -16.1838  -47.1438 H         1 UNK         0.0600 
    129 H129        0.6298  -15.2451  -45.6699 H         1 UNK         0.0600 
    130 H130       -1.0844  -12.8840  -48.0811 H         1 UNK         0.3000 
    131 H131       -1.7155  -15.5072  -46.8024 H         1 UNK         0.0600 
    132 H132       -4.0626  -14.8084  -47.9109 H         1 UNK         0.0800 
    133 H133       -3.0561  -13.9011  -49.0061 H         1 UNK         0.0800 
    134 H134       -1.0341  -14.9609  -50.2354 H         1 UNK         0.0800 
    135 H135       -2.1957  -15.5674  -51.3942 H         1 UNK         0.0800 
    136 H136       -2.1119  -18.0454  -52.0558 H         1 UNK         0.1150 
    137 H137        1.6548  -20.0221  -51.5043 H         1 UNK         0.1150 
    138 H138        0.9415  -16.2167  -49.6690 H         1 UNK         0.1150 
    139 H139        3.5774  -18.3348  -50.7083 H         1 UNK         0.0800 
    140 H140        3.1037  -17.1857  -49.4834 H         1 UNK         0.0800 
    141 H141        1.1890  -18.1323  -47.8322 H         1 UNK         0.0800 
    142 H142        2.2697  -18.5384  -46.5532 H         1 UNK         0.0800 
    143 H143        1.0018  -20.9682  -47.7282 H         1 UNK         0.0600 
    144 H144        1.8457  -20.1337  -45.1507 H         1 UNK         0.3000 
    145 H145        0.2585  -22.7549  -43.2903 H         1 UNK         0.0600 
    146 H146        2.5986  -23.0021  -42.5152 H         1 UNK         0.0600 
    147 H147        2.4157  -23.6661  -44.1318 H         1 UNK         0.0600 
    148 H148        3.1869  -22.1018  -43.9106 H         1 UNK         0.0600 
    149 H149        1.8445  -20.5583  -42.4333 H         1 UNK         0.3000 
    150 H150       -0.8430  -18.1853  -42.0852 H         1 UNK         0.0600 
    151 H151       -0.8328  -19.5463  -40.0067 H         1 UNK         0.0600 
    152 H152        0.1643  -18.1149  -39.7984 H         1 UNK         0.0600 
    153 H153        0.9199  -19.6799  -40.0704 H         1 UNK         0.0600 
    154 H154        1.9271  -17.9137  -41.5730 H         1 UNK         0.3000 
    155 H155        2.9761  -16.9632  -44.8695 H         1 UNK         0.0600 
    156 H156        2.6086  -15.4358  -42.2475 H         1 UNK         0.0600 
    157 H157        2.2794  -14.8691  -43.8766 H         1 UNK         0.0600 
    158 H158        3.9345  -15.1434  -43.3723 H         1 UNK         0.0600 
    159 H159        4.3221  -17.4012  -42.3612 H         1 UNK         0.3000 
    160 H160        5.2273  -20.7869  -42.9710 H         1 UNK         0.0600 
    161 H161        6.9006  -18.2186  -43.0922 H         1 UNK         0.0600 
    162 H162        6.8528  -19.4663  -44.3321 H         1 UNK         0.0600 
    163 H163        7.5072  -19.8382  -42.7453 H         1 UNK         0.0600 
    164 H164        5.9084  -18.8900  -40.9241 H         1 UNK         0.3000 
    165 H165        3.1654  -19.6127  -38.7568 H         1 UNK         0.0600 
    166 H166        5.0304  -20.1178  -37.2131 H         1 UNK         0.0600 
    167 H167        4.8471  -21.4236  -38.3728 H         1 UNK         0.0600 
    168 H168        6.1554  -20.2625  -38.5639 H         1 UNK         0.0600 
    169 H169        5.3670  -17.8899  -38.3771 H         1 UNK         0.3000 
    170 H170        4.5808  -15.5191  -38.1414 H         1 UNK         0.0600 
    171 H171        6.5022  -16.0897  -39.6853 H         1 UNK         0.0600 
    172 H172        5.5773  -15.5078  -41.0658 H         1 UNK         0.0600 
    173 H173        6.1035  -14.3872  -39.8133 H         1 UNK         0.0600 
    174 H174        2.6673  -15.1458  -40.2114 H         1 UNK         0.3000 
    175 H175        1.6564  -12.0008  -39.1940 H         1 UNK         0.0600 
    176 H176        2.8819  -12.4779  -41.9665 H         1 UNK         0.0600 
    177 H177        1.6566  -11.2719  -41.5734 H         1 UNK         0.0600 
    178 H178        3.2713  -11.1373  -40.8945 H         1 UNK         0.0600 
    179 H179        0.8722  -13.7458  -41.3716 H         1 UNK         0.3000 
    180 H180       -0.3642  -15.9465  -40.6980 H         1 UNK         0.0600 
    181 H181       -2.5023  -15.0014  -38.7234 H         1 UNK         0.0600 
    182 H182       -1.3766  -16.3307  -38.4675 H         1 UNK         0.0600 
    183 H183       -2.5877  -16.4467  -39.7315 H         1 UNK         0.0600 
    184 H184       -2.5869  -14.0755  -41.0005 H         1 UNK         0.3000 
    185 H185       -3.2084  -13.7243  -43.2533 H         1 UNK         0.0600 
    186 H186       -2.6304  -11.3958  -44.0314 H         1 UNK         0.0600 
    187 H187       -2.1968  -11.5956  -42.3417 H         1 UNK         0.0600 
    188 H188       -0.9460  -11.6502  -43.5787 H         1 UNK         0.0600 
    189 H189       -0.9574  -14.4172  -44.8428 H         1 UNK         0.3000 
    190 H190       -0.5625  -18.7452  -45.3835 H         1 UNK         0.3000 
    191 H191       -2.8605  -18.1710  -46.9174 H         1 UNK         0.0600 
    192 H192       -3.8047  -17.3807  -44.7847 H         1 UNK         0.0600 
    193 H193       -2.1118  -16.9135  -44.8661 H         1 UNK         0.0600 
    194 H194       -2.6015  -18.2747  -43.8665 H         1 UNK         0.0600 
    195 H195       -2.2108  -20.9057  -44.7083 H         1 UNK         0.3000 
    196 H196       -4.8201  -22.0839  -44.8888 H         1 UNK         0.0600 
    197 H197       -2.1186  -23.3505  -44.1916 H         1 UNK         0.0600 
    198 H198       -3.2424  -22.6145  -43.0528 H         1 UNK         0.0600 
    199 H199       -3.6959  -24.0768  -43.9158 H         1 UNK         0.0600 
    200 H200       -1.7548  -22.6750  -46.6931 H         1 UNK         0.3000 
    201 H201       -2.6980  -24.7341  -48.3787 H         1 UNK         0.0600 
    202 H202       -0.2925  -24.2117  -48.0530 H         1 UNK         0.0600 
    203 H203       -0.4911  -22.6647  -48.8739 H         1 UNK         0.0600 
    204 H204       -0.6997  -24.1683  -49.7619 H         1 UNK         0.0600 
    205 H205       -2.9148  -21.2106  -48.7284 H         1 UNK         0.3000 
    206 H206       -3.7877  -21.0172  -51.3674 H         1 UNK         0.0600 
    207 H207       -3.0458  -19.1309  -49.9028 H         1 UNK         0.0600 
    208 H208       -4.5625  -18.7776  -50.7163 H         1 UNK         0.0600 
    209 H209       -4.5625  -19.2224  -49.0150 H         1 UNK         0.0600 
    210 H210       -5.6091  -22.3477  -48.7130 H         1 UNK         0.3000 
    211 H211       -8.2596  -21.8999  -49.7383 H         1 UNK         0.0600 
    212 H212       -8.8877  -23.6768  -48.1411 H         1 UNK         0.0600 
    213 H213       -7.7691  -22.5622  -47.3692 H         1 UNK         0.0600 
    214 H214       -7.2043  -24.1368  -47.9291 H         1 UNK         0.0600 
    215 H215       -5.6681  -24.0677  -50.6881 H         1 UNK         0.3000 
    216 H216       -7.4692  -25.7981  -52.3041 H         1 UNK         0.0600 
    217 H217       -4.4794  -26.0227  -51.6749 H         1 UNK         0.0600 
    218 H218       -5.4591  -27.2131  -52.5203 H         1 UNK         0.0600 
    219 H219       -5.7637  -26.8800  -50.8234 H         1 UNK         0.0600 
    220 H220       -5.9494  -22.8394  -52.7092 H         1 UNK         0.3000 
    221 H221       -4.7024  -23.2435  -55.3036 H         1 UNK         0.0600 
    222 H222       -3.9377  -21.4889  -53.6659 H         1 UNK         0.0600 
    223 H223       -5.4769  -20.6475  -53.8630 H         1 UNK         0.0600 
    224 H224       -4.3760  -20.7973  -55.2185 H         1 UNK         0.0600 
    225 H225       -5.3539  -22.1193  -57.2189 H         1 UNK         0.3000 
    226 H226       -8.2365  -21.4343  -57.5488 H         1 UNK         0.0600 
    227 H227       -7.9487  -23.7452  -58.4314 H         1 UNK         0.0600 
    228 H228       -8.2087  -22.6224  -59.7514 H         1 UNK         0.0600 
    229 H229       -6.5857  -23.2380  -59.4180 H         1 UNK         0.0600 
    230 H230       -6.5880  -21.3624  -60.4527 H         1 UNK         0.3000 
    231 H231       -6.1373  -18.5045  -60.4656 H         1 UNK         0.0600 
    232 H232       -5.3327  -20.6955  -62.4571 H         1 UNK         0.0600 
    233 H233       -5.2796  -18.9639  -62.7637 H         1 UNK         0.0600 
    234 H234       -6.8253  -19.7556  -62.5029 H         1 UNK         0.0600 
    235 H235       -4.2524  -21.2318  -59.5033 H         1 UNK         0.3000 
    236 H236       -2.0150  -19.5640  -58.7026 H         1 UNK         0.0600 
    237 H237       -1.2604  -20.4693  -60.9404 H         1 UNK         0.0600 
    238 H238       -0.3351  -21.1812  -59.6307 H         1 UNK         0.0600 
    239 H239       -1.6196  -22.1075  -60.4006 H         1 UNK         0.0600 
    240 H240       -0.5850  -21.0393  -57.2465 H         1 UNK         0.3000 
    241 H241       -2.2535  -22.1843  -55.2336 H         1 UNK         0.0600 
    242 H242       -1.2173  -25.4193  -57.4134 H         1 UNK         0.3800 
    243 H243       -1.0486  -23.8072  -58.0553 H         1 UNK         0.3800 
    244 H244        0.7864  -22.2068  -55.4367 H         1 UNK         0.0800 
    245 H245       -0.1194  -22.6298  -54.0151 H         1 UNK         0.0800 
    246 H246       -0.4201  -21.2599  -52.2250 H         1 UNK         0.0800 
    247 H247       -1.8465  -20.3826  -52.7201 H         1 UNK         0.0800 
@<TRIPOS>BOND
     1    1    2 1    
     2    1  127 1    
     3    1  128 1    
     4    1  129 1    
     5    2    3 2    
     6    2    4 am   BACKBONE|DICT|INTERRES
     7    4    5 1    
     8    4  130 1    
     9    5    6 1    
    10    5   65 1    
    11    5  131 1    
    12    6    7 1    
    13    6  132 1    
    14    6  133 1    
    15    7    8 1    
    16    8    9 1    
    17    8  134 1    
    18    8  135 1    
    19    9   10 ar   
    20    9   14 ar   
    21   10   11 ar   
    22   10  136 1    
    23   11   12 ar   
    24   11  126 1    
    25   12   13 ar   
    26   12  137 1    
    27   13   14 ar   
    28   13   15 1    
    29   14  138 1    
    30   15   16 1    
    31   15  139 1    
    32   15  140 1    
    33   16   17 1    
    34   17   18 1    
    35   17  141 1    
    36   17  142 1    
    37   18   19 1    
    38   18   67 1    
    39   18  143 1    
    40   19   20 am   BACKBONE|DICT|INTERRES
    41   19  144 1    
    42   20   21 2    
    43   20   22 1    
    44   22   23 1    
    45   22   24 1    
    46   22  145 1    
    47   23  146 1    
    48   23  147 1    
    49   23  148 1    
    50   24   25 am   BACKBONE|DICT|INTERRES
    51   24  149 1    
    52   25   26 2    
    53   25   27 1    
    54   27   28 1    
    55   27   29 1    
    56   27  150 1    
    57   28  151 1    
    58   28  152 1    
    59   28  153 1    
    60   29   30 am   BACKBONE|DICT|INTERRES
    61   29  154 1    
    62   30   31 2    
    63   30   32 1    
    64   32   33 1    
    65   32   34 1    
    66   32  155 1    
    67   33  156 1    
    68   33  157 1    
    69   33  158 1    
    70   34   35 am   BACKBONE|DICT|INTERRES
    71   34  159 1    
    72   35   36 2    
    73   35   37 1    
    74   37   38 1    
    75   37   39 1    
    76   37  160 1    
    77   38  161 1    
    78   38  162 1    
    79   38  163 1    
    80   39   40 am   BACKBONE|DICT|INTERRES
    81   39  164 1    
    82   40   41 2    
    83   40   42 1    
    84   42   43 1    
    85   42   44 1    
    86   42  165 1    
    87   43  166 1    
    88   43  167 1    
    89   43  168 1    
    90   44   45 am   BACKBONE|DICT|INTERRES
    91   44  169 1    
    92   45   46 2    
    93   45   47 1    
    94   47   48 1    
    95   47   49 1    
    96   47  170 1    
    97   48  171 1    
    98   48  172 1    
    99   48  173 1    
   100   49   50 am   BACKBONE|DICT|INTERRES
   101   49  174 1    
   102   50   51 2    
   103   50   52 1    
   104   52   53 1    
   105   52   54 1    
   106   52  175 1    
   107   53  176 1    
   108   53  177 1    
   109   53  178 1    
   110   54   55 am   BACKBONE|DICT|INTERRES
   111   54  179 1    
   112   55   56 2    
   113   55   57 1    
   114   57   58 1    
   115   57   59 1    
   116   57  180 1    
   117   58  181 1    
   118   58  182 1    
   119   58  183 1    
   120   59   60 am   BACKBONE|DICT|INTERRES
   121   59  184 1    
   122   60   61 2    
   123   60   62 1    
   124   62   63 1    
   125   62   64 1    
   126   62  185 1    
   127   63  186 1    
   128   63  187 1    
   129   63  188 1    
   130   64   65 am   BACKBONE|DICT|INTERRES
   131   64  189 1    
   132   65   66 2    
   133   67   68 2    
   134   67   69 am   BACKBONE|DICT|INTERRES
   135   69   70 1    
   136   69  190 1    
   137   70   71 1    
   138   70   72 1    
   139   70  191 1    
   140   71  192 1    
   141   71  193 1    
   142   71  194 1    
   143   72   73 2    
   144   72   74 am   BACKBONE|DICT|INTERRES
   145   74   75 1    
   146   74  195 1    
   147   75   76 1    
   148   75   77 1    
   149   75  196 1    
   150   76  197 1    
   151   76  198 1    
   152   76  199 1    
   153   77   78 2    
   154   77   79 am   BACKBONE|DICT|INTERRES
   155   79   80 1    
   156   79  200 1    
   157   80   81 1    
   158   80   82 1    
   159   80  201 1    
   160   81  202 1    
   161   81  203 1    
   162   81  204 1    
   163   82   83 2    
   164   82   84 am   BACKBONE|DICT|INTERRES
   165   84   85 1    
   166   84  205 1    
   167   85   86 1    
   168   85   87 1    
   169   85  206 1    
   170   86  207 1    
   171   86  208 1    
   172   86  209 1    
   173   87   88 2    
   174   87   89 am   BACKBONE|DICT|INTERRES
   175   89   90 1    
   176   89  210 1    
   177   90   91 1    
   178   90   92 1    
   179   90  211 1    
   180   91  212 1    
   181   91  213 1    
   182   91  214 1    
   183   92   93 2    
   184   92   94 am   BACKBONE|DICT|INTERRES
   185   94   95 1    
   186   94  215 1    
   187   95   96 1    
   188   95   97 1    
   189   95  216 1    
   190   96  217 1    
   191   96  218 1    
   192   96  219 1    
   193   97   98 2    
   194   97   99 am   BACKBONE|DICT|INTERRES
   195   99  100 1    
   196   99  220 1    
   197  100  101 1    
   198  100  102 1    
   199  100  221 1    
   200  101  222 1    
   201  101  223 1    
   202  101  224 1    
   203  102  103 2    
   204  102  104 am   BACKBONE|DICT|INTERRES
   205  104  105 1    
   206  104  225 1    
   207  105  106 1    
   208  105  107 1    
   209  105  226 1    
   210  106  227 1    
   211  106  228 1    
   212  106  229 1    
   213  107  108 2    
   214  107  109 am   BACKBONE|DICT|INTERRES
   215  109  110 1    
   216  109  230 1    
   217  110  111 1    
   218  110  112 1    
   219  110  231 1    
   220  111  232 1    
   221  111  233 1    
   222  111  234 1    
   223  112  113 2    
   224  112  114 am   BACKBONE|DICT|INTERRES
   225  114  115 1    
   226  114  235 1    
   227  115  116 1    
   228  115  117 1    
   229  115  236 1    
   230  116  237 1    
   231  116  238 1    
   232  116  239 1    
   233  117  118 2    
   234  117  119 am   BACKBONE|DICT|INTERRES
   235  119  120 1    
   236  119  240 1    
   237  120  121 1    
   238  120  124 1    
   239  120  241 1    
   240  121  122 am   BACKBONE|DICT|INTERRES
   241  121  123 2    
   242  122  242 1    
   243  122  243 1    
   244  124  125 1    
   245  124  244 1    
   246  124  245 1    
   247  125  126 1    
   248  126  246 1    
   249  126  247 1    
@<TRIPOS>SUBSTRUCTURE
     1 UNK         1 GROUP             0       ****    0 ROOT    
