@<TRIPOS>MOLECULE
3R540
247   249    1
SMALL
USER_CHARGES


@<TRIPOS>ATOM
      1 CA          7.9452  -15.4353  -49.1177 C.3       0 UNK        -0.1800 
      2 C           6.8421  -16.4753  -49.2526 C.2       0 UNK         0.5000 
      3 O           7.0304  -17.6244  -48.8539 O.2       0 UNK        -0.5000 
      4 N           5.6905  -16.0759  -49.8066 N.am      1 UNK        -0.5000 
      5 CA          4.5161  -16.9320  -50.0259 C.3       1 UNK         0.1400 
      6 C6          3.6816  -16.4455  -51.2373 C.3       23 UNK        -0.0398 
      7 S7          2.9352  -14.7931  -50.9986 S.3       23 UNK        -0.2404 
      8 C8          1.4388  -14.8905  -52.0365 C.3       23 UNK        -0.0205 
      9 C9          0.4918  -16.0208  -51.6459 C.ar      23 UNK        -0.0193 
     10 C10         0.1315  -16.9853  -52.5903 C.ar      23 UNK        -0.1150 
     11 C11        -0.7684  -18.0087  -52.2654 C.ar      23 UNK        -0.0193 
     12 C12        -1.2797  -18.0678  -50.9656 C.ar      23 UNK        -0.1150 
     13 C13        -0.9248  -17.1172  -50.0014 C.ar      23 UNK        -0.0193 
     14 C14        -0.0437  -16.0921  -50.3576 C.ar      23 UNK        -0.1150 
     15 C15        -1.5068  -17.1462  -48.5873 C.3       23 UNK        -0.0205 
     16 S16        -1.7940  -18.8120  -47.8987 S.3       23 UNK        -0.2404 
     17 C17        -0.0808  -19.4428  -47.7781 C.3       23 UNK        -0.0398 
     18 CA          0.1424  -20.9317  -47.3662 C.3       11 UNK         0.1400 
     19 N           0.6690  -21.0803  -46.0049 N.am      11 UNK        -0.5000 
     20 C           1.2870  -22.1857  -45.5590 C.2       10 UNK         0.5000 
     21 O           1.5118  -23.1712  -46.2610 O.2       10 UNK        -0.5000 
     22 CA          1.6794  -22.2188  -44.0731 C.3       10 UNK         0.1400 
     23 CB          3.0256  -21.5132  -43.8517 C.3       10 UNK        -0.1800 
     24 N           0.6539  -21.6124  -43.2258 N.am      10 UNK        -0.5000 
     25 C          -0.5366  -22.1743  -42.9666 C.2       9 UNK         0.5000 
     26 O          -0.8635  -23.2882  -43.3758 O.2       9 UNK        -0.5000 
     27 CA         -1.5510  -21.3375  -42.1577 C.3       9 UNK         0.1400 
     28 CB         -1.3669  -21.5757  -40.6521 C.3       9 UNK        -0.1800 
     29 N          -1.4604  -19.9021  -42.4316 N.am      9 UNK        -0.5000 
     30 C          -1.6336  -19.3465  -43.6382 C.2       8 UNK         0.5000 
     31 O          -2.0204  -19.9797  -44.6188 O.2       8 UNK        -0.5000 
     32 CA         -1.2595  -17.8622  -43.8080 C.3       8 UNK         0.1400 
     33 CB         -2.5224  -16.9895  -43.8549 C.3       8 UNK        -0.1800 
     34 N          -0.3369  -17.3086  -42.8095 N.am      8 UNK        -0.5000 
     35 C           0.8682  -17.7825  -42.4595 C.2       7 UNK         0.5000 
     36 O           1.3204  -18.8565  -42.8530 O.2       7 UNK        -0.5000 
     37 CA          1.7135  -16.9276  -41.4981 C.3       7 UNK         0.1400 
     38 CB          2.7849  -16.1475  -42.2763 C.3       7 UNK        -0.1800 
     39 N           0.9026  -15.9748  -40.7397 N.am      7 UNK        -0.5000 
     40 C           0.4341  -16.1794  -39.5016 C.2       6 UNK         0.5000 
     41 O           0.6142  -17.2197  -38.8678 O.2       6 UNK        -0.5000 
     42 CA         -0.3537  -15.0262  -38.8468 C.3       6 UNK         0.1400 
     43 CB          0.5619  -14.2189  -37.9135 C.3       6 UNK        -0.1800 
     44 N          -0.9551  -14.1132  -39.8204 N.am      6 UNK        -0.5000 
     45 C          -2.0677  -14.3771  -40.5177 C.2       5 UNK         0.5000 
     46 O          -2.7365  -15.4010  -40.3762 O.2       5 UNK        -0.5000 
     47 CA         -2.4869  -13.3358  -41.5754 C.3       5 UNK         0.1400 
     48 CB         -3.4434  -12.3027  -40.9609 C.3       5 UNK        -0.1800 
     49 N          -1.3724  -12.6330  -42.2262 N.am      5 UNK        -0.5000 
     50 C          -0.3864  -13.2297  -42.9086 C.2       4 UNK         0.5000 
     51 O          -0.2289  -14.4493  -42.9452 O.2       4 UNK        -0.5000 
     52 CA          0.6164  -12.3227  -43.6431 C.3       4 UNK         0.1400 
     53 CB          1.8812  -12.1269  -42.7935 C.3       4 UNK        -0.1800 
     54 N           0.9935  -12.8868  -44.9416 N.am      4 UNK        -0.5000 
     55 C           0.1511  -13.0445  -45.9728 C.2       3 UNK         0.5000 
     56 O          -1.0183  -12.6564  -45.9590 O.2       3 UNK        -0.5000 
     57 CA          0.6947  -13.7189  -47.2477 C.3       3 UNK         0.1400 
     58 CB          0.9776  -12.6596  -48.3249 C.3       3 UNK        -0.1800 
     59 N           1.9007  -14.5307  -47.0504 N.am      3 UNK        -0.5000 
     60 C           1.9338  -15.7226  -46.4365 C.2       2 UNK         0.5000 
     61 O           0.9426  -16.2648  -45.9523 O.2       2 UNK        -0.5000 
     62 CA          3.3152  -16.4065  -46.3623 C.3       2 UNK         0.1400 
     63 CB          3.2810  -17.8139  -45.7268 C.3       2 UNK        -0.1800 
     64 N           3.9962  -16.4259  -47.6617 N.am      2 UNK        -0.5000 
     65 C           3.6483  -17.1223  -48.7573 C.2       1 UNK         0.5000 
     66 O           2.6909  -17.8935  -48.8045 O.2       1 UNK        -0.5000 
     67 C          -1.0496  -21.8860  -47.5994 C.2       11 UNK         0.5000 
     68 O          -1.1140  -22.5253  -48.6477 O.2       11 UNK        -0.5000 
     69 N          -1.9291  -22.0196  -46.5954 N.am      12 UNK        -0.5000 
     70 CA         -3.0439  -22.9651  -46.5761 C.3       12 UNK         0.1400 
     71 CB         -3.9145  -22.7164  -45.3362 C.3       12 UNK        -0.1800 
     72 C          -2.5867  -24.4304  -46.6443 C.2       12 UNK         0.5000 
     73 O          -3.1803  -25.2084  -47.3882 O.2       12 UNK        -0.5000 
     74 N          -1.5234  -24.7750  -45.9058 N.am      13 UNK        -0.5000 
     75 CA         -0.9005  -26.0979  -45.9413 C.3       13 UNK         0.1400 
     76 CB          0.1186  -26.2183  -44.7981 C.3       13 UNK        -0.1800 
     77 C          -0.2420  -26.4099  -47.2990 C.2       13 UNK         0.5000 
     78 O          -0.3882  -27.5251  -47.8003 O.2       13 UNK        -0.5000 
     79 N           0.4647  -25.4238  -47.8675 N.am      14 UNK        -0.5000 
     80 CA          1.1856  -25.5482  -49.1329 C.3       14 UNK         0.1400 
     81 CB          2.1998  -24.3999  -49.2555 C.3       14 UNK        -0.1800 
     82 C           0.2598  -25.5848  -50.3618 C.2       14 UNK         0.5000 
     83 O           0.4178  -26.4604  -51.2136 O.2       14 UNK        -0.5000 
     84 N          -0.6666  -24.6219  -50.4481 N.am      15 UNK        -0.5000 
     85 CA         -1.5010  -24.3823  -51.6277 C.3       15 UNK         0.1400 
     86 CB         -1.6861  -22.8658  -51.7944 C.3       15 UNK        -0.1800 
     87 C          -2.8675  -25.0891  -51.5694 C.2       15 UNK         0.5000 
     88 O          -3.6081  -25.0324  -52.5517 O.2       15 UNK        -0.5000 
     89 N          -3.1987  -25.7094  -50.4275 N.am      16 UNK        -0.5000 
     90 CA         -4.4332  -26.4344  -50.0891 C.3       16 UNK         0.1400 
     91 CB         -4.6959  -27.6038  -51.0576 C.3       16 UNK        -0.1800 
     92 C          -5.6746  -25.5309  -49.9461 C.2       16 UNK         0.5000 
     93 O          -6.3871  -25.6329  -48.9471 O.2       16 UNK        -0.5000 
     94 N          -5.9050  -24.6549  -50.9305 N.am      17 UNK        -0.5000 
     95 CA         -6.9970  -23.6787  -50.9617 C.3       17 UNK         0.1400 
     96 CB         -7.4966  -23.5445  -52.4099 C.3       17 UNK        -0.1800 
     97 C          -6.5838  -22.3061  -50.3919 C.2       17 UNK         0.5000 
     98 O          -7.4041  -21.3876  -50.3892 O.2       17 UNK        -0.5000 
     99 N          -5.3279  -22.1787  -49.9358 N.am      18 UNK        -0.5000 
    100 CA        -4.6903  -20.9498  -49.4534 C.3       18 UNK         0.1400 
    101 CB        -5.3623  -20.4555  -48.1502 C.3       18 UNK        -0.1800 
    102 C         -4.6213  -19.8900  -50.5712 C.2       18 UNK         0.5000 
    103 O         -4.2768  -20.2345  -51.7032 O.2       18 UNK        -0.5000 
    104 N         -4.9536  -18.6310  -50.2548 N.am      19 UNK        -0.5000 
    105 CA        -4.9342  -17.4893  -51.1739 C.3       19 UNK         0.1400 
    106 CB        -5.3284  -16.2197  -50.4060 C.3       19 UNK        -0.1800 
    107 C         -5.8202  -17.6604  -52.4225 C.2       19 UNK         0.5000 
    108 O         -5.4973  -17.0971  -53.4684 O.2       19 UNK        -0.5000 
    109 N         -6.8860  -18.4681  -52.3201 N.am      20 UNK        -0.5000 
    110 CA        -7.7928  -18.7923  -53.4241 C.3       20 UNK         0.1400 
    111 CB        -9.0242  -19.5264  -52.8735 C.3       20 UNK        -0.1800 
    112 C         -7.1342  -19.6041  -54.5592 C.2       20 UNK         0.5000 
    113 O         -7.6608  -19.6048  -55.6725 O.2       20 UNK        -0.5000 
    114 N         -5.9951  -20.2574  -54.2816 N.am      21 UNK        -0.5000 
    115 CA        -5.1793  -20.9347  -55.2908 C.3       21 UNK         0.1400 
    116 CB        -4.1962  -21.8847  -54.5929 C.3       21 UNK        -0.1800 
    117 C         -4.3935  -19.9496  -56.1781 C.2       21 UNK         0.5000 
    118 O         -4.0986  -20.2822  -57.3270 O.2       21 UNK        -0.5000 
    119 N         -4.0511  -18.7786  -55.6258 N.am      22 UNK        -0.5000 
    120 CA        -3.2120  -17.7567  -56.2704 C.3       22 UNK         0.1400 
    121 C         -4.0164  -16.5134  -56.7372 C.2       22 UNK         0.5000 
    122 N         -5.1081  -16.1415  -56.0814 N.am      22 UNK        -0.7600 
    123 O         -3.6497  -15.8803  -57.7235 O.2       22 UNK        -0.5000 
    124 C124       -2.0366  -17.3329  -55.3547 C.3       23 UNK        -0.0398 
    125 S125       -0.8798  -18.7102  -55.0290 S.3       23 UNK        -0.2404 
    126 C126       -1.2109  -19.0769  -53.2692 C.3       23 UNK        -0.0205 
    127 H127        8.8312  -15.7552  -49.6660 H         1 UNK         0.0600 
    128 H128        7.6372  -14.4643  -49.5065 H         1 UNK         0.0600 
    129 H129        8.2180  -15.3110  -48.0697 H         1 UNK         0.0600 
    130 H130        5.5892  -15.1187  -50.1155 H         1 UNK         0.3000 
    131 H131        4.8790  -17.9294  -50.2835 H         1 UNK         0.0600 
    132 H132        2.9045  -17.1772  -51.4611 H         1 UNK         0.0800 
    133 H133        4.3102  -16.4089  -52.1278 H         1 UNK         0.0800 
    134 H134        1.7466  -14.9853  -53.0789 H         1 UNK         0.0800 
    135 H135        0.9011  -13.9445  -51.9627 H         1 UNK         0.0800 
    136 H136        0.5532  -16.9246  -53.5824 H         1 UNK         0.1150 
    137 H137       -1.9646  -18.8609  -50.7077 H         1 UNK         0.1150 
    138 H138        0.2367  -15.3458  -49.6311 H         1 UNK         0.1150 
    139 H139       -0.8525  -16.6101  -47.9002 H         1 UNK         0.0800 
    140 H140       -2.4541  -16.6073  -48.5944 H         1 UNK         0.0800 
    141 H141        0.4766  -18.7742  -47.1216 H         1 UNK         0.0800 
    142 H142        0.3665  -19.2991  -48.7625 H         1 UNK         0.0800 
    143 H143        0.9359  -21.2978  -48.0222 H         1 UNK         0.0600 
    144 H144        0.4786  -20.3320  -45.3550 H         1 UNK         0.3000 
    145 H145        1.7937  -23.2640  -43.7779 H         1 UNK         0.0600 
    146 H146        3.3155  -21.5356  -42.8011 H         1 UNK         0.0600 
    147 H147        3.8180  -22.0025  -44.4195 H         1 UNK         0.0600 
    148 H148        2.9943  -20.4705  -44.1686 H         1 UNK         0.0600 
    149 H149        0.8386  -20.6647  -42.9046 H         1 UNK         0.3000 
    150 H150       -2.5529  -21.6678  -42.4380 H         1 UNK         0.0600 
    151 H151       -1.4484  -22.6367  -40.4121 H         1 UNK         0.0600 
    152 H152       -2.1290  -21.0531  -40.0737 H         1 UNK         0.0600 
    153 H153       -0.3899  -21.2344  -40.3073 H         1 UNK         0.0600 
    154 H154       -1.1256  -19.3133  -41.6834 H         1 UNK         0.3000 
    155 H155       -0.7642  -17.7854  -44.7763 H         1 UNK         0.0600 
    156 H156       -3.0331  -16.9712  -42.8914 H         1 UNK         0.0600 
    157 H157       -3.2289  -17.3607  -44.5987 H         1 UNK         0.0600 
    158 H158       -2.2791  -15.9621  -44.1269 H         1 UNK         0.0600 
    159 H159       -0.5536  -16.3664  -42.5054 H         1 UNK         0.3000 
    160 H160        2.2246  -17.6061  -40.8119 H         1 UNK         0.0600 
    161 H161        3.3379  -15.4734  -41.6221 H         1 UNK         0.0600 
    162 H162        2.3480  -15.5538  -43.0804 H         1 UNK         0.0600 
    163 H163        3.5113  -16.8268  -42.7221 H         1 UNK         0.0600 
    164 H164        0.6420  -15.1277  -41.2298 H         1 UNK         0.3000 
    165 H165       -1.1483  -15.4697  -38.2428 H         1 UNK         0.0600 
    166 H166        0.0057  -13.4393  -37.3925 H         1 UNK         0.0600 
    167 H167        1.0087  -14.8607  -37.1529 H         1 UNK         0.0600 
    168 H168        1.3764  -13.7428  -38.4609 H         1 UNK         0.0600 
    169 H169       -0.4706  -13.2452  -39.9959 H         1 UNK         0.3000 
    170 H170       -3.0272  -13.8747  -42.3566 H         1 UNK         0.0600 
    171 H171       -4.2968  -12.7915  -40.4889 H         1 UNK         0.0600 
    172 H172       -2.9481  -11.6992  -40.1992 H         1 UNK         0.0600 
    173 H173       -3.8380  -11.6281  -41.7210 H         1 UNK         0.0600 
    174 H174       -1.4210  -11.6243  -42.2232 H         1 UNK         0.3000 
    175 H175        0.1544  -11.3483  -43.8148 H         1 UNK         0.0600 
    176 H176        2.3916  -13.0718  -42.6041 H         1 UNK         0.0600 
    177 H177        2.5871  -11.4576  -43.2856 H         1 UNK         0.0600 
    178 H178        1.6384  -11.6861  -41.8258 H         1 UNK         0.0600 
    179 H179        1.9287  -13.2534  -45.0266 H         1 UNK         0.3000 
    180 H180       -0.1003  -14.3703  -47.6122 H         1 UNK         0.0600 
    181 H181        1.7929  -11.9967  -48.0330 H         1 UNK         0.0600 
    182 H182        0.0990  -12.0389  -48.5060 H         1 UNK         0.0600 
    183 H183        1.2427  -13.1200  -49.2750 H         1 UNK         0.0600 
    184 H184        2.7564  -14.1632  -47.4395 H         1 UNK         0.3000 
    185 H185        3.9222  -15.7783  -45.7090 H         1 UNK         0.0600 
    186 H186        2.8487  -17.7790  -44.7298 H         1 UNK         0.0600 
    187 H187        2.6844  -18.5188  -46.3037 H         1 UNK         0.0600 
    188 H188        4.2847  -18.2272  -45.6301 H         1 UNK         0.0600 
    189 H189        4.8062  -15.8284  -47.7421 H         1 UNK         0.3000 
    190 H190       -1.8475  -21.3958  -45.7953 H         1 UNK         0.3000 
    191 H191       -3.6511  -22.7803  -47.4614 H         1 UNK         0.0600 
    192 H192       -3.3703  -22.9203  -44.4145 H         1 UNK         0.0600 
    193 H193       -4.7965  -23.3579  -45.3455 H         1 UNK         0.0600 
    194 H194       -4.2616  -21.6838  -45.2963 H         1 UNK         0.0600 
    195 H195       -1.1231  -24.0953  -45.2687 H         1 UNK         0.3000 
    196 H196       -1.6829  -26.8412  -45.7738 H         1 UNK         0.0600 
    197 H197        0.5825  -27.2054  -44.7907 H         1 UNK         0.0600 
    198 H198       -0.3590  -26.0761  -43.8285 H         1 UNK         0.0600 
    199 H199        0.9165  -25.4809  -44.8884 H         1 UNK         0.0600 
    200 H200        0.5784  -24.5496  -47.3638 H         1 UNK         0.3000 
    201 H201        1.7463  -26.4853  -49.1129 H         1 UNK         0.0600 
    202 H202        2.9223  -24.4249  -48.4395 H         1 UNK         0.0600 
    203 H203        1.7103  -23.4255  -49.2369 H         1 UNK         0.0600 
    204 H204        2.7604  -24.4696  -50.1885 H         1 UNK         0.0600 
    205 H205       -0.7442  -23.9317  -49.7017 H         1 UNK         0.3000 
    206 H206       -0.9853  -24.7503  -52.5171 H         1 UNK         0.0600 
    207 H207       -0.7317  -22.3404  -51.7568 H         1 UNK         0.0600 
    208 H208       -2.1381  -22.6413  -52.7580 H         1 UNK         0.0600 
    209 H209       -2.3314  -22.4450  -51.0233 H         1 UNK         0.0600 
    210 H210       -2.5375  -25.6411  -49.6646 H         1 UNK         0.3000 
    211 H211       -4.2537  -26.8752  -49.1077 H         1 UNK         0.0600 
    212 H212       -4.9266  -27.2610  -52.0664 H         1 UNK         0.0600 
    213 H213       -5.5424  -28.2024  -50.7191 H         1 UNK         0.0600 
    214 H214       -3.8326  -28.2665  -51.1173 H         1 UNK         0.0600 
    215 H215       -5.2552  -24.6511  -51.7134 H         1 UNK         0.3000 
    216 H216       -7.8289  -24.0413  -50.3546 H         1 UNK         0.0600 
    217 H217       -8.3815  -22.9096  -52.4615 H         1 UNK         0.0600 
    218 H218       -7.7728  -24.5143  -52.8240 H         1 UNK         0.0600 
    219 H219       -6.7414  -23.1049  -53.0596 H         1 UNK         0.0600 
    220 H220       -4.7283  -22.9858  -50.0151 H         1 UNK         0.3000 
    221 H221       -3.6562  -21.2062  -49.2223 H         1 UNK         0.0600 
    222 H222       -6.3555  -20.0419  -48.3281 H         1 UNK         0.0600 
    223 H223       -5.4794  -21.2678  -47.4346 H         1 UNK         0.0600 
    224 H224       -4.7619  -19.6864  -47.6633 H         1 UNK         0.0600 
    225 H225       -5.2349  -18.4359  -49.3053 H         1 UNK         0.3000 
    226 H226       -3.9099  -17.3667  -51.5281 H         1 UNK         0.0600 
    227 H227       -6.3388  -16.2920  -50.0017 H         1 UNK         0.0600 
    228 H228       -4.6469  -16.0305  -49.5770 H         1 UNK         0.0600 
    229 H229       -5.2961  -15.3443  -51.0562 H         1 UNK         0.0600 
    230 H230       -7.0596  -18.9336  -51.4398 H         1 UNK         0.3000 
    231 H231       -8.1309  -17.8495  -53.8591 H         1 UNK         0.0600 
    232 H232       -9.5194  -18.9438  -52.0966 H         1 UNK         0.0600 
    233 H233       -8.7590  -20.4946  -52.4512 H         1 UNK         0.0600 
    234 H234       -9.7564  -19.7049  -53.6620 H         1 UNK         0.0600 
    235 H235       -5.6104  -20.2120  -53.3441 H         1 UNK         0.3000 
    236 H236       -5.8344  -21.5277  -55.9323 H         1 UNK         0.0600 
    237 H237       -3.4708  -21.3258  -54.0028 H         1 UNK         0.0600 
    238 H238       -4.7018  -22.5834  -53.9286 H         1 UNK         0.0600 
    239 H239       -3.6383  -22.4743  -55.3212 H         1 UNK         0.0600 
    240 H240       -4.3909  -18.5567  -54.7004 H         1 UNK         0.3000 
    241 H241       -2.7688  -18.1745  -57.1765 H         1 UNK         0.0600 
    242 H242       -5.3639  -16.5833  -55.2012 H         1 UNK         0.3800 
    243 H243       -5.6259  -15.3388  -56.4013 H         1 UNK         0.3800 
    244 H244       -1.4588  -16.5326  -55.8204 H         1 UNK         0.0800 
    245 H245       -2.4111  -16.9270  -54.4132 H         1 UNK         0.0800 
    246 H246       -0.7103  -20.0117  -53.0150 H         1 UNK         0.0800 
    247 H247       -2.2798  -19.2607  -53.1563 H         1 UNK         0.0800 
@<TRIPOS>BOND
     1    1    2 1    
     2    1  127 1    
     3    1  128 1    
     4    1  129 1    
     5    2    3 2    
     6    2    4 am   BACKBONE|DICT|INTERRES
     7    4    5 1    
     8    4  130 1    
     9    5    6 1    
    10    5   65 1    
    11    5  131 1    
    12    6    7 1    
    13    6  132 1    
    14    6  133 1    
    15    7    8 1    
    16    8    9 1    
    17    8  134 1    
    18    8  135 1    
    19    9   10 ar   
    20    9   14 ar   
    21   10   11 ar   
    22   10  136 1    
    23   11   12 ar   
    24   11  126 1    
    25   12   13 ar   
    26   12  137 1    
    27   13   14 ar   
    28   13   15 1    
    29   14  138 1    
    30   15   16 1    
    31   15  139 1    
    32   15  140 1    
    33   16   17 1    
    34   17   18 1    
    35   17  141 1    
    36   17  142 1    
    37   18   19 1    
    38   18   67 1    
    39   18  143 1    
    40   19   20 am   BACKBONE|DICT|INTERRES
    41   19  144 1    
    42   20   21 2    
    43   20   22 1    
    44   22   23 1    
    45   22   24 1    
    46   22  145 1    
    47   23  146 1    
    48   23  147 1    
    49   23  148 1    
    50   24   25 am   BACKBONE|DICT|INTERRES
    51   24  149 1    
    52   25   26 2    
    53   25   27 1    
    54   27   28 1    
    55   27   29 1    
    56   27  150 1    
    57   28  151 1    
    58   28  152 1    
    59   28  153 1    
    60   29   30 am   BACKBONE|DICT|INTERRES
    61   29  154 1    
    62   30   31 2    
    63   30   32 1    
    64   32   33 1    
    65   32   34 1    
    66   32  155 1    
    67   33  156 1    
    68   33  157 1    
    69   33  158 1    
    70   34   35 am   BACKBONE|DICT|INTERRES
    71   34  159 1    
    72   35   36 2    
    73   35   37 1    
    74   37   38 1    
    75   37   39 1    
    76   37  160 1    
    77   38  161 1    
    78   38  162 1    
    79   38  163 1    
    80   39   40 am   BACKBONE|DICT|INTERRES
    81   39  164 1    
    82   40   41 2    
    83   40   42 1    
    84   42   43 1    
    85   42   44 1    
    86   42  165 1    
    87   43  166 1    
    88   43  167 1    
    89   43  168 1    
    90   44   45 am   BACKBONE|DICT|INTERRES
    91   44  169 1    
    92   45   46 2    
    93   45   47 1    
    94   47   48 1    
    95   47   49 1    
    96   47  170 1    
    97   48  171 1    
    98   48  172 1    
    99   48  173 1    
   100   49   50 am   BACKBONE|DICT|INTERRES
   101   49  174 1    
   102   50   51 2    
   103   50   52 1    
   104   52   53 1    
   105   52   54 1    
   106   52  175 1    
   107   53  176 1    
   108   53  177 1    
   109   53  178 1    
   110   54   55 am   BACKBONE|DICT|INTERRES
   111   54  179 1    
   112   55   56 2    
   113   55   57 1    
   114   57   58 1    
   115   57   59 1    
   116   57  180 1    
   117   58  181 1    
   118   58  182 1    
   119   58  183 1    
   120   59   60 am   BACKBONE|DICT|INTERRES
   121   59  184 1    
   122   60   61 2    
   123   60   62 1    
   124   62   63 1    
   125   62   64 1    
   126   62  185 1    
   127   63  186 1    
   128   63  187 1    
   129   63  188 1    
   130   64   65 am   BACKBONE|DICT|INTERRES
   131   64  189 1    
   132   65   66 2    
   133   67   68 2    
   134   67   69 am   BACKBONE|DICT|INTERRES
   135   69   70 1    
   136   69  190 1    
   137   70   71 1    
   138   70   72 1    
   139   70  191 1    
   140   71  192 1    
   141   71  193 1    
   142   71  194 1    
   143   72   73 2    
   144   72   74 am   BACKBONE|DICT|INTERRES
   145   74   75 1    
   146   74  195 1    
   147   75   76 1    
   148   75   77 1    
   149   75  196 1    
   150   76  197 1    
   151   76  198 1    
   152   76  199 1    
   153   77   78 2    
   154   77   79 am   BACKBONE|DICT|INTERRES
   155   79   80 1    
   156   79  200 1    
   157   80   81 1    
   158   80   82 1    
   159   80  201 1    
   160   81  202 1    
   161   81  203 1    
   162   81  204 1    
   163   82   83 2    
   164   82   84 am   BACKBONE|DICT|INTERRES
   165   84   85 1    
   166   84  205 1    
   167   85   86 1    
   168   85   87 1    
   169   85  206 1    
   170   86  207 1    
   171   86  208 1    
   172   86  209 1    
   173   87   88 2    
   174   87   89 am   BACKBONE|DICT|INTERRES
   175   89   90 1    
   176   89  210 1    
   177   90   91 1    
   178   90   92 1    
   179   90  211 1    
   180   91  212 1    
   181   91  213 1    
   182   91  214 1    
   183   92   93 2    
   184   92   94 am   BACKBONE|DICT|INTERRES
   185   94   95 1    
   186   94  215 1    
   187   95   96 1    
   188   95   97 1    
   189   95  216 1    
   190   96  217 1    
   191   96  218 1    
   192   96  219 1    
   193   97   98 2    
   194   97   99 am   BACKBONE|DICT|INTERRES
   195   99  100 1    
   196   99  220 1    
   197  100  101 1    
   198  100  102 1    
   199  100  221 1    
   200  101  222 1    
   201  101  223 1    
   202  101  224 1    
   203  102  103 2    
   204  102  104 am   BACKBONE|DICT|INTERRES
   205  104  105 1    
   206  104  225 1    
   207  105  106 1    
   208  105  107 1    
   209  105  226 1    
   210  106  227 1    
   211  106  228 1    
   212  106  229 1    
   213  107  108 2    
   214  107  109 am   BACKBONE|DICT|INTERRES
   215  109  110 1    
   216  109  230 1    
   217  110  111 1    
   218  110  112 1    
   219  110  231 1    
   220  111  232 1    
   221  111  233 1    
   222  111  234 1    
   223  112  113 2    
   224  112  114 am   BACKBONE|DICT|INTERRES
   225  114  115 1    
   226  114  235 1    
   227  115  116 1    
   228  115  117 1    
   229  115  236 1    
   230  116  237 1    
   231  116  238 1    
   232  116  239 1    
   233  117  118 2    
   234  117  119 am   BACKBONE|DICT|INTERRES
   235  119  120 1    
   236  119  240 1    
   237  120  121 1    
   238  120  124 1    
   239  120  241 1    
   240  121  122 am   BACKBONE|DICT|INTERRES
   241  121  123 2    
   242  122  242 1    
   243  122  243 1    
   244  124  125 1    
   245  124  244 1    
   246  124  245 1    
   247  125  126 1    
   248  126  246 1    
   249  126  247 1    
@<TRIPOS>SUBSTRUCTURE
     1 UNK         1 GROUP             0       ****    0 ROOT    
