@<TRIPOS>MOLECULE
3R540
247   249    1
SMALL
USER_CHARGES


@<TRIPOS>ATOM
      1 CA          3.0315  -13.3596  -52.9675 C.3       0 UNK        -0.1800 
      2 C           2.6397  -13.2710  -51.4993 C.2       0 UNK         0.5000 
      3 O           3.0072  -12.3054  -50.8289 O.2       0 UNK        -0.5000 
      4 N           1.9029  -14.2697  -51.0039 N.am      1 UNK        -0.5000 
      5 CA          1.4063  -14.3444  -49.6295 C.3       1 UNK         0.1400 
      6 C6          1.7356  -15.6978  -48.9480 C.3       23 UNK        -0.0398 
      7 S7          3.5189  -16.0235  -48.7224 S.3       23 UNK        -0.2404 
      8 C8          3.9565  -17.0152  -50.1903 C.3       23 UNK        -0.0205 
      9 C9          3.2805  -18.3800  -50.2167 C.ar      23 UNK        -0.0193 
     10 C10         2.0672  -18.5364  -50.8848 C.ar      23 UNK        -0.1150 
     11 C11         1.4245  -19.7714  -50.9392 C.ar      23 UNK        -0.0193 
     12 C12         2.0173  -20.8768  -50.3214 C.ar      23 UNK        -0.1150 
     13 C13         3.2418  -20.7425  -49.6553 C.ar      23 UNK        -0.0193 
     14 C14         3.8676  -19.4907  -49.6050 C.ar      23 UNK        -0.1150 
     15 C15         3.9048  -21.9479  -49.0049 C.3       23 UNK        -0.0205 
     16 S16         3.7949  -21.8884  -47.1893 S.3       23 UNK        -0.2404 
     17 C17         2.0535  -22.3501  -46.8903 C.3       23 UNK        -0.0398 
     18 CA          1.9079  -23.3693  -45.7317 C.3       11 UNK         0.1400 
     19 N           2.4622  -22.8547  -44.4807 N.am      11 UNK        -0.5000 
     20 C           2.9139  -23.6051  -43.4699 C.2       10 UNK         0.5000 
     21 O           3.0342  -24.8303  -43.5361 O.2       10 UNK        -0.5000 
     22 CA          3.2543  -22.8663  -42.1589 C.3       10 UNK         0.1400 
     23 CB          4.2877  -23.6122  -41.2883 C.3       10 UNK        -0.1800 
     24 N           3.6340  -21.4648  -42.3620 N.am      10 UNK        -0.5000 
     25 C           4.7334  -20.9847  -42.9641 C.2       9 UNK         0.5000 
     26 O           5.6344  -21.6966  -43.4096 O.2       9 UNK        -0.5000 
     27 CA          4.8586  -19.4502  -43.0984 C.3       9 UNK         0.1400 
     28 CB          4.9053  -19.0342  -44.5786 C.3       9 UNK        -0.1800 
     29 N           3.7814  -18.7116  -42.4343 N.am      9 UNK        -0.5000 
     30 C           3.6710  -18.5166  -41.1134 C.2       8 UNK         0.5000 
     31 O           4.5214  -18.8736  -40.2976 O.2       8 UNK        -0.5000 
     32 CA          2.3700  -17.8549  -40.6152 C.3       8 UNK         0.1400 
     33 CB          2.5125  -16.3260  -40.5894 C.3       8 UNK        -0.1800 
     34 N           1.1921  -18.2277  -41.4062 N.am      8 UNK        -0.5000 
     35 C           0.6898  -19.4694  -41.4848 C.2       7 UNK         0.5000 
     36 O           1.1477  -20.4278  -40.8629 O.2       7 UNK        -0.5000 
     37 CA         -0.4812  -19.6959  -42.4602 C.3       7 UNK         0.1400 
     38 CB         -1.8144  -19.2681  -41.8299 C.3       7 UNK        -0.1800 
     39 N          -0.2941  -19.0091  -43.7385 N.am      7 UNK        -0.5000 
     40 C           0.6986  -19.2766  -44.5994 C.2       6 UNK         0.5000 
     41 O           1.5406  -20.1540  -44.4150 O.2       6 UNK        -0.5000 
     42 CA          0.8117  -18.3690  -45.8375 C.3       6 UNK         0.1400 
     43 CB         -0.2163  -18.7541  -46.9136 C.3       6 UNK        -0.1800 
     44 N           0.6528  -16.9579  -45.4909 N.am      6 UNK        -0.5000 
     45 C           1.4712  -16.2720  -44.6811 C.2       5 UNK         0.5000 
     46 O           2.4963  -16.7390  -44.1881 O.2       5 UNK        -0.5000 
     47 CA          1.0412  -14.8422  -44.3132 C.3       5 UNK         0.1400 
     48 CB          1.4573  -13.8382  -45.3981 C.3       5 UNK        -0.1800 
     49 N          -0.3997  -14.7477  -44.0751 N.am      5 UNK        -0.5000 
     50 C          -1.0231  -15.2693  -43.0093 C.2       4 UNK         0.5000 
     51 O          -0.4413  -15.8627  -42.1018 O.2       4 UNK        -0.5000 
     52 CA         -2.5567  -15.1311  -42.9665 C.3       4 UNK         0.1400 
     53 CB         -2.9608  -13.7597  -42.4055 C.3       4 UNK        -0.1800 
     54 N          -3.1801  -15.3216  -44.2775 N.am      4 UNK        -0.5000 
     55 C          -3.1978  -16.4869  -44.9396 C.2       3 UNK         0.5000 
     56 O          -2.7128  -17.5279  -44.4992 O.2       3 UNK        -0.5000 
     57 CA         -3.7990  -16.4689  -46.3597 C.3       3 UNK         0.1400 
     58 CB         -5.3232  -16.6367  -46.3088 C.3       3 UNK        -0.1800 
     59 N          -3.4634  -15.2635  -47.1290 N.am      3 UNK        -0.5000 
     60 C          -2.2109  -14.8733  -47.3971 C.2       2 UNK         0.5000 
     61 O          -1.2187  -15.4843  -46.9938 O.2       2 UNK        -0.5000 
     62 CA         -2.0265  -13.5652  -48.1929 C.3       2 UNK         0.1400 
     63 CB         -2.3585  -12.3507  -47.3112 C.3       2 UNK        -0.1800 
     64 N          -0.6370  -13.4501  -48.6376 N.am      2 UNK        -0.5000 
     65 C          -0.1204  -14.1587  -49.6476 C.2       1 UNK         0.5000 
     66 O          -0.8029  -14.7204  -50.5088 O.2       1 UNK        -0.5000 
     67 C           0.4268  -23.7361  -45.5050 C.2       11 UNK         0.5000 
     68 O          -0.2176  -23.1942  -44.6005 O.2       11 UNK        -0.5000 
     69 N          -0.1032  -24.6383  -46.3398 N.am      12 UNK        -0.5000 
     70 CA         -1.4967  -25.0881  -46.3147 C.3       12 UNK         0.1400 
     71 CB         -1.5967  -26.4300  -47.0622 C.3       12 UNK        -0.1800 
     72 C          -2.4461  -24.0180  -46.8927 C.2       12 UNK         0.5000 
     73 O          -2.9941  -24.2046  -47.9791 O.2       12 UNK        -0.5000 
     74 N          -2.6067  -22.9121  -46.1528 N.am      13 UNK        -0.5000 
     75 CA         -3.3180  -21.6869  -46.5347 C.3       13 UNK         0.1400 
     76 CB         -3.3215  -20.7206  -45.3427 C.3       13 UNK        -0.1800 
     77 C          -4.7545  -21.8894  -47.0544 C.2       13 UNK         0.5000 
     78 O          -5.1929  -21.1506  -47.9365 O.2       13 UNK        -0.5000 
     79 N          -5.4558  -22.8877  -46.5021 N.am      14 UNK        -0.5000 
     80 CA         -6.8102  -23.2684  -46.9007 C.3       14 UNK         0.1400 
     81 CB         -7.4476  -24.0889  -45.7690 C.3       14 UNK        -0.1800 
     82 C          -6.8585  -24.0547  -48.2256 C.2       14 UNK         0.5000 
     83 O          -7.8865  -24.0214  -48.9023 O.2       14 UNK        -0.5000 
     84 N          -5.7684  -24.7556  -48.5670 N.am      15 UNK        -0.5000 
     85 CA         -5.6409  -25.5398  -49.7953 C.3       15 UNK         0.1400 
     86 CB         -4.7079  -26.7360  -49.5493 C.3       15 UNK        -0.1800 
     87 C          -5.1251  -24.6774  -50.9577 C.2       15 UNK         0.5000 
     88 O          -5.5847  -24.8505  -52.0868 O.2       15 UNK        -0.5000 
     89 N          -4.2029  -23.7548  -50.6613 N.am      16 UNK        -0.5000 
     90 CA         -3.6798  -22.7641  -51.5916 C.3       16 UNK         0.1400 
     91 CB         -2.4751  -23.3346  -52.3582 C.3       16 UNK        -0.1800 
     92 C          -3.2913  -21.5154  -50.7935 C.2       16 UNK         0.5000 
     93 O          -2.6168  -21.6523  -49.7753 O.2       16 UNK        -0.5000 
     94 N          -3.7115  -20.3480  -51.2944 N.am      17 UNK        -0.5000 
     95 CA         -3.6174  -18.9789  -50.7672 C.3       17 UNK         0.1400 
     96 CB         -2.8057  -18.7883  -49.4660 C.3       17 UNK        -0.1800 
     97 C          -5.0370  -18.4208  -50.6290 C.2       17 UNK         0.5000 
     98 O          -5.4330  -17.5849  -51.4412 O.2       17 UNK        -0.5000 
     99 N          -5.8058  -18.9333  -49.6555 N.am      18 UNK        -0.5000 
    100 CA        -7.2088  -18.5610  -49.4303 C.3       18 UNK         0.1400 
    101 CB        -7.6864  -19.1299  -48.0854 C.3       18 UNK        -0.1800 
    102 C         -8.1319  -19.0446  -50.5636 C.2       18 UNK         0.5000 
    103 O         -9.1177  -18.3799  -50.8817 O.2       18 UNK        -0.5000 
    104 N         -7.7609  -20.1768  -51.1722 N.am      19 UNK        -0.5000 
    105 CA        -8.4018  -20.7742  -52.3421 C.3       19 UNK         0.1400 
    106 CB        -8.4036  -22.3019  -52.1562 C.3       19 UNK        -0.1800 
    107 C         -7.7020  -20.3612  -53.6563 C.2       19 UNK         0.5000 
    108 O         -7.8620  -21.0566  -54.6606 O.2       19 UNK        -0.5000 
    109 N         -6.9294  -19.2598  -53.6220 N.am      20 UNK        -0.5000 
    110 CA        -6.0087  -18.7604  -54.6552 C.3       20 UNK         0.1400 
    111 CB        -6.7437  -18.6016  -56.0077 C.3       20 UNK        -0.1800 
    112 C         -4.7391  -19.6479  -54.7493 C.2       20 UNK         0.5000 
    113 O         -4.6570  -20.6626  -54.0571 O.2       20 UNK        -0.5000 
    114 N         -3.7139  -19.3076  -55.5402 N.am      21 UNK        -0.5000 
    115 CA        -3.4695  -18.0437  -56.2419 C.3       21 UNK         0.1400 
    116 CB        -3.5200  -18.3017  -57.7579 C.3       21 UNK        -0.1800 
    117 C         -2.1124  -17.4294  -55.8433 C.2       21 UNK         0.5000 
    118 O         -1.8160  -16.3113  -56.2653 O.2       21 UNK        -0.5000 
    119 N         -1.3143  -18.1518  -55.0441 N.am      22 UNK        -0.5000 
    120 CA        -0.0065  -17.7120  -54.5326 C.3       22 UNK         0.1400 
    121 C         -0.0656  -16.6659  -53.3829 C.2       22 UNK         0.5000 
    122 N         -1.2079  -16.4099  -52.7600 N.am      22 UNK        -0.7600 
    123 O          0.9516  -16.0643  -53.0542 O.2       22 UNK        -0.5000 
    124 C124        0.9311  -18.9086  -54.1915 C.3       23 UNK        -0.0398 
    125 S125        0.1478  -20.3502  -53.3727 S.3       23 UNK        -0.2404 
    126 C126        0.0661  -19.8814  -51.6153 C.3       23 UNK        -0.0205 
    127 H127        2.9897  -14.3855  -53.3328 H         1 UNK         0.0600 
    128 H128        4.0491  -12.9962  -53.1107 H         1 UNK         0.0600 
    129 H129        2.3609  -12.7502  -53.5730 H         1 UNK         0.0600 
    130 H130        1.5523  -14.9862  -51.6377 H         1 UNK         0.3000 
    131 H131        1.8432  -13.5489  -49.0223 H         1 UNK         0.0600 
    132 H132        1.3035  -15.7199  -47.9479 H         1 UNK         0.0800 
    133 H133        1.2561  -16.5214  -49.4702 H         1 UNK         0.0800 
    134 H134        3.7090  -16.4549  -51.0930 H         1 UNK         0.0800 
    135 H135        5.0391  -17.1474  -50.2088 H         1 UNK         0.0800 
    136 H136        1.6108  -17.6812  -51.3515 H         1 UNK         0.1150 
    137 H137        1.5231  -21.8375  -50.3571 H         1 UNK         0.1150 
    138 H138        4.8112  -19.3829  -49.0888 H         1 UNK         0.1150 
    139 H139        3.4755  -22.8807  -49.3736 H         1 UNK         0.0800 
    140 H140        4.9579  -21.9680  -49.2889 H         1 UNK         0.0800 
    141 H141        1.6305  -22.7608  -47.8082 H         1 UNK         0.0800 
    142 H142        1.4932  -21.4394  -46.6842 H         1 UNK         0.0800 
    143 H143        2.4453  -24.2791  -46.0080 H         1 UNK         0.0600 
    144 H144        2.3255  -21.8582  -44.3290 H         1 UNK         0.3000 
    145 H145        2.3222  -22.8363  -41.5934 H         1 UNK         0.0600 
    146 H146        4.5060  -23.0593  -40.3746 H         1 UNK         0.0600 
    147 H147        3.9120  -24.5918  -40.9910 H         1 UNK         0.0600 
    148 H148        5.2269  -23.7726  -41.8179 H         1 UNK         0.0600 
    149 H149        2.9454  -20.7928  -42.0464 H         1 UNK         0.3000 
    150 H150        5.8062  -19.1638  -42.6381 H         1 UNK         0.0600 
    151 H151        5.7309  -19.5208  -45.0991 H         1 UNK         0.0600 
    152 H152        5.0455  -17.9582  -44.6829 H         1 UNK         0.0600 
    153 H153        3.9880  -19.3033  -45.1021 H         1 UNK         0.0600 
    154 H154        3.0671  -18.3222  -43.0414 H         1 UNK         0.3000 
    155 H155        2.2010  -18.1946  -39.5914 H         1 UNK         0.0600 
    156 H156        3.3627  -16.0234  -39.9769 H         1 UNK         0.0600 
    157 H157        1.6245  -15.8540  -40.1685 H         1 UNK         0.0600 
    158 H158        2.6668  -15.9189  -41.5884 H         1 UNK         0.0600 
    159 H159        0.7264  -17.4780  -41.9081 H         1 UNK         0.3000 
    160 H160       -0.5349  -20.7670  -42.6683 H         1 UNK         0.0600 
    161 H161       -1.8425  -18.1962  -41.6336 H         1 UNK         0.0600 
    162 H162       -1.9812  -19.7813  -40.8821 H         1 UNK         0.0600 
    163 H163       -2.6535  -19.5097  -42.4825 H         1 UNK         0.0600 
    164 H164       -0.9800  -18.2994  -43.9787 H         1 UNK         0.3000 
    165 H165        1.8103  -18.5006  -46.2600 H         1 UNK         0.0600 
    166 H166       -0.0787  -18.1594  -47.8168 H         1 UNK         0.0600 
    167 H167       -0.1211  -19.8017  -47.1991 H         1 UNK         0.0600 
    168 H168       -1.2386  -18.6019  -46.5685 H         1 UNK         0.0600 
    169 H169       -0.1488  -16.4769  -45.8930 H         1 UNK         0.3000 
    170 H170        1.5575  -14.5690  -43.3906 H         1 UNK         0.0600 
    171 H171        2.5278  -13.9013  -45.5983 H         1 UNK         0.0600 
    172 H172        0.9379  -14.0206  -46.3362 H         1 UNK         0.0600 
    173 H173        1.2431  -12.8149  -45.0898 H         1 UNK         0.0600 
    174 H174       -0.9567  -14.3368  -44.8084 H         1 UNK         0.3000 
    175 H175       -2.9401  -15.9009  -42.2933 H         1 UNK         0.0600 
    176 H176       -2.5225  -13.5974  -41.4198 H         1 UNK         0.0600 
    177 H177       -2.6293  -12.9451  -43.0506 H         1 UNK         0.0600 
    178 H178       -4.0426  -13.6822  -42.2953 H         1 UNK         0.0600 
    179 H179       -3.5956  -14.5112  -44.7119 H         1 UNK         0.3000 
    180 H180       -3.3850  -17.3262  -46.8928 H         1 UNK         0.0600 
    181 H181       -5.5968  -17.5390  -45.7602 H         1 UNK         0.0600 
    182 H182       -5.8066  -15.7927  -45.8155 H         1 UNK         0.0600 
    183 H183       -5.7412  -16.7246  -47.3115 H         1 UNK         0.0600 
    184 H184       -4.2377  -14.7140  -47.4727 H         1 UNK         0.3000 
    185 H185       -2.6921  -13.5782  -49.0585 H         1 UNK         0.0600 
    186 H186       -3.3993  -12.3705  -46.9861 H         1 UNK         0.0600 
    187 H187       -1.7351  -12.3169  -46.4165 H         1 UNK         0.0600 
    188 H188       -2.2104  -11.4182  -47.8562 H         1 UNK         0.0600 
    189 H189       -0.0049  -13.0228  -47.9779 H         1 UNK         0.3000 
    190 H190        0.4717  -25.0289  -47.0723 H         1 UNK         0.3000 
    191 H191       -1.7922  -25.2654  -45.2783 H         1 UNK         0.0600 
    192 H192       -1.3012  -26.3346  -48.1079 H         1 UNK         0.0600 
    193 H193       -2.6180  -26.8123  -47.0418 H         1 UNK         0.0600 
    194 H194       -0.9604  -27.1861  -46.6019 H         1 UNK         0.0600 
    195 H195       -2.0469  -22.8540  -45.3079 H         1 UNK         0.3000 
    196 H196       -2.7375  -21.2201  -47.3285 H         1 UNK         0.0600 
    197 H197       -2.3063  -20.4716  -45.0363 H         1 UNK         0.0600 
    198 H198       -3.8377  -21.1435  -44.4803 H         1 UNK         0.0600 
    199 H199       -3.8206  -19.7855  -45.5995 H         1 UNK         0.0600 
    200 H200       -5.0171  -23.4404  -45.7807 H         1 UNK         0.3000 
    201 H201       -7.4018  -22.3607  -47.0337 H         1 UNK         0.0600 
    202 H202       -8.4722  -24.3682  -46.0183 H         1 UNK         0.0600 
    203 H203       -6.8940  -25.0090  -45.5774 H         1 UNK         0.0600 
    204 H204       -7.4846  -23.5185  -44.8407 H         1 UNK         0.0600 
    205 H205       -4.9249  -24.6560  -48.0133 H         1 UNK         0.3000 
    206 H206       -6.6200  -25.9343  -50.0759 H         1 UNK         0.0600 
    207 H207       -5.0608  -27.3493  -48.7201 H         1 UNK         0.0600 
    208 H208       -4.6592  -27.3763  -50.4308 H         1 UNK         0.0600 
    209 H209       -3.6904  -26.4174  -49.3231 H         1 UNK         0.0600 
    210 H210       -3.8455  -23.6839  -49.7110 H         1 UNK         0.3000 
    211 H211       -4.4652  -22.5023  -52.3020 H         1 UNK         0.0600 
    212 H212       -2.0800  -22.5994  -53.0601 H         1 UNK         0.0600 
    213 H213       -2.7537  -24.2173  -52.9338 H         1 UNK         0.0600 
    214 H214       -1.6659  -23.6147  -51.6824 H         1 UNK         0.0600 
    215 H215       -4.2007  -20.4064  -52.1841 H         1 UNK         0.3000 
    216 H216       -3.1160  -18.3991  -51.5430 H         1 UNK         0.0600 
    217 H217       -2.7339  -17.7300  -49.2131 H         1 UNK         0.0600 
    218 H218       -1.7863  -19.1566  -49.5622 H         1 UNK         0.0600 
    219 H219       -3.2623  -19.2937  -48.6162 H         1 UNK         0.0600 
    220 H220       -5.4325  -19.6665  -49.0544 H         1 UNK         0.3000 
    221 H221       -7.2681  -17.4716  -49.3851 H         1 UNK         0.0600 
    222 H222       -7.7444  -20.2182  -48.1094 H         1 UNK         0.0600 
    223 H223       -7.0189  -18.8521  -47.2711 H         1 UNK         0.0600 
    224 H224       -8.6801  -18.7560  -47.8363 H         1 UNK         0.0600 
    225 H225       -6.9310  -20.6403  -50.8322 H         1 UNK         0.3000 
    226 H226       -9.4389  -20.4398  -52.4090 H         1 UNK         0.0600 
    227 H227       -8.8889  -22.5859  -51.2221 H         1 UNK         0.0600 
    228 H228       -8.9436  -22.7990  -52.9628 H         1 UNK         0.0600 
    229 H229       -7.3901  -22.7041  -52.1416 H         1 UNK         0.0600 
    230 H230       -6.8634  -18.7714  -52.7385 H         1 UNK         0.3000 
    231 H231       -5.6995  -17.7740  -54.3085 H         1 UNK         0.0600 
    232 H232       -7.7587  -18.2301  -55.8658 H         1 UNK         0.0600 
    233 H233       -6.8086  -19.5468  -56.5477 H         1 UNK         0.0600 
    234 H234       -6.2479  -17.8895  -56.6639 H         1 UNK         0.0600 
    235 H235       -2.9641  -19.9778  -55.6209 H         1 UNK         0.3000 
    236 H236       -4.2147  -17.2933  -55.9825 H         1 UNK         0.0600 
    237 H237       -4.4743  -18.7331  -58.0591 H         1 UNK         0.0600 
    238 H238       -3.3920  -17.3748  -58.3184 H         1 UNK         0.0600 
    239 H239       -2.7330  -18.9877  -58.0736 H         1 UNK         0.0600 
    240 H240       -1.6262  -19.0490  -54.7056 H         1 UNK         0.3000 
    241 H241        0.4817  -17.1752  -55.3487 H         1 UNK         0.0600 
    242 H242       -2.0677  -16.8440  -53.0444 H         1 UNK         0.3800 
    243 H243       -1.1966  -15.7361  -51.9970 H         1 UNK         0.3800 
    244 H244        1.8094  -18.5904  -53.6294 H         1 UNK         0.0800 
    245 H245        1.3364  -19.2906  -55.1291 H         1 UNK         0.0800 
    246 H246       -0.5243  -20.6323  -51.0920 H         1 UNK         0.0800 
    247 H247       -0.4820  -18.9446  -51.5175 H         1 UNK         0.0800 
@<TRIPOS>BOND
     1    1    2 1    
     2    1  127 1    
     3    1  128 1    
     4    1  129 1    
     5    2    3 2    
     6    2    4 am   BACKBONE|DICT|INTERRES
     7    4    5 1    
     8    4  130 1    
     9    5    6 1    
    10    5   65 1    
    11    5  131 1    
    12    6    7 1    
    13    6  132 1    
    14    6  133 1    
    15    7    8 1    
    16    8    9 1    
    17    8  134 1    
    18    8  135 1    
    19    9   10 ar   
    20    9   14 ar   
    21   10   11 ar   
    22   10  136 1    
    23   11   12 ar   
    24   11  126 1    
    25   12   13 ar   
    26   12  137 1    
    27   13   14 ar   
    28   13   15 1    
    29   14  138 1    
    30   15   16 1    
    31   15  139 1    
    32   15  140 1    
    33   16   17 1    
    34   17   18 1    
    35   17  141 1    
    36   17  142 1    
    37   18   19 1    
    38   18   67 1    
    39   18  143 1    
    40   19   20 am   BACKBONE|DICT|INTERRES
    41   19  144 1    
    42   20   21 2    
    43   20   22 1    
    44   22   23 1    
    45   22   24 1    
    46   22  145 1    
    47   23  146 1    
    48   23  147 1    
    49   23  148 1    
    50   24   25 am   BACKBONE|DICT|INTERRES
    51   24  149 1    
    52   25   26 2    
    53   25   27 1    
    54   27   28 1    
    55   27   29 1    
    56   27  150 1    
    57   28  151 1    
    58   28  152 1    
    59   28  153 1    
    60   29   30 am   BACKBONE|DICT|INTERRES
    61   29  154 1    
    62   30   31 2    
    63   30   32 1    
    64   32   33 1    
    65   32   34 1    
    66   32  155 1    
    67   33  156 1    
    68   33  157 1    
    69   33  158 1    
    70   34   35 am   BACKBONE|DICT|INTERRES
    71   34  159 1    
    72   35   36 2    
    73   35   37 1    
    74   37   38 1    
    75   37   39 1    
    76   37  160 1    
    77   38  161 1    
    78   38  162 1    
    79   38  163 1    
    80   39   40 am   BACKBONE|DICT|INTERRES
    81   39  164 1    
    82   40   41 2    
    83   40   42 1    
    84   42   43 1    
    85   42   44 1    
    86   42  165 1    
    87   43  166 1    
    88   43  167 1    
    89   43  168 1    
    90   44   45 am   BACKBONE|DICT|INTERRES
    91   44  169 1    
    92   45   46 2    
    93   45   47 1    
    94   47   48 1    
    95   47   49 1    
    96   47  170 1    
    97   48  171 1    
    98   48  172 1    
    99   48  173 1    
   100   49   50 am   BACKBONE|DICT|INTERRES
   101   49  174 1    
   102   50   51 2    
   103   50   52 1    
   104   52   53 1    
   105   52   54 1    
   106   52  175 1    
   107   53  176 1    
   108   53  177 1    
   109   53  178 1    
   110   54   55 am   BACKBONE|DICT|INTERRES
   111   54  179 1    
   112   55   56 2    
   113   55   57 1    
   114   57   58 1    
   115   57   59 1    
   116   57  180 1    
   117   58  181 1    
   118   58  182 1    
   119   58  183 1    
   120   59   60 am   BACKBONE|DICT|INTERRES
   121   59  184 1    
   122   60   61 2    
   123   60   62 1    
   124   62   63 1    
   125   62   64 1    
   126   62  185 1    
   127   63  186 1    
   128   63  187 1    
   129   63  188 1    
   130   64   65 am   BACKBONE|DICT|INTERRES
   131   64  189 1    
   132   65   66 2    
   133   67   68 2    
   134   67   69 am   BACKBONE|DICT|INTERRES
   135   69   70 1    
   136   69  190 1    
   137   70   71 1    
   138   70   72 1    
   139   70  191 1    
   140   71  192 1    
   141   71  193 1    
   142   71  194 1    
   143   72   73 2    
   144   72   74 am   BACKBONE|DICT|INTERRES
   145   74   75 1    
   146   74  195 1    
   147   75   76 1    
   148   75   77 1    
   149   75  196 1    
   150   76  197 1    
   151   76  198 1    
   152   76  199 1    
   153   77   78 2    
   154   77   79 am   BACKBONE|DICT|INTERRES
   155   79   80 1    
   156   79  200 1    
   157   80   81 1    
   158   80   82 1    
   159   80  201 1    
   160   81  202 1    
   161   81  203 1    
   162   81  204 1    
   163   82   83 2    
   164   82   84 am   BACKBONE|DICT|INTERRES
   165   84   85 1    
   166   84  205 1    
   167   85   86 1    
   168   85   87 1    
   169   85  206 1    
   170   86  207 1    
   171   86  208 1    
   172   86  209 1    
   173   87   88 2    
   174   87   89 am   BACKBONE|DICT|INTERRES
   175   89   90 1    
   176   89  210 1    
   177   90   91 1    
   178   90   92 1    
   179   90  211 1    
   180   91  212 1    
   181   91  213 1    
   182   91  214 1    
   183   92   93 2    
   184   92   94 am   BACKBONE|DICT|INTERRES
   185   94   95 1    
   186   94  215 1    
   187   95   96 1    
   188   95   97 1    
   189   95  216 1    
   190   96  217 1    
   191   96  218 1    
   192   96  219 1    
   193   97   98 2    
   194   97   99 am   BACKBONE|DICT|INTERRES
   195   99  100 1    
   196   99  220 1    
   197  100  101 1    
   198  100  102 1    
   199  100  221 1    
   200  101  222 1    
   201  101  223 1    
   202  101  224 1    
   203  102  103 2    
   204  102  104 am   BACKBONE|DICT|INTERRES
   205  104  105 1    
   206  104  225 1    
   207  105  106 1    
   208  105  107 1    
   209  105  226 1    
   210  106  227 1    
   211  106  228 1    
   212  106  229 1    
   213  107  108 2    
   214  107  109 am   BACKBONE|DICT|INTERRES
   215  109  110 1    
   216  109  230 1    
   217  110  111 1    
   218  110  112 1    
   219  110  231 1    
   220  111  232 1    
   221  111  233 1    
   222  111  234 1    
   223  112  113 2    
   224  112  114 am   BACKBONE|DICT|INTERRES
   225  114  115 1    
   226  114  235 1    
   227  115  116 1    
   228  115  117 1    
   229  115  236 1    
   230  116  237 1    
   231  116  238 1    
   232  116  239 1    
   233  117  118 2    
   234  117  119 am   BACKBONE|DICT|INTERRES
   235  119  120 1    
   236  119  240 1    
   237  120  121 1    
   238  120  124 1    
   239  120  241 1    
   240  121  122 am   BACKBONE|DICT|INTERRES
   241  121  123 2    
   242  122  242 1    
   243  122  243 1    
   244  124  125 1    
   245  124  244 1    
   246  124  245 1    
   247  125  126 1    
   248  126  246 1    
   249  126  247 1    
@<TRIPOS>SUBSTRUCTURE
     1 UNK         1 GROUP             0       ****    0 ROOT    
