@<TRIPOS>MOLECULE
3R540
247   249    1
SMALL
USER_CHARGES


@<TRIPOS>ATOM
      1 CA         -3.7914  -10.2528  -47.5189 C.3       0 UNK        -0.1800 
      2 C          -2.9367  -11.4980  -47.7064 C.2       0 UNK         0.5000 
      3 O          -1.9778  -11.4706  -48.4748 O.2       0 UNK        -0.5000 
      4 N          -3.2810  -12.5817  -47.0019 N.am      1 UNK        -0.5000 
      5 CA         -2.6021  -13.8822  -47.0537 C.3       1 UNK         0.1400 
      6 C6         -3.5708  -15.0305  -46.6759 C.3       23 UNK        -0.0398 
      7 S7         -4.4040  -14.8650  -45.0595 S.3       23 UNK        -0.2404 
      8 C8         -6.0694  -15.5039  -45.4372 C.3       23 UNK        -0.0205 
      9 C9         -6.0496  -16.8723  -46.1114 C.ar      23 UNK        -0.0193 
     10 C10        -6.5517  -17.0154  -47.4087 C.ar      23 UNK        -0.1150 
     11 C11        -6.5585  -18.2641  -48.0345 C.ar      23 UNK        -0.0193 
     12 C12        -6.0576  -19.3725  -47.3496 C.ar      23 UNK        -0.1150 
     13 C13        -5.5483  -19.2544  -46.0532 C.ar      23 UNK        -0.0193 
     14 C14        -5.5512  -17.9938  -45.4381 C.ar      23 UNK        -0.1150 
     15 C15        -5.0299  -20.5284  -45.3832 C.3       23 UNK        -0.0205 
     16 S16        -4.2334  -20.3288  -43.7505 S.3       23 UNK        -0.2404 
     17 C17        -3.9533  -22.0573  -43.2341 C.3       23 UNK        -0.0398 
     18 CA         -3.1909  -22.9537  -44.2461 C.3       11 UNK         0.1400 
     19 N          -1.8051  -22.5183  -44.5017 N.am      11 UNK        -0.5000 
     20 C          -0.9719  -23.0799  -45.3950 C.2       10 UNK         0.5000 
     21 O          -1.3145  -24.0174  -46.1179 O.2       10 UNK        -0.5000 
     22 CA          0.4752  -22.5580  -45.5127 C.3       10 UNK         0.1400 
     23 CB          0.8801  -22.3120  -46.9749 C.3       10 UNK        -0.1800 
     24 N           0.7401  -21.3440  -44.7491 N.am      10 UNK        -0.5000 
     25 C           1.0827  -21.3007  -43.4566 C.2       9 UNK         0.5000 
     26 O           1.1465  -22.2921  -42.7293 O.2       9 UNK        -0.5000 
     27 CA          1.3906  -19.9066  -42.8860 C.3       9 UNK         0.1400 
     28 CB          2.8604  -19.5323  -43.1312 C.3       9 UNK        -0.1800 
     29 N           0.5278  -18.8883  -43.4832 N.am      9 UNK        -0.5000 
     30 C          -0.7361  -18.6642  -43.1003 C.2       8 UNK         0.5000 
     31 O          -1.2730  -19.2382  -42.1526 O.2       8 UNK        -0.5000 
     32 CA         -1.5281  -17.6186  -43.9075 C.3       8 UNK         0.1400 
     33 CB         -1.2694  -16.2269  -43.3137 C.3       8 UNK        -0.1800 
     34 N          -1.2107  -17.6135  -45.3404 N.am      8 UNK        -0.5000 
     35 C          -1.4071  -18.6525  -46.1680 C.2       7 UNK         0.5000 
     36 O          -1.8643  -19.7356  -45.8185 O.2       7 UNK        -0.5000 
     37 CA         -0.9484  -18.5055  -47.6260 C.3       7 UNK         0.1400 
     38 CB         -2.0828  -17.9988  -48.5235 C.3       7 UNK        -0.1800 
     39 N           0.2573  -17.6942  -47.8045 N.am      7 UNK        -0.5000 
     40 C           1.4437  -17.9784  -47.2514 C.2       6 UNK         0.5000 
     41 O           1.6047  -18.8995  -46.4473 O.2       6 UNK        -0.5000 
     42 CA          2.6642  -17.1189  -47.6301 C.3       6 UNK         0.1400 
     43 CB          3.6237  -17.9123  -48.5377 C.3       6 UNK        -0.1800 
     44 N           2.3969  -15.7911  -48.1962 N.am      6 UNK        -0.5000 
     45 C           1.8695  -15.4546  -49.3845 C.2       5 UNK         0.5000 
     46 O           1.3613  -16.2596  -50.1660 O.2       5 UNK        -0.5000 
     47 CA          1.9753  -13.9666  -49.7901 C.3       5 UNK         0.1400 
     48 CB          0.6757  -13.2089  -49.4990 C.3       5 UNK        -0.1800 
     49 N           3.0728  -13.2705  -49.1163 N.am      5 UNK        -0.5000 
     50 C           4.3737  -13.4857  -49.3573 C.2       4 UNK         0.5000 
     51 O           4.7855  -14.2238  -50.2530 O.2       4 UNK        -0.5000 
     52 CA          5.3929  -12.7771  -48.4415 C.3       4 UNK         0.1400 
     53 CB          6.0504  -11.6007  -49.1800 C.3       4 UNK        -0.1800 
     54 N           4.8512  -12.2881  -47.1690 N.am      4 UNK        -0.5000 
     55 C           4.3109  -13.0374  -46.1977 C.2       3 UNK         0.5000 
     56 O           4.1425  -14.2547  -46.2903 O.2       3 UNK        -0.5000 
     57 CA          3.8835  -12.3174  -44.9011 C.3       3 UNK         0.1400 
     58 CB          4.0813  -10.7838  -44.9258 C.3       3 UNK        -0.1800 
     59 N           2.5100  -12.6471  -44.5100 N.am      3 UNK        -0.5000 
     60 C           1.3928  -12.4352  -45.2201 C.2       2 UNK         0.5000 
     61 O           1.3747  -11.9444  -46.3515 O.2       2 UNK        -0.5000 
     62 CA          0.0793  -12.7832  -44.4938 C.3       2 UNK         0.1400 
     63 CB         -0.2549  -11.7123  -43.4425 C.3       2 UNK        -0.1800 
     64 N          -1.0643  -12.9082  -45.3936 N.am      2 UNK        -0.5000 
     65 C          -1.3022  -13.9361  -46.2178 C.2       1 UNK         0.5000 
     66 O          -0.5636  -14.9193  -46.3097 O.2       1 UNK        -0.5000 
     67 C          -3.2963  -24.4322  -43.8142 C.2       11 UNK         0.5000 
     68 O          -4.2868  -25.0836  -44.1473 O.2       11 UNK        -0.5000 
     69 N          -2.2519  -24.9596  -43.1587 N.am      12 UNK        -0.5000 
     70 CA         -2.1021  -26.3775  -42.8136 C.3       12 UNK         0.1400 
     71 CB         -0.8511  -26.5413  -41.9372 C.3       12 UNK        -0.1800 
     72 C          -2.0279  -27.3169  -44.0388 C.2       12 UNK         0.5000 
     73 O          -2.3110  -28.5075  -43.9033 O.2       12 UNK        -0.5000 
     74 N          -1.6678  -26.7647  -45.2045 N.am      13 UNK        -0.5000 
     75 CA         -1.6129  -27.4379  -46.4995 C.3       13 UNK         0.1400 
     76 CB         -0.1720  -27.3416  -47.0330 C.3       13 UNK        -0.1800 
     77 C          -2.6268  -26.8262  -47.4890 C.2       13 UNK         0.5000 
     78 O          -2.4516  -26.9808  -48.6974 O.2       13 UNK        -0.5000 
     79 N          -3.6504  -26.1203  -46.9790 N.am      14 UNK        -0.5000 
     80 CA         -4.7083  -25.4301  -47.7294 C.3       14 UNK         0.1400 
     81 CB         -5.6336  -26.4510  -48.4241 C.3       14 UNK        -0.1800 
     82 C          -4.1519  -24.3663  -48.7001 C.2       14 UNK         0.5000 
     83 O          -4.4752  -24.3760  -49.8892 O.2       14 UNK        -0.5000 
     84 N          -3.2757  -23.4983  -48.1731 N.am      15 UNK        -0.5000 
     85 CA         -2.5094  -22.4732  -48.8926 C.3       15 UNK         0.1400 
     86 CB         -3.4301  -21.3830  -49.4797 C.3       15 UNK        -0.1800 
     87 C          -1.5488  -23.0981  -49.9246 C.2       15 UNK         0.5000 
     88 O          -1.4132  -22.5882  -51.0374 O.2       15 UNK        -0.5000 
     89 N          -0.9283  -24.2220  -49.5320 N.am      16 UNK        -0.5000 
     90 CA         -0.0648  -25.0866  -50.3442 C.3       16 UNK         0.1400 
     91 CB          1.2589  -24.3670  -50.6796 C.3       16 UNK        -0.1800 
     92 C          -0.8029  -25.6186  -51.5905 C.2       16 UNK         0.5000 
     93 O          -0.3098  -25.4811  -52.7089 O.2       16 UNK        -0.5000 
     94 N          -2.0080  -26.1636  -51.3687 N.am      17 UNK        -0.5000 
     95 CA         -2.9931  -26.5774  -52.3751 C.3       17 UNK         0.1400 
     96 CB         -2.5042  -27.8277  -53.1348 C.3       17 UNK        -0.1800 
     97 C          -3.3980  -25.4145  -53.3092 C.2       17 UNK         0.5000 
     98 O          -3.4693  -25.5859  -54.5275 O.2       17 UNK        -0.5000 
     99 N          -3.6266  -24.2420  -52.7008 N.am      18 UNK        -0.5000 
    100 CA        -3.9458  -22.9502  -53.3165 C.3       18 UNK         0.1400 
    101 CB        -5.3388  -22.9952  -53.9779 C.3       18 UNK        -0.1800 
    102 C         -2.8521  -22.3930  -54.2577 C.2       18 UNK         0.5000 
    103 O         -3.1622  -21.5748  -55.1260 O.2       18 UNK        -0.5000 
    104 N         -1.5943  -22.8217  -54.0769 N.am      19 UNK        -0.5000 
    105 CA        -0.4391  -22.2961  -54.8072 C.3       19 UNK         0.1400 
    106 CB         0.6913  -23.3347  -54.8161 C.3       19 UNK        -0.1800 
    107 C          0.0641  -20.9646  -54.2216 C.2       19 UNK         0.5000 
    108 O          0.5934  -20.1415  -54.9704 O.2       19 UNK        -0.5000 
    109 N         -0.1033  -20.7701  -52.9060 N.am      20 UNK        -0.5000 
    110 CA         0.1964  -19.5166  -52.2160 C.3       20 UNK         0.1400 
    111 CB         0.3891  -19.8070  -50.7225 C.3       20 UNK        -0.1800 
    112 C         -0.9182  -18.4793  -52.4583 C.2       20 UNK         0.5000 
    113 O         -2.0519  -18.8501  -52.7741 O.2       20 UNK        -0.5000 
    114 N         -0.5758  -17.1939  -52.3239 N.am      21 UNK        -0.5000 
    115 CA        -1.4686  -16.0779  -52.6225 C.3       21 UNK         0.1400 
    116 CB        -0.6263  -14.8568  -53.0251 C.3       21 UNK        -0.1800 
    117 C         -2.3682  -15.7604  -51.4188 C.2       21 UNK         0.5000 
    118 O         -1.8593  -15.3905  -50.3628 O.2       21 UNK        -0.5000 
    119 N         -3.6863  -15.8864  -51.6014 N.am      22 UNK        -0.5000 
    120 CA        -4.7035  -15.5691  -50.5829 C.3       22 UNK         0.1400 
    121 C         -4.9274  -14.0462  -50.3344 C.2       22 UNK         0.5000 
    122 N         -4.3628  -13.1450  -51.1285 N.am      22 UNK        -0.7600 
    123 O         -5.6285  -13.6762  -49.3974 O.2       22 UNK        -0.5000 
    124 C124       -6.0463  -16.2766  -50.8908 C.3       23 UNK        -0.0398 
    125 S125       -5.9275  -18.0929  -50.7439 S.3       23 UNK        -0.2404 
    126 C126       -7.1425  -18.4376  -49.4301 C.3       23 UNK        -0.0205 
    127 H127       -4.2338   -9.9562  -48.4699 H         1 UNK         0.0600 
    128 H128       -3.1790   -9.4281  -47.1542 H         1 UNK         0.0600 
    129 H129       -4.5995  -10.4184  -46.8059 H         1 UNK         0.0600 
    130 H130       -4.0841  -12.5445  -46.3896 H         1 UNK         0.3000 
    131 H131       -2.2935  -14.0540  -48.0869 H         1 UNK         0.0600 
    132 H132       -4.3317  -15.1053  -47.4509 H         1 UNK         0.0800 
    133 H133       -3.0622  -15.9912  -46.6675 H         1 UNK         0.0800 
    134 H134       -6.6393  -15.5728  -44.5098 H         1 UNK         0.0800 
    135 H135       -6.5881  -14.7739  -46.0608 H         1 UNK         0.0800 
    136 H136       -6.9480  -16.1539  -47.9265 H         1 UNK         0.1150 
    137 H137       -6.0753  -20.3415  -47.8282 H         1 UNK         0.1150 
    138 H138       -5.1699  -17.8690  -44.4356 H         1 UNK         0.1150 
    139 H139       -5.8563  -21.2339  -45.2874 H         1 UNK         0.0800 
    140 H140       -4.3043  -20.9735  -46.0643 H         1 UNK         0.0800 
    141 H141       -4.9379  -22.4774  -43.0185 H         1 UNK         0.0800 
    142 H142       -3.4227  -22.0366  -42.2806 H         1 UNK         0.0800 
    143 H143       -3.7102  -22.9103  -45.2025 H         1 UNK         0.0600 
    144 H144       -1.4896  -21.6999  -44.0003 H         1 UNK         0.3000 
    145 H145        1.1163  -23.3552  -45.1311 H         1 UNK         0.0600 
    146 H146        0.2797  -21.5296  -47.4347 H         1 UNK         0.0600 
    147 H147        1.9245  -22.0074  -47.0456 H         1 UNK         0.0600 
    148 H148        0.7719  -23.2163  -47.5730 H         1 UNK         0.0600 
    149 H149        0.7228  -20.4749  -45.2702 H         1 UNK         0.3000 
    150 H150        1.2229  -19.9360  -41.8071 H         1 UNK         0.0600 
    151 H151        3.5294  -20.2633  -42.6754 H         1 UNK         0.0600 
    152 H152        3.0969  -18.5605  -42.6977 H         1 UNK         0.0600 
    153 H153        3.0963  -19.4909  -44.1953 H         1 UNK         0.0600 
    154 H154        0.8817  -18.4119  -44.3021 H         1 UNK         0.3000 
    155 H155       -2.5907  -17.8435  -43.8038 H         1 UNK         0.0600 
    156 H156       -1.5162  -16.2025  -42.2516 H         1 UNK         0.0600 
    157 H157       -1.8752  -15.4649  -43.7982 H         1 UNK         0.0600 
    158 H158       -0.2219  -15.9427  -43.4140 H         1 UNK         0.0600 
    159 H159       -0.8200  -16.7556  -45.7211 H         1 UNK         0.3000 
    160 H160       -0.7032  -19.5120  -47.9649 H         1 UNK         0.0600 
    161 H161       -1.8685  -18.1878  -49.5740 H         1 UNK         0.0600 
    162 H162       -2.2279  -16.9293  -48.4098 H         1 UNK         0.0600 
    163 H163       -3.0303  -18.4889  -48.2935 H         1 UNK         0.0600 
    164 H164        0.2124  -16.9331  -48.4708 H         1 UNK         0.3000 
    165 H165        3.1896  -16.9267  -46.6936 H         1 UNK         0.0600 
    166 H166        3.1633  -18.1659  -49.4930 H         1 UNK         0.0600 
    167 H167        4.5315  -17.3445  -48.7425 H         1 UNK         0.0600 
    168 H168        3.9254  -18.8477  -48.0646 H         1 UNK         0.0600 
    169 H169        2.7789  -15.0352  -47.6379 H         1 UNK         0.3000 
    170 H170        2.1583  -13.9286  -50.8657 H         1 UNK         0.0600 
    171 H171        0.3919  -13.2894  -48.4514 H         1 UNK         0.0600 
    172 H172        0.7686  -12.1494  -49.7379 H         1 UNK         0.0600 
    173 H173       -0.1492  -13.5948  -50.0922 H         1 UNK         0.0600 
    174 H174        2.8170  -12.6533  -48.3568 H         1 UNK         0.3000 
    175 H175        6.1689  -13.5081  -48.2058 H         1 UNK         0.0600 
    176 H176        5.3258  -10.8207  -49.4172 H         1 UNK         0.0600 
    177 H177        6.8447  -11.1526  -48.5827 H         1 UNK         0.0600 
    178 H178        6.4991  -11.9282  -50.1189 H         1 UNK         0.0600 
    179 H179        4.9264  -11.2938  -47.0099 H         1 UNK         0.3000 
    180 H180        4.5275  -12.7158  -44.1159 H         1 UNK         0.0600 
    181 H181        3.4893  -10.3040  -45.7062 H         1 UNK         0.0600 
    182 H182        5.1274  -10.5204  -45.0869 H         1 UNK         0.0600 
    183 H183        3.7879  -10.3404  -43.9742 H         1 UNK         0.0600 
    184 H184        2.4200  -13.0774  -43.6005 H         1 UNK         0.3000 
    185 H185        0.2203  -13.7365  -43.9836 H         1 UNK         0.0600 
    186 H186       -1.1597  -11.9701  -42.8914 H         1 UNK         0.0600 
    187 H187        0.5478  -11.6091  -42.7115 H         1 UNK         0.0600 
    188 H188       -0.4079  -10.7343  -43.9008 H         1 UNK         0.0600 
    189 H189       -1.7065  -12.1309  -45.4172 H         1 UNK         0.3000 
    190 H190       -1.4739  -24.3562  -42.9328 H         1 UNK         0.3000 
    191 H191       -2.9747  -26.6739  -42.2279 H         1 UNK         0.0600 
    192 H192        0.0526  -26.2356  -42.4660 H         1 UNK         0.0600 
    193 H193       -0.9257  -25.9463  -41.0268 H         1 UNK         0.0600 
    194 H194       -0.7186  -27.5808  -41.6340 H         1 UNK         0.0600 
    195 H195       -1.4754  -25.7688  -45.2362 H         1 UNK         0.3000 
    196 H196       -1.8719  -28.4932  -46.3972 H         1 UNK         0.0600 
    197 H197        0.5351  -27.7860  -46.3324 H         1 UNK         0.0600 
    198 H198        0.1273  -26.3054  -47.1955 H         1 UNK         0.0600 
    199 H199       -0.0626  -27.8726  -47.9793 H         1 UNK         0.0600 
    200 H200       -3.7147  -26.0390  -45.9709 H         1 UNK         0.3000 
    201 H201       -5.3070  -24.8905  -46.9942 H         1 UNK         0.0600 
    202 H202       -6.4808  -25.9513  -48.8953 H         1 UNK         0.0600 
    203 H203       -6.0369  -27.1672  -47.7084 H         1 UNK         0.0600 
    204 H204       -5.1126  -27.0110  -49.2013 H         1 UNK         0.0600 
    205 H205       -2.9763  -23.6567  -47.2182 H         1 UNK         0.3000 
    206 H206       -1.8785  -21.9847  -48.1512 H         1 UNK         0.0600 
    207 H207       -3.9761  -20.8750  -48.6874 H         1 UNK         0.0600 
    208 H208       -4.1586  -21.7876  -50.1806 H         1 UNK         0.0600 
    209 H209       -2.8602  -20.6205  -50.0109 H         1 UNK         0.0600 
    210 H210       -1.1371  -24.5637  -48.6041 H         1 UNK         0.3000 
    211 H211        0.1763  -25.9576  -49.7343 H         1 UNK         0.0600 
    212 H212        1.7726  -24.0461  -49.7737 H         1 UNK         0.0600 
    213 H213        1.9368  -25.0290  -51.2194 H         1 UNK         0.0600 
    214 H214        1.0991  -23.4860  -51.3017 H         1 UNK         0.0600 
    215 H215       -2.3005  -26.2803  -50.4002 H         1 UNK         0.3000 
    216 H216       -3.8929  -26.8548  -51.8241 H         1 UNK         0.0600 
    217 H217       -3.2808  -28.2091  -53.7987 H         1 UNK         0.0600 
    218 H218       -1.6271  -27.6142  -53.7464 H         1 UNK         0.0600 
    219 H219       -2.2448  -28.6305  -52.4447 H         1 UNK         0.0600 
    220 H220       -3.5914  -24.2321  -51.6857 H         1 UNK         0.3000 
    221 H221       -4.0026  -22.2392  -52.4923 H         1 UNK         0.0600 
    222 H222       -5.3477  -23.6375  -54.8588 H         1 UNK         0.0600 
    223 H223       -6.0923  -23.3663  -53.2831 H         1 UNK         0.0600 
    224 H224       -5.6557  -22.0009  -54.2947 H         1 UNK         0.0600 
    225 H225       -1.4061  -23.4877  -53.3376 H         1 UNK         0.3000 
    226 H226       -0.7308  -22.1165  -55.8442 H         1 UNK         0.0600 
    227 H227        0.3491  -24.2895  -55.2158 H         1 UNK         0.0600 
    228 H228        1.5220  -22.9994  -55.4382 H         1 UNK         0.0600 
    229 H229        1.0851  -23.5094  -53.8147 H         1 UNK         0.0600 
    230 H230       -0.5962  -21.4739  -52.3623 H         1 UNK         0.3000 
    231 H231        1.1337  -19.1155  -52.6077 H         1 UNK         0.0600 
    232 H232        0.7173  -18.9113  -50.1983 H         1 UNK         0.0600 
    233 H233        1.1470  -20.5734  -50.5598 H         1 UNK         0.0600 
    234 H234       -0.5351  -20.1467  -50.2587 H         1 UNK         0.0600 
    235 H235        0.3183  -16.9515  -51.9113 H         1 UNK         0.3000 
    236 H236       -2.0974  -16.3378  -53.4771 H         1 UNK         0.0600 
    237 H237       -0.0626  -15.0531  -53.9372 H         1 UNK         0.0600 
    238 H238       -1.2581  -13.9880  -53.2131 H         1 UNK         0.0600 
    239 H239        0.0864  -14.5841  -52.2473 H         1 UNK         0.0600 
    240 H240       -4.0336  -16.2222  -52.4877 H         1 UNK         0.3000 
    241 H241       -4.3419  -15.9658  -49.6329 H         1 UNK         0.0600 
    242 H242       -3.7803  -13.4297  -51.8981 H         1 UNK         0.3800 
    243 H243       -4.5146  -12.1654  -50.9500 H         1 UNK         0.3800 
    244 H244       -6.8367  -15.9192  -50.2303 H         1 UNK         0.0800 
    245 H245       -6.3796  -16.0327  -51.9007 H         1 UNK         0.0800 
    246 H246       -7.4946  -19.4628  -49.5540 H         1 UNK         0.0800 
    247 H247       -8.0249  -17.8082  -49.5537 H         1 UNK         0.0800 
@<TRIPOS>BOND
     1    1    2 1    
     2    1  127 1    
     3    1  128 1    
     4    1  129 1    
     5    2    3 2    
     6    2    4 am   BACKBONE|DICT|INTERRES
     7    4    5 1    
     8    4  130 1    
     9    5    6 1    
    10    5   65 1    
    11    5  131 1    
    12    6    7 1    
    13    6  132 1    
    14    6  133 1    
    15    7    8 1    
    16    8    9 1    
    17    8  134 1    
    18    8  135 1    
    19    9   10 ar   
    20    9   14 ar   
    21   10   11 ar   
    22   10  136 1    
    23   11   12 ar   
    24   11  126 1    
    25   12   13 ar   
    26   12  137 1    
    27   13   14 ar   
    28   13   15 1    
    29   14  138 1    
    30   15   16 1    
    31   15  139 1    
    32   15  140 1    
    33   16   17 1    
    34   17   18 1    
    35   17  141 1    
    36   17  142 1    
    37   18   19 1    
    38   18   67 1    
    39   18  143 1    
    40   19   20 am   BACKBONE|DICT|INTERRES
    41   19  144 1    
    42   20   21 2    
    43   20   22 1    
    44   22   23 1    
    45   22   24 1    
    46   22  145 1    
    47   23  146 1    
    48   23  147 1    
    49   23  148 1    
    50   24   25 am   BACKBONE|DICT|INTERRES
    51   24  149 1    
    52   25   26 2    
    53   25   27 1    
    54   27   28 1    
    55   27   29 1    
    56   27  150 1    
    57   28  151 1    
    58   28  152 1    
    59   28  153 1    
    60   29   30 am   BACKBONE|DICT|INTERRES
    61   29  154 1    
    62   30   31 2    
    63   30   32 1    
    64   32   33 1    
    65   32   34 1    
    66   32  155 1    
    67   33  156 1    
    68   33  157 1    
    69   33  158 1    
    70   34   35 am   BACKBONE|DICT|INTERRES
    71   34  159 1    
    72   35   36 2    
    73   35   37 1    
    74   37   38 1    
    75   37   39 1    
    76   37  160 1    
    77   38  161 1    
    78   38  162 1    
    79   38  163 1    
    80   39   40 am   BACKBONE|DICT|INTERRES
    81   39  164 1    
    82   40   41 2    
    83   40   42 1    
    84   42   43 1    
    85   42   44 1    
    86   42  165 1    
    87   43  166 1    
    88   43  167 1    
    89   43  168 1    
    90   44   45 am   BACKBONE|DICT|INTERRES
    91   44  169 1    
    92   45   46 2    
    93   45   47 1    
    94   47   48 1    
    95   47   49 1    
    96   47  170 1    
    97   48  171 1    
    98   48  172 1    
    99   48  173 1    
   100   49   50 am   BACKBONE|DICT|INTERRES
   101   49  174 1    
   102   50   51 2    
   103   50   52 1    
   104   52   53 1    
   105   52   54 1    
   106   52  175 1    
   107   53  176 1    
   108   53  177 1    
   109   53  178 1    
   110   54   55 am   BACKBONE|DICT|INTERRES
   111   54  179 1    
   112   55   56 2    
   113   55   57 1    
   114   57   58 1    
   115   57   59 1    
   116   57  180 1    
   117   58  181 1    
   118   58  182 1    
   119   58  183 1    
   120   59   60 am   BACKBONE|DICT|INTERRES
   121   59  184 1    
   122   60   61 2    
   123   60   62 1    
   124   62   63 1    
   125   62   64 1    
   126   62  185 1    
   127   63  186 1    
   128   63  187 1    
   129   63  188 1    
   130   64   65 am   BACKBONE|DICT|INTERRES
   131   64  189 1    
   132   65   66 2    
   133   67   68 2    
   134   67   69 am   BACKBONE|DICT|INTERRES
   135   69   70 1    
   136   69  190 1    
   137   70   71 1    
   138   70   72 1    
   139   70  191 1    
   140   71  192 1    
   141   71  193 1    
   142   71  194 1    
   143   72   73 2    
   144   72   74 am   BACKBONE|DICT|INTERRES
   145   74   75 1    
   146   74  195 1    
   147   75   76 1    
   148   75   77 1    
   149   75  196 1    
   150   76  197 1    
   151   76  198 1    
   152   76  199 1    
   153   77   78 2    
   154   77   79 am   BACKBONE|DICT|INTERRES
   155   79   80 1    
   156   79  200 1    
   157   80   81 1    
   158   80   82 1    
   159   80  201 1    
   160   81  202 1    
   161   81  203 1    
   162   81  204 1    
   163   82   83 2    
   164   82   84 am   BACKBONE|DICT|INTERRES
   165   84   85 1    
   166   84  205 1    
   167   85   86 1    
   168   85   87 1    
   169   85  206 1    
   170   86  207 1    
   171   86  208 1    
   172   86  209 1    
   173   87   88 2    
   174   87   89 am   BACKBONE|DICT|INTERRES
   175   89   90 1    
   176   89  210 1    
   177   90   91 1    
   178   90   92 1    
   179   90  211 1    
   180   91  212 1    
   181   91  213 1    
   182   91  214 1    
   183   92   93 2    
   184   92   94 am   BACKBONE|DICT|INTERRES
   185   94   95 1    
   186   94  215 1    
   187   95   96 1    
   188   95   97 1    
   189   95  216 1    
   190   96  217 1    
   191   96  218 1    
   192   96  219 1    
   193   97   98 2    
   194   97   99 am   BACKBONE|DICT|INTERRES
   195   99  100 1    
   196   99  220 1    
   197  100  101 1    
   198  100  102 1    
   199  100  221 1    
   200  101  222 1    
   201  101  223 1    
   202  101  224 1    
   203  102  103 2    
   204  102  104 am   BACKBONE|DICT|INTERRES
   205  104  105 1    
   206  104  225 1    
   207  105  106 1    
   208  105  107 1    
   209  105  226 1    
   210  106  227 1    
   211  106  228 1    
   212  106  229 1    
   213  107  108 2    
   214  107  109 am   BACKBONE|DICT|INTERRES
   215  109  110 1    
   216  109  230 1    
   217  110  111 1    
   218  110  112 1    
   219  110  231 1    
   220  111  232 1    
   221  111  233 1    
   222  111  234 1    
   223  112  113 2    
   224  112  114 am   BACKBONE|DICT|INTERRES
   225  114  115 1    
   226  114  235 1    
   227  115  116 1    
   228  115  117 1    
   229  115  236 1    
   230  116  237 1    
   231  116  238 1    
   232  116  239 1    
   233  117  118 2    
   234  117  119 am   BACKBONE|DICT|INTERRES
   235  119  120 1    
   236  119  240 1    
   237  120  121 1    
   238  120  124 1    
   239  120  241 1    
   240  121  122 am   BACKBONE|DICT|INTERRES
   241  121  123 2    
   242  122  242 1    
   243  122  243 1    
   244  124  125 1    
   245  124  244 1    
   246  124  245 1    
   247  125  126 1    
   248  126  246 1    
   249  126  247 1    
@<TRIPOS>SUBSTRUCTURE
     1 UNK         1 GROUP             0       ****    0 ROOT    
