@<TRIPOS>MOLECULE
3R540
247   249    1
SMALL
USER_CHARGES


@<TRIPOS>ATOM
      1 CA         -3.1298  -14.8688  -42.2458 C.3       0 UNK        -0.1800 
      2 C          -3.2215  -13.9441  -43.4518 C.2       0 UNK         0.5000 
      3 O          -4.2654  -13.8843  -44.1010 O.2       0 UNK        -0.5000 
      4 N          -2.1362  -13.2251  -43.7531 N.am      1 UNK        -0.5000 
      5 CA         -2.0072  -12.2826  -44.8623 C.3       1 UNK         0.1400 
      6 C6         -1.9722  -12.9863  -46.2477 C.3       23 UNK        -0.0398 
      7 S7         -2.6165  -11.9197  -47.5836 S.3       23 UNK        -0.2404 
      8 C8         -3.3645  -13.1446  -48.7032 C.3       23 UNK        -0.0205 
      9 C9         -2.3143  -13.8607  -49.5393 C.ar      23 UNK        -0.0193 
     10 C10        -2.0722  -13.4636  -50.8581 C.ar      23 UNK        -0.1150 
     11 C11        -1.1283  -14.1366  -51.6395 C.ar      23 UNK        -0.0193 
     12 C12        -0.4083  -15.1986  -51.0865 C.ar      23 UNK        -0.1150 
     13 C13        -0.6386  -15.6014  -49.7700 C.ar      23 UNK        -0.0193 
     14 C14        -1.5954  -14.9327  -49.0029 C.ar      23 UNK        -0.1150 
     15 C15         0.1409  -16.7660  -49.1848 C.3       23 UNK        -0.0205 
     16 S16        -0.7066  -18.3440  -49.4962 S.3       23 UNK        -0.2404 
     17 C17        -2.0858  -18.2393  -48.3059 C.3       23 UNK        -0.0398 
     18 CA         -2.5110  -19.6333  -47.8007 C.3       11 UNK         0.1400 
     19 N          -1.4656  -20.2991  -47.0193 N.am      11 UNK        -0.5000 
     20 C          -1.4683  -21.6040  -46.7211 C.2       10 UNK         0.5000 
     21 O          -2.3524  -22.3799  -47.0801 O.2       10 UNK        -0.5000 
     22 CA         -0.3236  -22.1263  -45.8379 C.3       10 UNK         0.1400 
     23 CB          0.9592  -22.3207  -46.6593 C.3       10 UNK        -0.1800 
     24 N          -0.0641  -21.2585  -44.6887 N.am      10 UNK        -0.5000 
     25 C          -0.9459  -21.0361  -43.7028 C.2       9 UNK         0.5000 
     26 O          -2.0535  -21.5709  -43.6459 O.2       9 UNK        -0.5000 
     27 CA         -0.5427  -20.0231  -42.6163 C.3       9 UNK         0.1400 
     28 CB          0.3805  -20.6799  -41.5796 C.3       9 UNK        -0.1800 
     29 N           0.0977  -18.8256  -43.1618 N.am      9 UNK        -0.5000 
     30 C          -0.5042  -17.9487  -43.9793 C.2       8 UNK         0.5000 
     31 O          -1.6798  -18.0336  -44.3314 O.2       8 UNK        -0.5000 
     32 CA          0.3695  -16.8199  -44.5536 C.3       8 UNK         0.1400 
     33 CB          0.5983  -15.7124  -43.5147 C.3       8 UNK        -0.1800 
     34 N           1.6594  -17.3025  -45.0401 N.am      8 UNK        -0.5000 
     35 C           1.8287  -18.2322  -45.9889 C.2       7 UNK         0.5000 
     36 O           0.9035  -18.7753  -46.5882 O.2       7 UNK        -0.5000 
     37 CA          3.2740  -18.6650  -46.2739 C.3       7 UNK         0.1400 
     38 CB          4.0077  -17.6138  -47.1218 C.3       7 UNK        -0.1800 
     39 N           4.0130  -18.9132  -45.0365 N.am      7 UNK        -0.5000 
     40 C           3.7732  -19.9369  -44.2050 C.2       6 UNK         0.5000 
     41 O           2.9191  -20.7997  -44.4086 O.2       6 UNK        -0.5000 
     42 CA          4.6079  -19.9856  -42.9124 C.3       6 UNK         0.1400 
     43 CB          5.9831  -20.6164  -43.1774 C.3       6 UNK        -0.1800 
     44 N           4.7872  -18.6661  -42.3048 N.am      6 UNK        -0.5000 
     45 C           3.7959  -17.9493  -41.7581 C.2       5 UNK         0.5000 
     46 O           2.6264  -18.3286  -41.7007 O.2       5 UNK        -0.5000 
     47 CA          4.1653  -16.5512  -41.2277 C.3       5 UNK         0.1400 
     48 CB          4.7782  -16.6512  -39.8226 C.3       5 UNK        -0.1800 
     49 N           5.0644  -15.7841  -42.0987 N.am      5 UNK        -0.5000 
     50 C           4.8285  -15.5062  -43.3875 C.2       4 UNK         0.5000 
     51 O           3.8991  -15.9924  -44.0333 O.2       4 UNK        -0.5000 
     52 CA          5.7953  -14.5326  -44.0869 C.3       4 UNK         0.1400 
     53 CB          6.9425  -15.3094  -44.7506 C.3       4 UNK        -0.1800 
     54 N           5.0988  -13.7463  -45.1093 N.am      4 UNK        -0.5000 
     55 C           4.0967  -12.8946  -44.8531 C.2       3 UNK         0.5000 
     56 O           3.7692  -12.5497  -43.7131 O.2       3 UNK        -0.5000 
     57 CA          3.3221  -12.3616  -46.0699 C.3       3 UNK         0.1400 
     58 CB          2.6456  -13.5038  -46.8560 C.3       3 UNK        -0.1800 
     59 N           2.2972  -11.4369  -45.6017 N.am      3 UNK        -0.5000 
     60 C           1.8130  -10.3799  -46.2560 C.2       2 UNK         0.5000 
     61 O           2.1885  -10.0399  -47.3795 O.2       2 UNK        -0.5000 
     62 CA          0.6846   -9.6100  -45.5365 C.3       2 UNK         0.1400 
     63 CB          0.3449   -8.2746  -46.2224 C.3       2 UNK        -0.1800 
     64 N          -0.5290  -10.4253  -45.4696 N.am      2 UNK        -0.5000 
     65 C          -0.7417  -11.4379  -44.6209 C.2       1 UNK         0.5000 
     66 O           0.0318  -11.7332  -43.7038 O.2       1 UNK        -0.5000 
     67 C          -3.8545  -19.5683  -47.0466 C.2       11 UNK         0.5000 
     68 O          -4.8971  -19.7250  -47.6812 O.2       11 UNK        -0.5000 
     69 N          -3.8261  -19.4065  -45.7147 N.am      12 UNK        -0.5000 
     70 CA         -5.0094  -19.4890  -44.8496 C.3       12 UNK         0.1400 
     71 CB         -4.6503  -19.0312  -43.4283 C.3       12 UNK        -0.1800 
     72 C          -5.6397  -20.8970  -44.8303 C.2       12 UNK         0.5000 
     73 O          -6.8618  -21.0159  -44.7426 O.2       12 UNK        -0.5000 
     74 N          -4.8005  -21.9318  -44.9709 N.am      13 UNK        -0.5000 
     75 CA         -5.1942  -23.3293  -45.1644 C.3       13 UNK         0.1400 
     76 CB         -4.0789  -24.2325  -44.6106 C.3       13 UNK        -0.1800 
     77 C          -5.5020  -23.6732  -46.6399 C.2       13 UNK         0.5000 
     78 O          -5.7116  -24.8472  -46.9521 O.2       13 UNK        -0.5000 
     79 N          -5.4882  -22.6675  -47.5302 N.am      14 UNK        -0.5000 
     80 CA         -5.7161  -22.7426  -48.9772 C.3       14 UNK         0.1400 
     81 CB         -7.1938  -23.0764  -49.2697 C.3       14 UNK        -0.1800 
     82 C          -4.7390  -23.6922  -49.6988 C.2       14 UNK         0.5000 
     83 O          -5.1326  -24.3552  -50.6565 O.2       14 UNK        -0.5000 
     84 N          -3.4990  -23.7820  -49.1937 N.am      15 UNK        -0.5000 
     85 CA         -2.4320  -24.6962  -49.6148 C.3       15 UNK         0.1400 
     86 CB         -1.8826  -24.2876  -50.9971 C.3       15 UNK        -0.1800 
     87 C          -2.8415  -26.1846  -49.5288 C.2       15 UNK         0.5000 
     88 O          -2.4155  -26.9893  -50.3575 O.2       15 UNK        -0.5000 
     89 N          -3.6774  -26.5098  -48.5285 N.am      16 UNK        -0.5000 
     90 CA         -4.3555  -27.7937  -48.3199 C.3       16 UNK         0.1400 
     91 CB         -3.3482  -28.9321  -48.0515 C.3       16 UNK        -0.1800 
     92 C          -5.3557  -28.1029  -49.4547 C.2       16 UNK         0.5000 
     93 O          -5.4097  -29.2307  -49.9481 O.2       16 UNK        -0.5000 
     94 N          -6.1259  -27.0720  -49.8339 N.am      17 UNK        -0.5000 
     95 CA         -7.1091  -27.0261  -50.9193 C.3       17 UNK         0.1400 
     96 CB         -8.2903  -27.9789  -50.6387 C.3       17 UNK        -0.1800 
     97 C          -6.4573  -27.2429  -52.3001 C.2       17 UNK         0.5000 
     98 O          -6.8117  -28.1820  -53.0166 O.2       17 UNK        -0.5000 
     99 N          -5.5080  -26.3649  -52.6419 N.am      18 UNK        -0.5000 
    100 CA        -4.7900  -26.3511  -53.9130 C.3       18 UNK         0.1400 
    101 CB        -3.3934  -26.9620  -53.7132 C.3       18 UNK        -0.1800 
    102 C         -4.6883  -24.9150  -54.4492 C.2       18 UNK         0.5000 
    103 O         -4.7916  -23.9509  -53.6890 O.2       18 UNK        -0.5000 
    104 N         -4.4493  -24.7969  -55.7607 N.am      19 UNK        -0.5000 
    105 CA        -4.3419  -23.5273  -56.4884 C.3       19 UNK         0.1400 
    106 CB        -4.4892  -23.8155  -57.9917 C.3       19 UNK        -0.1800 
    107 C         -3.0439  -22.7372  -56.2110 C.2       19 UNK         0.5000 
    108 O         -2.9144  -21.6096  -56.6883 O.2       19 UNK        -0.5000 
    109 N         -2.1007  -23.3367  -55.4704 N.am      20 UNK        -0.5000 
    110 CA        -0.8021  -22.7583  -55.1221 C.3       20 UNK         0.1400 
    111 CB         0.0724  -23.8468  -54.4819 C.3       20 UNK        -0.1800 
    112 C         -0.8866  -21.5229  -54.2039 C.2       20 UNK         0.5000 
    113 O         -0.0028  -20.6667  -54.2747 O.2       20 UNK        -0.5000 
    114 N         -1.9380  -21.4374  -53.3748 N.am      21 UNK        -0.5000 
    115 CA        -2.2142  -20.3071  -52.4858 C.3       21 UNK         0.1400 
    116 CB        -3.3956  -20.6578  -51.5667 C.3       21 UNK        -0.1800 
    117 C         -2.4853  -19.0215  -53.2902 C.2       21 UNK         0.5000 
    118 O         -3.5479  -18.9022  -53.9033 O.2       21 UNK        -0.5000 
    119 N         -1.5000  -18.1135  -53.3056 N.am      22 UNK        -0.5000 
    120 CA        -1.4592  -16.9098  -54.1556 C.3       22 UNK         0.1400 
    121 C         -1.2928  -17.2214  -55.6781 C.2       22 UNK         0.5000 
    122 N         -0.7528  -18.3759  -56.0526 N.am      22 UNK        -0.7600 
    123 O         -1.6285  -16.4103  -56.5363 O.2       22 UNK        -0.5000 
    124 C124       -2.6118  -15.9166  -53.8219 C.3       23 UNK        -0.0398 
    125 S125       -2.2699  -14.1560  -54.1913 S.3       23 UNK        -0.2404 
    126 C126       -0.8854  -13.7240  -53.0831 C.3       23 UNK        -0.0205 
    127 H127       -2.2531  -14.6512  -41.6353 H         1 UNK         0.0600 
    128 H128       -3.0695  -15.9065  -42.5742 H         1 UNK         0.0600 
    129 H129       -4.0136  -14.7590  -41.6173 H         1 UNK         0.0600 
    130 H130       -1.3106  -13.2553  -43.1660 H         1 UNK         0.3000 
    131 H131       -2.8651  -11.6086  -44.8101 H         1 UNK         0.0600 
    132 H132       -0.9671  -13.3273  -46.5043 H         1 UNK         0.0800 
    133 H133       -2.5873  -13.8854  -46.2215 H         1 UNK         0.0800 
    134 H134       -3.9542  -13.8663  -48.1360 H         1 UNK         0.0800 
    135 H135       -4.0708  -12.6295  -49.3560 H         1 UNK         0.0800 
    136 H136       -2.6280  -12.6401  -51.2845 H         1 UNK         0.1150 
    137 H137        0.3264  -15.7215  -51.6819 H         1 UNK         0.1150 
    138 H138       -1.7824  -15.2509  -47.9884 H         1 UNK         0.1150 
    139 H139        1.1367  -16.8080  -49.6283 H         1 UNK         0.0800 
    140 H140        0.2932  -16.6223  -48.1147 H         1 UNK         0.0800 
    141 H141       -2.9138  -17.7350  -48.8079 H         1 UNK         0.0800 
    142 H142       -1.8005  -17.6111  -47.4604 H         1 UNK         0.0800 
    143 H143       -2.6902  -20.2550  -48.6802 H         1 UNK         0.0600 
    144 H144       -0.6709  -19.7277  -46.7373 H         1 UNK         0.3000 
    145 H145       -0.6254  -23.1028  -45.4535 H         1 UNK         0.0600 
    146 H146        1.7476  -22.7712  -46.0563 H         1 UNK         0.0600 
    147 H147        0.7817  -22.9812  -47.5089 H         1 UNK         0.0600 
    148 H148        1.3371  -21.3767  -47.0516 H         1 UNK         0.0600 
    149 H149        0.8427  -20.8059  -44.6550 H         1 UNK         0.3000 
    150 H150       -1.4542  -19.7074  -42.1047 H         1 UNK         0.0600 
    151 H151       -0.0770  -21.5766  -41.1599 H         1 UNK         0.0600 
    152 H152        0.5861  -20.0021  -40.7510 H         1 UNK         0.0600 
    153 H153        1.3356  -20.9711  -42.0183 H         1 UNK         0.0600 
    154 H154        1.0629  -18.6647  -42.8899 H         1 UNK         0.3000 
    155 H155       -0.1642  -16.3870  -45.4022 H         1 UNK         0.0600 
    156 H156       -0.3469  -15.3552  -43.1098 H         1 UNK         0.0600 
    157 H157        1.1112  -14.8565  -43.9541 H         1 UNK         0.0600 
    158 H158        1.1992  -16.0660  -42.6768 H         1 UNK         0.0600 
    159 H159        2.4884  -16.8938  -44.6100 H         1 UNK         0.3000 
    160 H160        3.2389  -19.5958  -46.8439 H         1 UNK         0.0600 
    161 H161        4.0865  -16.6561  -46.6071 H         1 UNK         0.0600 
    162 H162        3.4812  -17.4371  -48.0606 H         1 UNK         0.0600 
    163 H163        5.0161  -17.9435  -47.3715 H         1 UNK         0.0600 
    164 H164        4.6743  -18.2051  -44.7537 H         1 UNK         0.3000 
    165 H165        4.0758  -20.6181  -42.1984 H         1 UNK         0.0600 
    166 H166        6.5494  -20.7299  -42.2528 H         1 UNK         0.0600 
    167 H167        5.8783  -21.6092  -43.6170 H         1 UNK         0.0600 
    168 H168        6.5787  -20.0142  -43.8646 H         1 UNK         0.0600 
    169 H169        5.7164  -18.2724  -42.3213 H         1 UNK         0.3000 
    170 H170        3.2364  -15.9830  -41.1486 H         1 UNK         0.0600 
    171 H171        4.1226  -17.2043  -39.1486 H         1 UNK         0.0600 
    172 H172        5.7410  -17.1633  -39.8380 H         1 UNK         0.0600 
    173 H173        4.9297  -15.6635  -39.3867 H         1 UNK         0.0600 
    174 H174        5.8627  -15.3594  -41.6492 H         1 UNK         0.3000 
    175 H175        6.2091  -13.8463  -43.3454 H         1 UNK         0.0600 
    176 H176        6.5742  -16.0052  -45.5059 H         1 UNK         0.0600 
    177 H177        7.6492  -14.6338  -45.2329 H         1 UNK         0.0600 
    178 H178        7.5005  -15.8894  -44.0144 H         1 UNK         0.0600 
    179 H179        5.2952  -13.9911  -46.0681 H         1 UNK         0.3000 
    180 H180        4.0281  -11.8348  -46.7150 H         1 UNK         0.0600 
    181 H181        2.0547  -13.1175  -47.6868 H         1 UNK         0.0600 
    182 H182        1.9810  -14.0899  -46.2198 H         1 UNK         0.0600 
    183 H183        3.3817  -14.1882  -47.2783 H         1 UNK         0.0600 
    184 H184        1.9494  -11.6339  -44.6679 H         1 UNK         0.3000 
    185 H185        1.0256   -9.3881  -44.5229 H         1 UNK         0.0600 
    186 H186       -0.0289   -8.4236  -47.2362 H         1 UNK         0.0600 
    187 H187       -0.4141   -7.7273  -45.6632 H         1 UNK         0.0600 
    188 H188        1.2252   -7.6337  -46.2864 H         1 UNK         0.0600 
    189 H189       -1.1926  -10.2873  -46.2200 H         1 UNK         0.3000 
    190 H190       -2.9411  -19.2125  -45.2545 H         1 UNK         0.3000 
    191 H191       -5.7593  -18.8004  -45.2445 H         1 UNK         0.0600 
    192 H192       -3.8729  -19.6552  -42.9877 H         1 UNK         0.0600 
    193 H193       -4.2954  -18.0007  -43.4254 H         1 UNK         0.0600 
    194 H194       -5.5197  -19.0763  -42.7713 H         1 UNK         0.0600 
    195 H195       -3.8046  -21.7444  -44.9874 H         1 UNK         0.3000 
    196 H196       -6.1029  -23.5264  -44.5923 H         1 UNK         0.0600 
    197 H197       -3.8721  -24.0054  -43.5646 H         1 UNK         0.0600 
    198 H198       -3.1490  -24.1121  -45.1667 H         1 UNK         0.0600 
    199 H199       -4.3595  -25.2851  -44.6634 H         1 UNK         0.0600 
    200 H200       -5.2771  -21.7386  -47.1869 H         1 UNK         0.3000 
    201 H201       -5.5166  -21.7477  -49.3763 H         1 UNK         0.0600 
    202 H202       -7.4066  -23.0135  -50.3376 H         1 UNK         0.0600 
    203 H203       -7.8613  -22.3770  -48.7665 H         1 UNK         0.0600 
    204 H204       -7.4550  -24.0832  -48.9424 H         1 UNK         0.0600 
    205 H205       -3.2653  -23.2081  -48.3840 H         1 UNK         0.3000 
    206 H206       -1.6232  -24.5715  -48.8935 H         1 UNK         0.0600 
    207 H207       -1.4913  -23.2709  -50.9769 H         1 UNK         0.0600 
    208 H208       -2.6498  -24.3353  -51.7696 H         1 UNK         0.0600 
    209 H209       -1.0631  -24.9383  -51.3035 H         1 UNK         0.0600 
    210 H210       -4.0005  -25.7615  -47.9265 H         1 UNK         0.3000 
    211 H211       -4.9545  -27.6729  -47.4161 H         1 UNK         0.0600 
    212 H212       -2.6605  -28.6686  -47.2480 H         1 UNK         0.0600 
    213 H213       -3.8655  -29.8434  -47.7498 H         1 UNK         0.0600 
    214 H214       -2.7569  -29.1733  -48.9349 H         1 UNK         0.0600 
    215 H215       -5.9427  -26.1797  -49.3953 H         1 UNK         0.3000 
    216 H216       -7.5079  -26.0105  -50.9257 H         1 UNK         0.0600 
    217 H217       -9.0679  -27.8648  -51.3947 H         1 UNK         0.0600 
    218 H218       -7.9838  -29.0252  -50.6434 H         1 UNK         0.0600 
    219 H219       -8.7451  -27.7672  -49.6711 H         1 UNK         0.0600 
    220 H220       -5.3062  -25.5827  -52.0178 H         1 UNK         0.3000 
    221 H221       -5.3321  -26.9413  -54.6548 H         1 UNK         0.0600 
    222 H222       -2.7929  -26.3755  -53.0183 H         1 UNK         0.0600 
    223 H223       -3.4609  -27.9756  -53.3171 H         1 UNK         0.0600 
    224 H224       -2.8467  -27.0171  -54.6550 H         1 UNK         0.0600 
    225 H225       -4.3566  -25.6349  -56.3172 H         1 UNK         0.3000 
    226 H226       -5.1735  -22.8887  -56.1828 H         1 UNK         0.0600 
    227 H227       -5.4371  -24.3084  -58.2086 H         1 UNK         0.0600 
    228 H228       -4.4664  -22.8931  -58.5736 H         1 UNK         0.0600 
    229 H229       -3.6852  -24.4547  -58.3587 H         1 UNK         0.0600 
    230 H230       -2.2912  -24.2655  -55.1269 H         1 UNK         0.3000 
    231 H231       -0.3214  -22.4391  -56.0492 H         1 UNK         0.0600 
    232 H232        1.0557  -23.4548  -54.2185 H         1 UNK         0.0600 
    233 H233        0.2295  -24.6804  -55.1666 H         1 UNK         0.0600 
    234 H234       -0.3787  -24.2411  -53.5714 H         1 UNK         0.0600 
    235 H235       -2.6423  -22.1605  -53.4183 H         1 UNK         0.3000 
    236 H236       -1.3363  -20.1504  -51.8562 H         1 UNK         0.0600 
    237 H237       -3.6761  -19.8052  -50.9468 H         1 UNK         0.0600 
    238 H238       -4.2774  -20.9567  -52.1351 H         1 UNK         0.0600 
    239 H239       -3.1362  -21.4742  -50.8953 H         1 UNK         0.0600 
    240 H240       -0.6518  -18.3163  -52.7957 H         1 UNK         0.3000 
    241 H241       -0.5223  -16.4271  -53.8833 H         1 UNK         0.0600 
    242 H242       -0.6451  -18.5738  -57.0346 H         1 UNK         0.3800 
    243 H243       -0.4659  -19.0664  -55.3668 H         1 UNK         0.3800 
    244 H244       -3.5218  -16.2046  -54.3500 H         1 UNK         0.0800 
    245 H245       -2.8642  -15.9802  -52.7626 H         1 UNK         0.0800 
    246 H246        0.0338  -14.1703  -53.4645 H         1 UNK         0.0800 
    247 H247       -0.7306  -12.6450  -53.1233 H         1 UNK         0.0800 
@<TRIPOS>BOND
     1    1    2 1    
     2    1  127 1    
     3    1  128 1    
     4    1  129 1    
     5    2    3 2    
     6    2    4 am   BACKBONE|DICT|INTERRES
     7    4    5 1    
     8    4  130 1    
     9    5    6 1    
    10    5   65 1    
    11    5  131 1    
    12    6    7 1    
    13    6  132 1    
    14    6  133 1    
    15    7    8 1    
    16    8    9 1    
    17    8  134 1    
    18    8  135 1    
    19    9   10 ar   
    20    9   14 ar   
    21   10   11 ar   
    22   10  136 1    
    23   11   12 ar   
    24   11  126 1    
    25   12   13 ar   
    26   12  137 1    
    27   13   14 ar   
    28   13   15 1    
    29   14  138 1    
    30   15   16 1    
    31   15  139 1    
    32   15  140 1    
    33   16   17 1    
    34   17   18 1    
    35   17  141 1    
    36   17  142 1    
    37   18   19 1    
    38   18   67 1    
    39   18  143 1    
    40   19   20 am   BACKBONE|DICT|INTERRES
    41   19  144 1    
    42   20   21 2    
    43   20   22 1    
    44   22   23 1    
    45   22   24 1    
    46   22  145 1    
    47   23  146 1    
    48   23  147 1    
    49   23  148 1    
    50   24   25 am   BACKBONE|DICT|INTERRES
    51   24  149 1    
    52   25   26 2    
    53   25   27 1    
    54   27   28 1    
    55   27   29 1    
    56   27  150 1    
    57   28  151 1    
    58   28  152 1    
    59   28  153 1    
    60   29   30 am   BACKBONE|DICT|INTERRES
    61   29  154 1    
    62   30   31 2    
    63   30   32 1    
    64   32   33 1    
    65   32   34 1    
    66   32  155 1    
    67   33  156 1    
    68   33  157 1    
    69   33  158 1    
    70   34   35 am   BACKBONE|DICT|INTERRES
    71   34  159 1    
    72   35   36 2    
    73   35   37 1    
    74   37   38 1    
    75   37   39 1    
    76   37  160 1    
    77   38  161 1    
    78   38  162 1    
    79   38  163 1    
    80   39   40 am   BACKBONE|DICT|INTERRES
    81   39  164 1    
    82   40   41 2    
    83   40   42 1    
    84   42   43 1    
    85   42   44 1    
    86   42  165 1    
    87   43  166 1    
    88   43  167 1    
    89   43  168 1    
    90   44   45 am   BACKBONE|DICT|INTERRES
    91   44  169 1    
    92   45   46 2    
    93   45   47 1    
    94   47   48 1    
    95   47   49 1    
    96   47  170 1    
    97   48  171 1    
    98   48  172 1    
    99   48  173 1    
   100   49   50 am   BACKBONE|DICT|INTERRES
   101   49  174 1    
   102   50   51 2    
   103   50   52 1    
   104   52   53 1    
   105   52   54 1    
   106   52  175 1    
   107   53  176 1    
   108   53  177 1    
   109   53  178 1    
   110   54   55 am   BACKBONE|DICT|INTERRES
   111   54  179 1    
   112   55   56 2    
   113   55   57 1    
   114   57   58 1    
   115   57   59 1    
   116   57  180 1    
   117   58  181 1    
   118   58  182 1    
   119   58  183 1    
   120   59   60 am   BACKBONE|DICT|INTERRES
   121   59  184 1    
   122   60   61 2    
   123   60   62 1    
   124   62   63 1    
   125   62   64 1    
   126   62  185 1    
   127   63  186 1    
   128   63  187 1    
   129   63  188 1    
   130   64   65 am   BACKBONE|DICT|INTERRES
   131   64  189 1    
   132   65   66 2    
   133   67   68 2    
   134   67   69 am   BACKBONE|DICT|INTERRES
   135   69   70 1    
   136   69  190 1    
   137   70   71 1    
   138   70   72 1    
   139   70  191 1    
   140   71  192 1    
   141   71  193 1    
   142   71  194 1    
   143   72   73 2    
   144   72   74 am   BACKBONE|DICT|INTERRES
   145   74   75 1    
   146   74  195 1    
   147   75   76 1    
   148   75   77 1    
   149   75  196 1    
   150   76  197 1    
   151   76  198 1    
   152   76  199 1    
   153   77   78 2    
   154   77   79 am   BACKBONE|DICT|INTERRES
   155   79   80 1    
   156   79  200 1    
   157   80   81 1    
   158   80   82 1    
   159   80  201 1    
   160   81  202 1    
   161   81  203 1    
   162   81  204 1    
   163   82   83 2    
   164   82   84 am   BACKBONE|DICT|INTERRES
   165   84   85 1    
   166   84  205 1    
   167   85   86 1    
   168   85   87 1    
   169   85  206 1    
   170   86  207 1    
   171   86  208 1    
   172   86  209 1    
   173   87   88 2    
   174   87   89 am   BACKBONE|DICT|INTERRES
   175   89   90 1    
   176   89  210 1    
   177   90   91 1    
   178   90   92 1    
   179   90  211 1    
   180   91  212 1    
   181   91  213 1    
   182   91  214 1    
   183   92   93 2    
   184   92   94 am   BACKBONE|DICT|INTERRES
   185   94   95 1    
   186   94  215 1    
   187   95   96 1    
   188   95   97 1    
   189   95  216 1    
   190   96  217 1    
   191   96  218 1    
   192   96  219 1    
   193   97   98 2    
   194   97   99 am   BACKBONE|DICT|INTERRES
   195   99  100 1    
   196   99  220 1    
   197  100  101 1    
   198  100  102 1    
   199  100  221 1    
   200  101  222 1    
   201  101  223 1    
   202  101  224 1    
   203  102  103 2    
   204  102  104 am   BACKBONE|DICT|INTERRES
   205  104  105 1    
   206  104  225 1    
   207  105  106 1    
   208  105  107 1    
   209  105  226 1    
   210  106  227 1    
   211  106  228 1    
   212  106  229 1    
   213  107  108 2    
   214  107  109 am   BACKBONE|DICT|INTERRES
   215  109  110 1    
   216  109  230 1    
   217  110  111 1    
   218  110  112 1    
   219  110  231 1    
   220  111  232 1    
   221  111  233 1    
   222  111  234 1    
   223  112  113 2    
   224  112  114 am   BACKBONE|DICT|INTERRES
   225  114  115 1    
   226  114  235 1    
   227  115  116 1    
   228  115  117 1    
   229  115  236 1    
   230  116  237 1    
   231  116  238 1    
   232  116  239 1    
   233  117  118 2    
   234  117  119 am   BACKBONE|DICT|INTERRES
   235  119  120 1    
   236  119  240 1    
   237  120  121 1    
   238  120  124 1    
   239  120  241 1    
   240  121  122 am   BACKBONE|DICT|INTERRES
   241  121  123 2    
   242  122  242 1    
   243  122  243 1    
   244  124  125 1    
   245  124  244 1    
   246  124  245 1    
   247  125  126 1    
   248  126  246 1    
   249  126  247 1    
@<TRIPOS>SUBSTRUCTURE
     1 UNK         1 GROUP             0       ****    0 ROOT    
