@<TRIPOS>MOLECULE
3R540
247   249    1
SMALL
USER_CHARGES


@<TRIPOS>ATOM
      1 CA          4.5634  -12.0252  -51.8650 C.3       0 UNK        -0.1800 
      2 C           3.8704  -12.1427  -50.5146 C.2       0 UNK         0.5000 
      3 O           3.9175  -11.2016  -49.7230 O.2       0 UNK        -0.5000 
      4 N           3.2283  -13.2909  -50.2608 N.am      1 UNK        -0.5000 
      5 CA          2.5240  -13.6453  -49.0239 C.3       1 UNK         0.1400 
      6 C6          1.2834  -12.7527  -48.7457 C.3       23 UNK        -0.0398 
      7 S7          0.0991  -13.5444  -47.5997 S.3       23 UNK        -0.2404 
      8 C8         -1.2480  -14.0460  -48.7228 C.3       23 UNK        -0.0205 
      9 C9         -0.8501  -15.1001  -49.7521 C.ar      23 UNK        -0.0193 
     10 C10        -1.3264  -14.9907  -51.0608 C.ar      23 UNK        -0.1150 
     11 C11        -1.0136  -15.9594  -52.0171 C.ar      23 UNK        -0.0193 
     12 C12        -0.1949  -17.0349  -51.6638 C.ar      23 UNK        -0.1150 
     13 C13         0.3007  -17.1584  -50.3632 C.ar      23 UNK        -0.0193 
     14 C14        -0.0464  -16.1936  -49.4083 C.ar      23 UNK        -0.1150 
     15 C15         1.2379  -18.3201  -50.0372 C.3       23 UNK        -0.0205 
     16 S16         1.0857  -18.9660  -48.3412 S.3       23 UNK        -0.2404 
     17 C17        -0.6441  -19.5377  -48.3302 C.3       23 UNK        -0.0398 
     18 CA         -0.8129  -20.8037  -47.4632 C.3       11 UNK         0.1400 
     19 N          -0.6156  -20.5412  -46.0353 N.am      11 UNK        -0.5000 
     20 C          -0.5057  -21.4896  -45.0958 C.2       10 UNK         0.5000 
     21 O          -0.5332  -22.6951  -45.3392 O.2       10 UNK        -0.5000 
     22 CA         -0.4152  -21.0185  -43.6335 C.3       10 UNK         0.1400 
     23 CB          0.9937  -20.5138  -43.2921 C.3       10 UNK        -0.1800 
     24 N          -1.4032  -19.9869  -43.3180 N.am      10 UNK        -0.5000 
     25 C          -2.7300  -20.1735  -43.3631 C.2       9 UNK         0.5000 
     26 O          -3.2616  -21.2515  -43.6286 O.2       9 UNK        -0.5000 
     27 CA         -3.6110  -18.9381  -43.1159 C.3       9 UNK         0.1400 
     28 CB         -3.7844  -18.6784  -41.6120 C.3       9 UNK        -0.1800 
     29 N          -3.0715  -17.7443  -43.7658 N.am      9 UNK        -0.5000 
     30 C          -3.0549  -17.5484  -45.0921 C.2       8 UNK         0.5000 
     31 O          -3.5148  -18.3457  -45.9090 O.2       8 UNK        -0.5000 
     32 CA         -2.3660  -16.2640  -45.5893 C.3       8 UNK         0.1400 
     33 CB         -3.3147  -15.0612  -45.4748 C.3       8 UNK        -0.1800 
     34 N          -1.1242  -15.9709  -44.8723 N.am      8 UNK        -0.5000 
     35 C          -0.0500  -16.7714  -44.8736 C.2       7 UNK         0.5000 
     36 O           0.0033  -17.8405  -45.4746 O.2       7 UNK        -0.5000 
     37 CA          1.1468  -16.3369  -44.0133 C.3       7 UNK         0.1400 
     38 CB          2.0236  -15.3458  -44.7906 C.3       7 UNK        -0.1800 
     39 N           0.7778  -15.7665  -42.7144 N.am      7 UNK        -0.5000 
     40 C           0.0259  -16.3776  -41.7873 C.2       6 UNK         0.5000 
     41 O          -0.4934  -17.4834  -41.9504 O.2       6 UNK        -0.5000 
     42 CA         -0.1014  -15.6497  -40.4394 C.3       6 UNK         0.1400 
     43 CB         -1.1228  -16.3134  -39.4981 C.3       6 UNK        -0.1800 
     44 N           1.2137  -15.6701  -39.8085 N.am      6 UNK        -0.5000 
     45 C           2.0010  -14.6083  -39.5955 C.2       5 UNK         0.5000 
     46 O           1.6492  -13.4421  -39.7748 O.2       5 UNK        -0.5000 
     47 CA          3.4486  -14.9134  -39.1534 C.3       5 UNK         0.1400 
     48 CB          3.5484  -14.9579  -37.6211 C.3       5 UNK        -0.1800 
     49 N           3.9574  -16.1738  -39.7098 N.am      5 UNK        -0.5000 
     50 C           4.1437  -16.3974  -41.0181 C.2       4 UNK         0.5000 
     51 O           4.0102  -15.5267  -41.8830 O.2       4 UNK        -0.5000 
     52 CA          4.4844  -17.8372  -41.4366 C.3       4 UNK         0.1400 
     53 CB          3.4096  -18.8304  -40.9483 C.3       4 UNK        -0.1800 
     54 N           4.5608  -17.8716  -42.8930 N.am      4 UNK        -0.5000 
     55 C           5.1357  -18.8190  -43.6422 C.2       3 UNK         0.5000 
     56 O           5.7096  -19.8052  -43.1799 O.2       3 UNK        -0.5000 
     57 CA          5.0649  -18.6243  -45.1648 C.3       3 UNK         0.1400 
     58 CB          3.7605  -19.2471  -45.7078 C.3       3 UNK        -0.1800 
     59 N           5.1698  -17.2021  -45.5080 N.am      3 UNK        -0.5000 
     60 C           5.2172  -16.6933  -46.7435 C.2       2 UNK         0.5000 
     61 O           5.2012  -17.3671  -47.7765 O.2       2 UNK        -0.5000 
     62 CA          5.2961  -15.1649  -46.8497 C.3       2 UNK         0.1400 
     63 CB          6.7234  -14.6999  -47.1790 C.3       2 UNK        -0.1800 
     64 N           4.3896  -14.7542  -47.9148 N.am      2 UNK        -0.5000 
     65 C           3.5030  -13.7570  -47.8338 C.2       1 UNK         0.5000 
     66 O           3.4533  -12.9615  -46.8938 O.2       1 UNK        -0.5000 
     67 C          -2.1647  -21.4830  -47.7491 C.2       11 UNK         0.5000 
     68 O          -2.2110  -22.3710  -48.6001 O.2       11 UNK        -0.5000 
     69 N          -3.2277  -21.0917  -47.0315 N.am      12 UNK        -0.5000 
     70 CA         -4.5419  -21.7310  -47.1106 C.3       12 UNK         0.1400 
     71 CB         -5.5826  -20.9016  -46.3448 C.3       12 UNK        -0.1800 
     72 C          -4.5184  -23.1894  -46.6185 C.2       12 UNK         0.5000 
     73 O          -5.0742  -24.0618  -47.2856 O.2       12 UNK        -0.5000 
     74 N          -3.8405  -23.4342  -45.4880 N.am      13 UNK        -0.5000 
     75 CA         -3.6398  -24.7640  -44.9079 C.3       13 UNK         0.1400 
     76 CB         -3.0379  -24.6225  -43.5016 C.3       13 UNK        -0.1800 
     77 C          -2.7655  -25.6787  -45.7873 C.2       13 UNK         0.5000 
     78 O          -3.0671  -26.8654  -45.9185 O.2       13 UNK        -0.5000 
     79 N          -1.7157  -25.1071  -46.3924 N.am      14 UNK        -0.5000 
     80 CA         -0.8076  -25.7860  -47.3201 C.3       14 UNK         0.1400 
     81 CB          0.4814  -24.9575  -47.4423 C.3       14 UNK        -0.1800 
     82 C          -1.4117  -26.0286  -48.7185 C.2       14 UNK         0.5000 
     83 O          -0.8313  -26.7895  -49.4936 O.2       14 UNK        -0.5000 
     84 N          -2.5353  -25.3626  -49.0239 N.am      15 UNK        -0.5000 
     85 CA         -3.2189  -25.3100  -50.3199 C.3       15 UNK         0.1400 
     86 CB         -3.7636  -26.6941  -50.7299 C.3       15 UNK        -0.1800 
     87 C          -2.3678  -24.6355  -51.4183 C.2       15 UNK         0.5000 
     88 O          -2.4674  -24.9956  -52.5909 O.2       15 UNK        -0.5000 
     89 N          -1.5615  -23.6454  -51.0153 N.am      16 UNK        -0.5000 
     90 CA         -0.8649  -22.7096  -51.9005 C.3       16 UNK         0.1400 
     91 CB          0.4319  -22.2512  -51.2163 C.3       16 UNK        -0.1800 
     92 C          -1.7565  -21.4977  -52.2374 C.2       16 UNK         0.5000 
     93 O          -1.5228  -20.8203  -53.2393 O.2       16 UNK        -0.5000 
     94 N          -2.7713  -21.2626  -51.4009 N.am      17 UNK        -0.5000 
     95 CA         -3.8440  -20.2986  -51.5803 C.3       17 UNK         0.1400 
     96 CB         -3.5206  -19.0226  -50.7836 C.3       17 UNK        -0.1800 
     97 C          -5.1565  -20.9488  -51.1184 C.2       17 UNK         0.5000 
     98 O          -5.1464  -22.0979  -50.6671 O.2       17 UNK        -0.5000 
     99 N          -6.2616  -20.2051  -51.2493 N.am      18 UNK        -0.5000 
    100 CA        -7.6346  -20.5485  -50.8642 C.3       18 UNK         0.1400 
    101 CB        -7.7576  -20.7819  -49.3437 C.3       18 UNK        -0.1800 
    102 C         -8.2002  -21.7158  -51.6918 C.2       18 UNK         0.5000 
    103 O         -8.9562  -21.4769  -52.6332 O.2       18 UNK        -0.5000 
    104 N         -7.7847  -22.9474  -51.3694 N.am      19 UNK        -0.5000 
    105 CA        -8.1432  -24.1799  -52.0765 C.3       19 UNK         0.1400 
    106 CB        -7.6065  -25.3812  -51.2838 C.3       19 UNK        -0.1800 
    107 C         -7.6258  -24.2144  -53.5283 C.2       19 UNK         0.5000 
    108 O         -8.2876  -24.7798  -54.3987 O.2       19 UNK        -0.5000 
    109 N         -6.4716  -23.5763  -53.7588 N.am      20 UNK        -0.5000 
    110 CA        -5.8548  -23.3794  -55.0725 C.3       20 UNK         0.1400 
    111 CB        -4.3608  -23.7242  -54.9601 C.3       20 UNK        -0.1800 
    112 C         -6.0493  -21.9399  -55.5926 C.2       20 UNK         0.5000 
    113 O         -5.3807  -21.5541  -56.5524 O.2       20 UNK        -0.5000 
    114 N         -6.9270  -21.1612  -54.9390 N.am      21 UNK        -0.5000 
    115 CA        -7.1492  -19.7188  -55.0852 C.3       21 UNK         0.1400 
    116 CB        -7.6309  -19.3387  -56.5009 C.3       21 UNK        -0.1800 
    117 C         -5.9185  -18.9151  -54.6289 C.2       21 UNK         0.5000 
    118 O         -5.9288  -18.3821  -53.5193 O.2       21 UNK        -0.5000 
    119 N         -4.8731  -18.9025  -55.4592 N.am      22 UNK        -0.5000 
    120 CA        -3.5555  -18.3199  -55.1994 C.3       22 UNK         0.1400 
    121 C         -2.5646  -18.8772  -56.2499 C.2       22 UNK         0.5000 
    122 N         -1.6135  -19.7088  -55.8486 N.am      22 UNK        -0.7600 
    123 O         -2.6478  -18.5489  -57.4309 O.2       22 UNK        -0.5000 
    124 C124       -3.5724  -16.7620  -55.1612 C.3       23 UNK        -0.0398 
    125 S125       -3.3561  -16.1378  -53.4631 S.3       23 UNK        -0.2404 
    126 C126       -1.5607  -15.8455  -53.4305 C.3       23 UNK        -0.0205 
    127 H127        4.1568  -11.1819  -52.4233 H         1 UNK         0.0600 
    128 H128        4.4354  -12.9247  -52.4676 H         1 UNK         0.0600 
    129 H129        5.6316  -11.8593  -51.7250 H         1 UNK         0.0600 
    130 H130        3.2393  -14.0137  -50.9669 H         1 UNK         0.3000 
    131 H131        2.1602  -14.6564  -49.2030 H         1 UNK         0.0600 
    132 H132        1.5763  -11.7825  -48.3414 H         1 UNK         0.0800 
    133 H133        0.7668  -12.5369  -49.6817 H         1 UNK         0.0800 
    134 H134       -2.0707  -14.4441  -48.1305 H         1 UNK         0.0800 
    135 H135       -1.6342  -13.1529  -49.2165 H         1 UNK         0.0800 
    136 H136       -1.9610  -14.1601  -51.3369 H         1 UNK         0.1150 
    137 H137        0.0586  -17.7794  -52.4059 H         1 UNK         0.1150 
    138 H138        0.3215  -16.2833  -48.3961 H         1 UNK         0.1150 
    139 H139        1.0794  -19.1440  -50.7346 H         1 UNK         0.0800 
    140 H140        2.2648  -17.9840  -50.1853 H         1 UNK         0.0800 
    141 H141       -0.9448  -19.7337  -49.3609 H         1 UNK         0.0800 
    142 H142       -1.2831  -18.7292  -47.9704 H         1 UNK         0.0800 
    143 H143       -0.0431  -21.5172  -47.7643 H         1 UNK         0.0600 
    144 H144       -0.5212  -19.5629  -45.7669 H         1 UNK         0.3000 
    145 H145       -0.6243  -21.8815  -42.9980 H         1 UNK         0.0600 
    146 H146        1.0737  -20.2812  -42.2308 H         1 UNK         0.0600 
    147 H147        1.2494  -19.6161  -43.8527 H         1 UNK         0.0600 
    148 H148        1.7472  -21.2691  -43.5183 H         1 UNK         0.0600 
    149 H149       -1.0496  -19.0717  -43.0577 H         1 UNK         0.3000 
    150 H150       -4.5972  -19.1392  -43.5394 H         1 UNK         0.0600 
    151 H151       -4.2417  -19.5383  -41.1209 H         1 UNK         0.0600 
    152 H152       -4.4303  -17.8192  -41.4308 H         1 UNK         0.0600 
    153 H153       -2.8303  -18.4917  -41.1191 H         1 UNK         0.0600 
    154 H154       -2.6035  -17.0767  -43.1705 H         1 UNK         0.3000 
    155 H155       -2.1154  -16.4088  -46.6423 H         1 UNK         0.0600 
    156 H156       -4.2250  -15.2278  -46.0523 H         1 UNK         0.0600 
    157 H157       -2.8503  -14.1513  -45.8548 H         1 UNK         0.0600 
    158 H158       -3.6102  -14.8770  -44.4412 H         1 UNK         0.0600 
    159 H159       -1.0874  -15.1111  -44.3454 H         1 UNK         0.3000 
    160 H160        1.7419  -17.2288  -43.8113 H         1 UNK         0.0600 
    161 H161        1.5059  -14.4025  -44.9671 H         1 UNK         0.0600 
    162 H162        2.2998  -15.7538  -45.7639 H         1 UNK         0.0600 
    163 H163        2.9471  -15.1215  -44.2595 H         1 UNK         0.0600 
    164 H164        1.2008  -14.8794  -42.4805 H         1 UNK         0.3000 
    165 H165       -0.4303  -14.6279  -40.6393 H         1 UNK         0.0600 
    166 H166       -1.1933  -15.7733  -38.5539 H         1 UNK         0.0600 
    167 H167       -2.1178  -16.3187  -39.9444 H         1 UNK         0.0600 
    168 H168       -0.8564  -17.3467  -39.2721 H         1 UNK         0.0600 
    169 H169        1.6079  -16.5861  -39.6513 H         1 UNK         0.3000 
    170 H170        4.0836  -14.1019  -39.5152 H         1 UNK         0.0600 
    171 H171        2.9475  -15.7654  -37.2007 H         1 UNK         0.0600 
    172 H172        3.1975  -14.0239  -37.1802 H         1 UNK         0.0600 
    173 H173        4.5792  -15.1015  -37.2969 H         1 UNK         0.0600 
    174 H174        4.1057  -16.9278  -39.0546 H         1 UNK         0.3000 
    175 H175        5.4572  -18.0985  -41.0155 H         1 UNK         0.0600 
    176 H176        2.4158  -18.5389  -41.2901 H         1 UNK         0.0600 
    177 H177        3.6026  -19.8403  -41.3102 H         1 UNK         0.0600 
    178 H178        3.3813  -18.8858  -39.8600 H         1 UNK         0.0600 
    179 H179        4.1347  -17.0633  -43.3257 H         1 UNK         0.3000 
    180 H180        5.9167  -19.1473  -45.6039 H         1 UNK         0.0600 
    181 H181        3.7824  -19.3404  -46.7930 H         1 UNK         0.0600 
    182 H182        2.8871  -18.6503  -45.4457 H         1 UNK         0.0600 
    183 H183        3.6043  -20.2509  -45.3107 H         1 UNK         0.0600 
    184 H184        5.2830  -16.5764  -44.7230 H         1 UNK         0.3000 
    185 H185        4.9899  -14.7284  -45.8964 H         1 UNK         0.0600 
    186 H186        6.7731  -13.6138  -47.2592 H         1 UNK         0.0600 
    187 H187        7.4224  -15.0022  -46.3983 H         1 UNK         0.0600 
    188 H188        7.0776  -15.1213  -48.1207 H         1 UNK         0.0600 
    189 H189        4.3589  -15.3885  -48.7024 H         1 UNK         0.3000 
    190 H190       -3.1376  -20.3116  -46.3894 H         1 UNK         0.3000 
    191 H191       -4.8382  -21.7448  -48.1585 H         1 UNK         0.0600 
    192 H192       -5.6650  -19.8966  -46.7587 H         1 UNK         0.0600 
    193 H193       -5.3310  -20.8097  -45.2888 H         1 UNK         0.0600 
    194 H194       -6.5700  -21.3604  -46.4079 H         1 UNK         0.0600 
    195 H195       -3.4483  -22.6506  -44.9730 H         1 UNK         0.3000 
    196 H196       -4.6193  -25.2367  -44.8107 H         1 UNK         0.0600 
    197 H197       -3.6922  -24.0428  -42.8502 H         1 UNK         0.0600 
    198 H198       -2.0677  -24.1256  -43.5265 H         1 UNK         0.0600 
    199 H199       -2.8964  -25.5987  -43.0363 H         1 UNK         0.0600 
    200 H200       -1.4891  -24.1423  -46.1647 H         1 UNK         0.3000 
    201 H201       -0.5494  -26.7604  -46.9006 H         1 UNK         0.0600 
    202 H202        0.9571  -24.8212  -46.4709 H         1 UNK         0.0600 
    203 H203        0.2837  -23.9701  -47.8607 H         1 UNK         0.0600 
    204 H204        1.2063  -25.4499  -48.0917 H         1 UNK         0.0600 
    205 H205       -2.9133  -24.7467  -48.3157 H         1 UNK         0.3000 
    206 H206       -4.0794  -24.6558  -50.1710 H         1 UNK         0.0600 
    207 H207       -2.9621  -27.3974  -50.9560 H         1 UNK         0.0600 
    208 H208       -4.3774  -27.1248  -49.9388 H         1 UNK         0.0600 
    209 H209       -4.3889  -26.6192  -51.6202 H         1 UNK         0.0600 
    210 H210       -1.5909  -23.3908  -50.0312 H         1 UNK         0.3000 
    211 H211       -0.6055  -23.2079  -52.8368 H         1 UNK         0.0600 
    212 H212        0.2337  -21.7446  -50.2721 H         1 UNK         0.0600 
    213 H213        0.9854  -21.5589  -51.8519 H         1 UNK         0.0600 
    214 H214        1.0868  -23.0976  -51.0091 H         1 UNK         0.0600 
    215 H215       -2.9158  -21.9003  -50.6260 H         1 UNK         0.3000 
    216 H216       -3.9512  -20.0645  -52.6380 H         1 UNK         0.0600 
    217 H217       -4.2641  -18.2454  -50.9632 H         1 UNK         0.0600 
    218 H218       -2.5553  -18.6109  -51.0770 H         1 UNK         0.0600 
    219 H219       -3.4932  -19.2130  -49.7100 H         1 UNK         0.0600 
    220 H220       -6.1655  -19.3131  -51.7261 H         1 UNK         0.3000 
    221 H221       -8.2401  -19.6732  -51.1051 H         1 UNK         0.0600 
    222 H222       -7.1741  -21.6360  -49.0009 H         1 UNK         0.0600 
    223 H223       -7.4220  -19.9070  -48.7869 H         1 UNK         0.0600 
    224 H224       -8.7953  -20.9655  -49.0631 H         1 UNK         0.0600 
    225 H225       -7.0805  -23.0257  -50.6453 H         1 UNK         0.3000 
    226 H226       -9.2326  -24.2457  -52.1102 H         1 UNK         0.0600 
    227 H227       -8.0365  -25.4166  -50.2827 H         1 UNK         0.0600 
    228 H228       -7.8561  -26.3210  -51.7781 H         1 UNK         0.0600 
    229 H229       -6.5217  -25.3409  -51.1802 H         1 UNK         0.0600 
    230 H230       -6.0006  -23.1533  -52.9713 H         1 UNK         0.3000 
    231 H231       -6.3029  -24.0489  -55.8092 H         1 UNK         0.0600 
    232 H232       -3.8565  -23.6313  -55.9226 H         1 UNK         0.0600 
    233 H233       -4.2234  -24.7526  -54.6262 H         1 UNK         0.0600 
    234 H234       -3.8471  -23.0694  -54.2548 H         1 UNK         0.0600 
    235 H235       -7.4594  -21.5882  -54.1911 H         1 UNK         0.3000 
    236 H236       -7.9576  -19.4693  -54.3960 H         1 UNK         0.0600 
    237 H237       -6.8943  -19.5597  -57.2728 H         1 UNK         0.0600 
    238 H238       -8.5471  -19.8713  -56.7559 H         1 UNK         0.0600 
    239 H239       -7.8498  -18.2719  -56.5593 H         1 UNK         0.0600 
    240 H240       -4.9333  -19.4591  -56.3052 H         1 UNK         0.3000 
    241 H241       -3.2238  -18.6956  -54.2313 H         1 UNK         0.0600 
    242 H242       -0.9629  -20.0721  -56.5265 H         1 UNK         0.3800 
    243 H243       -1.5561  -20.0317  -54.8832 H         1 UNK         0.3800 
    244 H244       -2.7991  -16.3197  -55.7922 H         1 UNK         0.0800 
    245 H245       -4.5129  -16.3712  -55.5519 H         1 UNK         0.0800 
    246 H246       -1.3461  -14.8543  -53.8324 H         1 UNK         0.0800 
    247 H247       -1.0592  -16.5614  -54.0839 H         1 UNK         0.0800 
@<TRIPOS>BOND
     1    1    2 1    
     2    1  127 1    
     3    1  128 1    
     4    1  129 1    
     5    2    3 2    
     6    2    4 am   BACKBONE|DICT|INTERRES
     7    4    5 1    
     8    4  130 1    
     9    5    6 1    
    10    5   65 1    
    11    5  131 1    
    12    6    7 1    
    13    6  132 1    
    14    6  133 1    
    15    7    8 1    
    16    8    9 1    
    17    8  134 1    
    18    8  135 1    
    19    9   10 ar   
    20    9   14 ar   
    21   10   11 ar   
    22   10  136 1    
    23   11   12 ar   
    24   11  126 1    
    25   12   13 ar   
    26   12  137 1    
    27   13   14 ar   
    28   13   15 1    
    29   14  138 1    
    30   15   16 1    
    31   15  139 1    
    32   15  140 1    
    33   16   17 1    
    34   17   18 1    
    35   17  141 1    
    36   17  142 1    
    37   18   19 1    
    38   18   67 1    
    39   18  143 1    
    40   19   20 am   BACKBONE|DICT|INTERRES
    41   19  144 1    
    42   20   21 2    
    43   20   22 1    
    44   22   23 1    
    45   22   24 1    
    46   22  145 1    
    47   23  146 1    
    48   23  147 1    
    49   23  148 1    
    50   24   25 am   BACKBONE|DICT|INTERRES
    51   24  149 1    
    52   25   26 2    
    53   25   27 1    
    54   27   28 1    
    55   27   29 1    
    56   27  150 1    
    57   28  151 1    
    58   28  152 1    
    59   28  153 1    
    60   29   30 am   BACKBONE|DICT|INTERRES
    61   29  154 1    
    62   30   31 2    
    63   30   32 1    
    64   32   33 1    
    65   32   34 1    
    66   32  155 1    
    67   33  156 1    
    68   33  157 1    
    69   33  158 1    
    70   34   35 am   BACKBONE|DICT|INTERRES
    71   34  159 1    
    72   35   36 2    
    73   35   37 1    
    74   37   38 1    
    75   37   39 1    
    76   37  160 1    
    77   38  161 1    
    78   38  162 1    
    79   38  163 1    
    80   39   40 am   BACKBONE|DICT|INTERRES
    81   39  164 1    
    82   40   41 2    
    83   40   42 1    
    84   42   43 1    
    85   42   44 1    
    86   42  165 1    
    87   43  166 1    
    88   43  167 1    
    89   43  168 1    
    90   44   45 am   BACKBONE|DICT|INTERRES
    91   44  169 1    
    92   45   46 2    
    93   45   47 1    
    94   47   48 1    
    95   47   49 1    
    96   47  170 1    
    97   48  171 1    
    98   48  172 1    
    99   48  173 1    
   100   49   50 am   BACKBONE|DICT|INTERRES
   101   49  174 1    
   102   50   51 2    
   103   50   52 1    
   104   52   53 1    
   105   52   54 1    
   106   52  175 1    
   107   53  176 1    
   108   53  177 1    
   109   53  178 1    
   110   54   55 am   BACKBONE|DICT|INTERRES
   111   54  179 1    
   112   55   56 2    
   113   55   57 1    
   114   57   58 1    
   115   57   59 1    
   116   57  180 1    
   117   58  181 1    
   118   58  182 1    
   119   58  183 1    
   120   59   60 am   BACKBONE|DICT|INTERRES
   121   59  184 1    
   122   60   61 2    
   123   60   62 1    
   124   62   63 1    
   125   62   64 1    
   126   62  185 1    
   127   63  186 1    
   128   63  187 1    
   129   63  188 1    
   130   64   65 am   BACKBONE|DICT|INTERRES
   131   64  189 1    
   132   65   66 2    
   133   67   68 2    
   134   67   69 am   BACKBONE|DICT|INTERRES
   135   69   70 1    
   136   69  190 1    
   137   70   71 1    
   138   70   72 1    
   139   70  191 1    
   140   71  192 1    
   141   71  193 1    
   142   71  194 1    
   143   72   73 2    
   144   72   74 am   BACKBONE|DICT|INTERRES
   145   74   75 1    
   146   74  195 1    
   147   75   76 1    
   148   75   77 1    
   149   75  196 1    
   150   76  197 1    
   151   76  198 1    
   152   76  199 1    
   153   77   78 2    
   154   77   79 am   BACKBONE|DICT|INTERRES
   155   79   80 1    
   156   79  200 1    
   157   80   81 1    
   158   80   82 1    
   159   80  201 1    
   160   81  202 1    
   161   81  203 1    
   162   81  204 1    
   163   82   83 2    
   164   82   84 am   BACKBONE|DICT|INTERRES
   165   84   85 1    
   166   84  205 1    
   167   85   86 1    
   168   85   87 1    
   169   85  206 1    
   170   86  207 1    
   171   86  208 1    
   172   86  209 1    
   173   87   88 2    
   174   87   89 am   BACKBONE|DICT|INTERRES
   175   89   90 1    
   176   89  210 1    
   177   90   91 1    
   178   90   92 1    
   179   90  211 1    
   180   91  212 1    
   181   91  213 1    
   182   91  214 1    
   183   92   93 2    
   184   92   94 am   BACKBONE|DICT|INTERRES
   185   94   95 1    
   186   94  215 1    
   187   95   96 1    
   188   95   97 1    
   189   95  216 1    
   190   96  217 1    
   191   96  218 1    
   192   96  219 1    
   193   97   98 2    
   194   97   99 am   BACKBONE|DICT|INTERRES
   195   99  100 1    
   196   99  220 1    
   197  100  101 1    
   198  100  102 1    
   199  100  221 1    
   200  101  222 1    
   201  101  223 1    
   202  101  224 1    
   203  102  103 2    
   204  102  104 am   BACKBONE|DICT|INTERRES
   205  104  105 1    
   206  104  225 1    
   207  105  106 1    
   208  105  107 1    
   209  105  226 1    
   210  106  227 1    
   211  106  228 1    
   212  106  229 1    
   213  107  108 2    
   214  107  109 am   BACKBONE|DICT|INTERRES
   215  109  110 1    
   216  109  230 1    
   217  110  111 1    
   218  110  112 1    
   219  110  231 1    
   220  111  232 1    
   221  111  233 1    
   222  111  234 1    
   223  112  113 2    
   224  112  114 am   BACKBONE|DICT|INTERRES
   225  114  115 1    
   226  114  235 1    
   227  115  116 1    
   228  115  117 1    
   229  115  236 1    
   230  116  237 1    
   231  116  238 1    
   232  116  239 1    
   233  117  118 2    
   234  117  119 am   BACKBONE|DICT|INTERRES
   235  119  120 1    
   236  119  240 1    
   237  120  121 1    
   238  120  124 1    
   239  120  241 1    
   240  121  122 am   BACKBONE|DICT|INTERRES
   241  121  123 2    
   242  122  242 1    
   243  122  243 1    
   244  124  125 1    
   245  124  244 1    
   246  124  245 1    
   247  125  126 1    
   248  126  246 1    
   249  126  247 1    
@<TRIPOS>SUBSTRUCTURE
     1 UNK         1 GROUP             0       ****    0 ROOT    
