@<TRIPOS>MOLECULE
3R540
247   249    1
SMALL
USER_CHARGES


@<TRIPOS>ATOM
      1 CA         -2.7867  -12.2974  -44.7402 C.3       0 UNK        -0.1800 
      2 C          -1.7018  -11.3877  -45.3010 C.2       0 UNK         0.5000 
      3 O          -1.8062  -10.1657  -45.1904 O.2       0 UNK        -0.5000 
      4 N          -0.6688  -11.9819  -45.9092 N.am      1 UNK        -0.5000 
      5 CA          0.5063  -11.3013  -46.4635 C.3       1 UNK         0.1400 
      6 C6          1.4041  -12.2767  -47.2657 C.3       23 UNK        -0.0398 
      7 S7          0.5275  -13.1351  -48.6121 S.3       23 UNK        -0.2404 
      8 C8          1.9184  -14.0167  -49.3907 C.3       23 UNK        -0.0205 
      9 C9          1.5310  -15.4186  -49.8386 C.ar      23 UNK        -0.0193 
     10 C10         0.6005  -15.5959  -50.8662 C.ar      23 UNK        -0.1150 
     11 C11         0.2754  -16.8774  -51.3186 C.ar      23 UNK        -0.0193 
     12 C12         0.8880  -17.9885  -50.7304 C.ar      23 UNK        -0.1150 
     13 C13         1.8195  -17.8286  -49.6987 C.ar      23 UNK        -0.0193 
     14 C14         2.1354  -16.5388  -49.2580 C.ar      23 UNK        -0.1150 
     15 C15         2.5204  -19.0488  -49.1109 C.3       23 UNK        -0.0205 
     16 S16         2.4026  -19.1321  -47.2919 S.3       23 UNK        -0.2404 
     17 C17         2.2249  -20.9314  -47.0160 C.3       23 UNK        -0.0398 
     18 CA          0.7810  -21.4147  -46.7176 C.3       11 UNK         0.1400 
     19 N           0.3207  -21.0495  -45.3713 N.am      11 UNK        -0.5000 
     20 C          -0.7731  -21.5707  -44.7900 C.2       10 UNK         0.5000 
     21 O          -1.5715  -22.2933  -45.3879 O.2       10 UNK        -0.5000 
     22 CA         -1.0168  -21.2433  -43.3024 C.3       10 UNK         0.1400 
     23 CB         -1.8648  -22.3134  -42.5845 C.3       10 UNK        -0.1800 
     24 N           0.2177  -20.9789  -42.5617 N.am      10 UNK        -0.5000 
     25 C           1.2480  -21.8086  -42.3327 C.2       9 UNK         0.5000 
     26 O           1.2883  -22.9800  -42.7094 O.2       9 UNK        -0.5000 
     27 CA          2.4447  -21.2227  -41.5572 C.3       9 UNK         0.1400 
     28 CB          3.7004  -21.1673  -42.4446 C.3       9 UNK        -0.1800 
     29 N           2.1482  -19.8749  -41.0620 N.am      9 UNK        -0.5000 
     30 C           1.7923  -19.5899  -39.8027 C.2       8 UNK         0.5000 
     31 O           1.7803  -20.4140  -38.8877 O.2       8 UNK        -0.5000 
     32 CA          1.3492  -18.1437  -39.5218 C.3       8 UNK         0.1400 
     33 CB          2.5689  -17.2324  -39.3130 C.3       8 UNK        -0.1800 
     34 N           0.4909  -17.5820  -40.5690 N.am      8 UNK        -0.5000 
     35 C          -0.7729  -17.9650  -40.8079 C.2       7 UNK         0.5000 
     36 O          -1.3159  -18.9098  -40.2366 O.2       7 UNK        -0.5000 
     37 CA         -1.5674  -17.1712  -41.8590 C.3       7 UNK         0.1400 
     38 CB         -2.1183  -15.8741  -41.2463 C.3       7 UNK        -0.1800 
     39 N          -0.7376  -16.8351  -43.0125 N.am      7 UNK        -0.5000 
     40 C          -0.8989  -17.3255  -44.2487 C.2       6 UNK         0.5000 
     41 O          -1.7946  -18.1023  -44.5799 O.2       6 UNK        -0.5000 
     42 CA          0.1419  -16.9015  -45.3012 C.3       6 UNK         0.1400 
     43 CB         -0.3179  -15.6306  -46.0235 C.3       6 UNK        -0.1800 
     44 N           1.4813  -16.6704  -44.7609 N.am      6 UNK        -0.5000 
     45 C           2.2027  -17.5462  -44.0495 C.2       5 UNK         0.5000 
     46 O           1.8335  -18.6929  -43.7936 O.2       5 UNK        -0.5000 
     47 CA          3.5311  -17.0303  -43.4669 C.3       5 UNK         0.1400 
     48 CB          4.6822  -17.3360  -44.4353 C.3       5 UNK        -0.1800 
     49 N           3.5491  -15.5988  -43.1365 N.am      5 UNK        -0.5000 
     50 C           2.6621  -14.9241  -42.3906 C.2       4 UNK         0.5000 
     51 O           1.6379  -15.4307  -41.9303 O.2       4 UNK        -0.5000 
     52 CA          2.9256  -13.4288  -42.1327 C.3       4 UNK         0.1400 
     53 CB          3.5866  -13.2179  -40.7580 C.3       4 UNK        -0.1800 
     54 N           3.6542  -12.7242  -43.1977 N.am      4 UNK        -0.5000 
     55 C           4.9357  -12.8459  -43.5803 C.2       3 UNK         0.5000 
     56 O           5.7116  -13.6687  -43.0944 O.2       3 UNK        -0.5000 
     57 CA          5.4349  -11.9380  -44.7267 C.3       3 UNK         0.1400 
     58 CB          5.7177  -12.7785  -45.9831 C.3       3 UNK        -0.1800 
     59 N           4.5010  -10.8704  -45.0888 N.am      3 UNK        -0.5000 
     60 C           4.2217   -9.7856  -44.3520 C.2       2 UNK         0.5000 
     61 O           4.8087   -9.4987  -43.3086 O.2       2 UNK        -0.5000 
     62 CA          3.0608   -8.8941  -44.8470 C.3       2 UNK         0.1400 
     63 CB          3.6068   -7.6630  -45.5863 C.3       2 UNK        -0.1800 
     64 N           2.1029   -9.5896  -45.7191 N.am      2 UNK        -0.5000 
     65 C           1.3532  -10.6403  -45.3551 C.2       1 UNK         0.5000 
     66 O           1.3874  -11.1390  -44.2271 O.2       1 UNK        -0.5000 
     67 C          -0.2201  -21.0266  -47.8272 C.2       11 UNK         0.5000 
     68 O          -0.3877  -21.7796  -48.7861 O.2       11 UNK        -0.5000 
     69 N          -0.8874  -19.8776  -47.6562 N.am      12 UNK        -0.5000 
     70 CA         -1.8887  -19.3620  -48.5849 C.3       12 UNK         0.1400 
     71 CB         -2.1546  -17.8815  -48.2789 C.3       12 UNK        -0.1800 
     72 C          -3.1873  -20.1803  -48.5345 C.2       12 UNK         0.5000 
     73 O          -3.7636  -20.4748  -49.5810 O.2       12 UNK        -0.5000 
     74 N          -3.5961  -20.5732  -47.3196 N.am      13 UNK        -0.5000 
     75 CA         -4.7417  -21.4484  -47.0782 C.3       13 UNK         0.1400 
     76 CB         -5.0639  -21.4767  -45.5769 C.3       13 UNK        -0.1800 
     77 C          -4.5025  -22.8670  -47.6216 C.2       13 UNK         0.5000 
     78 O          -5.3950  -23.4297  -48.2542 O.2       13 UNK        -0.5000 
     79 N          -3.2890  -23.3962  -47.4083 N.am      14 UNK        -0.5000 
     80 CA         -2.8335  -24.6777  -47.9447 C.3       14 UNK         0.1400 
     81 CB         -1.4539  -25.0232  -47.3648 C.3       14 UNK        -0.1800 
     82 C          -2.8070  -24.6936  -49.4829 C.2       14 UNK         0.5000 
     83 O          -3.3109  -25.6438  -50.0812 O.2       14 UNK        -0.5000 
     84 N          -2.2711  -23.6254  -50.0936 N.am      15 UNK        -0.5000 
     85 CA         -2.2655  -23.4155  -51.5423 C.3       15 UNK         0.1400 
     86 CB         -1.4627  -22.1520  -51.8904 C.3       15 UNK        -0.1800 
     87 C          -3.6863  -23.3445  -52.1262 C.2       15 UNK         0.5000 
     88 O          -3.9864  -24.0753  -53.0703 O.2       15 UNK        -0.5000 
     89 N          -4.5466  -22.5176  -51.5138 N.am      16 UNK        -0.5000 
     90 CA         -5.9515  -22.3558  -51.8872 C.3       16 UNK         0.1400 
     91 CB         -6.5826  -21.2285  -51.0586 C.3       16 UNK        -0.1800 
     92 C          -6.7741  -23.6508  -51.7723 C.2       16 UNK         0.5000 
     93 O          -7.6229  -23.8971  -52.6270 O.2       16 UNK        -0.5000 
     94 N          -6.4991  -24.4672  -50.7475 N.am      17 UNK        -0.5000 
     95 CA         -7.1101  -25.7824  -50.5656 C.3       17 UNK         0.1400 
     96 CB         -6.8298  -26.2875  -49.1418 C.3       17 UNK        -0.1800 
     97 C          -6.6329  -26.8069  -51.6120 C.2       17 UNK         0.5000 
     98 O          -7.4544  -27.5529  -52.1462 O.2       17 UNK        -0.5000 
     99 N          -5.3200  -26.8340  -51.8768 N.am      18 UNK        -0.5000 
    100 CA        -4.6793  -27.8006  -52.7669 C.3       18 UNK         0.1400 
    101 CB        -3.1702  -27.8368  -52.4784 C.3       18 UNK        -0.1800 
    102 C         -4.9334  -27.5275  -54.2592 C.2       18 UNK         0.5000 
    103 O         -5.2750  -28.4564  -54.9927 O.2       18 UNK        -0.5000 
    104 N         -4.7315  -26.2754  -54.6877 N.am      19 UNK        -0.5000 
    105 CA        -4.7096  -25.8780  -56.0984 C.3       19 UNK         0.1400 
    106 CB        -3.4443  -25.0384  -56.3443 C.3       19 UNK        -0.1800 
    107 C         -5.9727  -25.1157  -56.5395 C.2       19 UNK         0.5000 
    108 O         -6.0462  -24.7111  -57.7002 O.2       19 UNK        -0.5000 
    109 N         -6.9310  -24.9162  -55.6212 N.am      20 UNK        -0.5000 
    110 CA        -8.1958  -24.1787  -55.7834 C.3       20 UNK         0.1400 
    111 CB        -9.0593  -24.7743  -56.9156 C.3       20 UNK        -0.1800 
    112 C         -8.0270  -22.6473  -55.9221 C.2       20 UNK         0.5000 
    113 O         -9.0166  -21.9448  -56.1348 O.2       20 UNK        -0.5000 
    114 N         -6.7949  -22.1505  -55.7771 N.am      21 UNK        -0.5000 
    115 CA        -6.3850  -20.7532  -55.8363 C.3       21 UNK         0.1400 
    116 CB        -6.4050  -20.2496  -57.2914 C.3       21 UNK        -0.1800 
    117 C         -4.9714  -20.6648  -55.2443 C.2       21 UNK         0.5000 
    118 O         -4.2758  -21.6807  -55.1870 O.2       21 UNK        -0.5000 
    119 N         -4.5686  -19.4654  -54.8101 N.am      22 UNK        -0.5000 
    120 CA        -3.2513  -19.2160  -54.1955 C.3       22 UNK         0.1400 
    121 C         -2.0397  -19.3976  -55.1605 C.2       22 UNK         0.5000 
    122 N         -2.2129  -19.2432  -56.4680 N.am      22 UNK        -0.7600 
    123 O         -0.9340  -19.6990  -54.7229 O.2       22 UNK        -0.5000 
    124 C124       -3.2146  -17.8322  -53.4906 C.3       23 UNK        -0.0398 
    125 S125       -2.2525  -17.8373  -51.9417 S.3       23 UNK        -0.2404 
    126 C126       -0.6981  -17.0574  -52.4746 C.3       23 UNK        -0.0205 
    127 H127       -2.5714  -13.3501  -44.9265 H         1 UNK         0.0600 
    128 H128       -3.7479  -12.0614  -45.1967 H         1 UNK         0.0600 
    129 H129       -2.8750  -12.1552  -43.6631 H         1 UNK         0.0600 
    130 H130       -0.6567  -12.9870  -45.9865 H         1 UNK         0.3000 
    131 H131        0.1499  -10.5182  -47.1359 H         1 UNK         0.0600 
    132 H132        2.2458  -11.7411  -47.7090 H         1 UNK         0.0800 
    133 H133        1.8317  -13.0349  -46.6061 H         1 UNK         0.0800 
    134 H134        2.7623  -14.0667  -48.7009 H         1 UNK         0.0800 
    135 H135        2.2644  -13.4443  -50.2524 H         1 UNK         0.0800 
    136 H136        0.1411  -14.7300  -51.3221 H         1 UNK         0.1150 
    137 H137        0.6445  -18.9785  -51.0908 H         1 UNK         0.1150 
    138 H138        2.8660  -16.4103  -48.4717 H         1 UNK         0.1150 
    139 H139        2.1030  -19.9566  -49.5485 H         1 UNK         0.0800 
    140 H140        3.5727  -19.0275  -49.3964 H         1 UNK         0.0800 
    141 H141        2.8767  -21.2046  -46.1849 H         1 UNK         0.0800 
    142 H142        2.6246  -21.4701  -47.8764 H         1 UNK         0.0800 
    143 H143        0.8220  -22.5062  -46.7249 H         1 UNK         0.0600 
    144 H144        0.9174  -20.4320  -44.8326 H         1 UNK         0.3000 
    145 H145       -1.5883  -20.3166  -43.2810 H         1 UNK         0.0600 
    146 H146       -2.8529  -22.4002  -43.0368 H         1 UNK         0.0600 
    147 H147       -2.0127  -22.0585  -41.5350 H         1 UNK         0.0600 
    148 H148       -1.3988  -23.2980  -42.6296 H         1 UNK         0.0600 
    149 H149        0.3180  -20.0356  -42.2188 H         1 UNK         0.3000 
    150 H150        2.6530  -21.8975  -40.7246 H         1 UNK         0.0600 
    151 H151        3.9967  -22.1684  -42.7600 H         1 UNK         0.0600 
    152 H152        4.5441  -20.7345  -41.9071 H         1 UNK         0.0600 
    153 H153        3.5408  -20.5786  -43.3474 H         1 UNK         0.0600 
    154 H154        2.1077  -19.1493  -41.7665 H         1 UNK         0.3000 
    155 H155        0.7760  -18.1505  -38.5921 H         1 UNK         0.0600 
    156 H156        3.1915  -17.1766  -40.2057 H         1 UNK         0.0600 
    157 H157        3.1956  -17.5999  -38.4995 H         1 UNK         0.0600 
    158 H158        2.2637  -16.2181  -39.0550 H         1 UNK         0.0600 
    159 H159        0.8670  -16.7784  -41.0681 H         1 UNK         0.3000 
    160 H160       -2.4159  -17.7874  -42.1640 H         1 UNK         0.0600 
    161 H161       -1.3171  -15.2073  -40.9244 H         1 UNK         0.0600 
    162 H162       -2.7416  -16.0855  -40.3765 H         1 UNK         0.0600 
    163 H163       -2.7344  -15.3325  -41.9644 H         1 UNK         0.0600 
    164 H164        0.0576  -16.2312  -42.8320 H         1 UNK         0.3000 
    165 H165        0.2096  -17.7060  -46.0329 H         1 UNK         0.0600 
    166 H166        0.3170  -15.4347  -46.8862 H         1 UNK         0.0600 
    167 H167       -1.3414  -15.7229  -46.3880 H         1 UNK         0.0600 
    168 H168       -0.2800  -14.7640  -45.3640 H         1 UNK         0.0600 
    169 H169        1.8741  -15.7532  -44.9059 H         1 UNK         0.3000 
    170 H170        3.7123  -17.5785  -42.5414 H         1 UNK         0.0600 
    171 H171        4.7135  -18.3980  -44.6841 H         1 UNK         0.0600 
    172 H172        4.5775  -16.7837  -45.3702 H         1 UNK         0.0600 
    173 H173        5.6463  -17.0765  -43.9977 H         1 UNK         0.0600 
    174 H174        4.3838  -15.0881  -43.4046 H         1 UNK         0.3000 
    175 H175        1.9441  -12.9535  -42.0952 H         1 UNK         0.0600 
    176 H176        4.5631  -13.6984  -40.6947 H         1 UNK         0.0600 
    177 H177        3.7186  -12.1574  -40.5431 H         1 UNK         0.0600 
    178 H178        2.9686  -13.6363  -39.9624 H         1 UNK         0.0600 
    179 H179        3.0843  -12.0417  -43.6871 H         1 UNK         0.3000 
    180 H180        6.3704  -11.4812  -44.3975 H         1 UNK         0.0600 
    181 H181        6.1279  -12.1643  -46.7850 H         1 UNK         0.0600 
    182 H182        4.8139  -13.2612  -46.3574 H         1 UNK         0.0600 
    183 H183        6.4460  -13.5636  -45.7751 H         1 UNK         0.0600 
    184 H184        3.9872  -10.9988  -45.9465 H         1 UNK         0.3000 
    185 H185        2.5175   -8.5508  -43.9642 H         1 UNK         0.0600 
    186 H186        4.1410   -7.9433  -46.4950 H         1 UNK         0.0600 
    187 H187        2.8035   -6.9807  -45.8645 H         1 UNK         0.0600 
    188 H188        4.3010   -7.1046  -44.9566 H         1 UNK         0.0600 
    189 H189        2.0281   -9.2368  -46.6629 H         1 UNK         0.3000 
    190 H190       -0.7066  -19.3368  -46.8246 H         1 UNK         0.3000 
    191 H191       -1.4852  -19.4380  -49.5958 H         1 UNK         0.0600 
    192 H192       -2.9067  -17.4725  -48.9542 H         1 UNK         0.0600 
    193 H193       -1.2491  -17.2878  -48.4078 H         1 UNK         0.0600 
    194 H194       -2.5168  -17.7375  -47.2609 H         1 UNK         0.0600 
    195 H195       -3.0410  -20.3176  -46.5164 H         1 UNK         0.3000 
    196 H196       -5.6031  -21.0299  -47.6029 H         1 UNK         0.0600 
    197 H197       -4.2365  -21.8792  -44.9930 H         1 UNK         0.0600 
    198 H198       -5.2844  -20.4773  -45.2015 H         1 UNK         0.0600 
    199 H199       -5.9375  -22.0990  -45.3788 H         1 UNK         0.0600 
    200 H200       -2.6293  -22.8867  -46.8254 H         1 UNK         0.3000 
    201 H201       -3.5402  -25.4429  -47.6168 H         1 UNK         0.0600 
    202 H202       -1.4852  -25.0723  -46.2762 H         1 UNK         0.0600 
    203 H203       -0.7024  -24.2848  -47.6438 H         1 UNK         0.0600 
    204 H204       -1.1113  -25.9937  -47.7257 H         1 UNK         0.0600 
    205 H205       -1.8325  -22.9034  -49.5301 H         1 UNK         0.3000 
    206 H206       -1.7630  -24.2710  -51.9982 H         1 UNK         0.0600 
    207 H207       -0.4269  -22.2402  -51.5629 H         1 UNK         0.0600 
    208 H208       -1.4494  -21.9839  -52.9681 H         1 UNK         0.0600 
    209 H209       -1.8841  -21.2605  -51.4253 H         1 UNK         0.0600 
    210 H210       -4.2139  -21.9380  -50.7474 H         1 UNK         0.3000 
    211 H211       -5.9770  -22.0556  -52.9342 H         1 UNK         0.0600 
    212 H212       -7.6279  -21.0792  -51.3319 H         1 UNK         0.0600 
    213 H213       -6.0650  -20.2831  -51.2231 H         1 UNK         0.0600 
    214 H214       -6.5482  -21.4484  -49.9911 H         1 UNK         0.0600 
    215 H215       -5.8361  -24.1662  -50.0396 H         1 UNK         0.3000 
    216 H216       -8.1911  -25.6733  -50.6755 H         1 UNK         0.0600 
    217 H217       -5.7605  -26.3803  -48.9494 H         1 UNK         0.0600 
    218 H218       -7.2806  -27.2670  -48.9779 H         1 UNK         0.0600 
    219 H219       -7.2446  -25.6094  -48.3957 H         1 UNK         0.0600 
    220 H220       -4.7022  -26.2062  -51.3703 H         1 UNK         0.3000 
    221 H221       -5.0824  -28.7899  -52.5396 H         1 UNK         0.0600 
    222 H222       -2.9741  -28.1354  -51.4485 H         1 UNK         0.0600 
    223 H223       -2.7064  -26.8622  -52.6367 H         1 UNK         0.0600 
    224 H224       -2.6632  -28.5527  -53.1266 H         1 UNK         0.0600 
    225 H225       -4.4659  -25.5543  -54.0169 H         1 UNK         0.3000 
    226 H226       -4.6432  -26.7603  -56.7380 H         1 UNK         0.0600 
    227 H227       -3.4433  -24.1273  -55.7467 H         1 UNK         0.0600 
    228 H228       -2.5452  -25.6011  -56.0933 H         1 UNK         0.0600 
    229 H229       -3.3597  -24.7444  -57.3911 H         1 UNK         0.0600 
    230 H230       -6.7578  -25.2671  -54.6888 H         1 UNK         0.3000 
    231 H231       -8.7521  -24.3347  -54.8597 H         1 UNK         0.0600 
    232 H232       -8.6425  -24.5676  -57.9014 H         1 UNK         0.0600 
    233 H233      -10.0655  -24.3542  -56.8983 H         1 UNK         0.0600 
    234 H234       -9.1590  -25.8546  -56.8105 H         1 UNK         0.0600 
    235 H235       -6.0296  -22.7841  -55.5787 H         1 UNK         0.3000 
    236 H236       -7.0629  -20.1564  -55.2229 H         1 UNK         0.0600 
    237 H237       -7.4083  -20.2925  -57.7149 H         1 UNK         0.0600 
    238 H238       -6.0746  -19.2123  -57.3534 H         1 UNK         0.0600 
    239 H239       -5.7484  -20.8439  -57.9283 H         1 UNK         0.0600 
    240 H240       -5.1832  -18.6699  -54.9039 H         1 UNK         0.3000 
    241 H241       -3.1402  -19.9841  -53.4268 H         1 UNK         0.0600 
    242 H242       -1.4294  -19.3731  -57.0884 H         1 UNK         0.3800 
    243 H243       -3.1170  -19.0106  -56.8457 H         1 UNK         0.3800 
    244 H244       -4.2233  -17.5333  -53.2023 H         1 UNK         0.0800 
    245 H245       -2.8633  -17.0446  -54.1599 H         1 UNK         0.0800 
    246 H246       -0.2233  -17.6678  -53.2425 H         1 UNK         0.0800 
    247 H247       -0.9214  -16.0957  -52.9388 H         1 UNK         0.0800 
@<TRIPOS>BOND
     1    1    2 1    
     2    1  127 1    
     3    1  128 1    
     4    1  129 1    
     5    2    3 2    
     6    2    4 am   BACKBONE|DICT|INTERRES
     7    4    5 1    
     8    4  130 1    
     9    5    6 1    
    10    5   65 1    
    11    5  131 1    
    12    6    7 1    
    13    6  132 1    
    14    6  133 1    
    15    7    8 1    
    16    8    9 1    
    17    8  134 1    
    18    8  135 1    
    19    9   10 ar   
    20    9   14 ar   
    21   10   11 ar   
    22   10  136 1    
    23   11   12 ar   
    24   11  126 1    
    25   12   13 ar   
    26   12  137 1    
    27   13   14 ar   
    28   13   15 1    
    29   14  138 1    
    30   15   16 1    
    31   15  139 1    
    32   15  140 1    
    33   16   17 1    
    34   17   18 1    
    35   17  141 1    
    36   17  142 1    
    37   18   19 1    
    38   18   67 1    
    39   18  143 1    
    40   19   20 am   BACKBONE|DICT|INTERRES
    41   19  144 1    
    42   20   21 2    
    43   20   22 1    
    44   22   23 1    
    45   22   24 1    
    46   22  145 1    
    47   23  146 1    
    48   23  147 1    
    49   23  148 1    
    50   24   25 am   BACKBONE|DICT|INTERRES
    51   24  149 1    
    52   25   26 2    
    53   25   27 1    
    54   27   28 1    
    55   27   29 1    
    56   27  150 1    
    57   28  151 1    
    58   28  152 1    
    59   28  153 1    
    60   29   30 am   BACKBONE|DICT|INTERRES
    61   29  154 1    
    62   30   31 2    
    63   30   32 1    
    64   32   33 1    
    65   32   34 1    
    66   32  155 1    
    67   33  156 1    
    68   33  157 1    
    69   33  158 1    
    70   34   35 am   BACKBONE|DICT|INTERRES
    71   34  159 1    
    72   35   36 2    
    73   35   37 1    
    74   37   38 1    
    75   37   39 1    
    76   37  160 1    
    77   38  161 1    
    78   38  162 1    
    79   38  163 1    
    80   39   40 am   BACKBONE|DICT|INTERRES
    81   39  164 1    
    82   40   41 2    
    83   40   42 1    
    84   42   43 1    
    85   42   44 1    
    86   42  165 1    
    87   43  166 1    
    88   43  167 1    
    89   43  168 1    
    90   44   45 am   BACKBONE|DICT|INTERRES
    91   44  169 1    
    92   45   46 2    
    93   45   47 1    
    94   47   48 1    
    95   47   49 1    
    96   47  170 1    
    97   48  171 1    
    98   48  172 1    
    99   48  173 1    
   100   49   50 am   BACKBONE|DICT|INTERRES
   101   49  174 1    
   102   50   51 2    
   103   50   52 1    
   104   52   53 1    
   105   52   54 1    
   106   52  175 1    
   107   53  176 1    
   108   53  177 1    
   109   53  178 1    
   110   54   55 am   BACKBONE|DICT|INTERRES
   111   54  179 1    
   112   55   56 2    
   113   55   57 1    
   114   57   58 1    
   115   57   59 1    
   116   57  180 1    
   117   58  181 1    
   118   58  182 1    
   119   58  183 1    
   120   59   60 am   BACKBONE|DICT|INTERRES
   121   59  184 1    
   122   60   61 2    
   123   60   62 1    
   124   62   63 1    
   125   62   64 1    
   126   62  185 1    
   127   63  186 1    
   128   63  187 1    
   129   63  188 1    
   130   64   65 am   BACKBONE|DICT|INTERRES
   131   64  189 1    
   132   65   66 2    
   133   67   68 2    
   134   67   69 am   BACKBONE|DICT|INTERRES
   135   69   70 1    
   136   69  190 1    
   137   70   71 1    
   138   70   72 1    
   139   70  191 1    
   140   71  192 1    
   141   71  193 1    
   142   71  194 1    
   143   72   73 2    
   144   72   74 am   BACKBONE|DICT|INTERRES
   145   74   75 1    
   146   74  195 1    
   147   75   76 1    
   148   75   77 1    
   149   75  196 1    
   150   76  197 1    
   151   76  198 1    
   152   76  199 1    
   153   77   78 2    
   154   77   79 am   BACKBONE|DICT|INTERRES
   155   79   80 1    
   156   79  200 1    
   157   80   81 1    
   158   80   82 1    
   159   80  201 1    
   160   81  202 1    
   161   81  203 1    
   162   81  204 1    
   163   82   83 2    
   164   82   84 am   BACKBONE|DICT|INTERRES
   165   84   85 1    
   166   84  205 1    
   167   85   86 1    
   168   85   87 1    
   169   85  206 1    
   170   86  207 1    
   171   86  208 1    
   172   86  209 1    
   173   87   88 2    
   174   87   89 am   BACKBONE|DICT|INTERRES
   175   89   90 1    
   176   89  210 1    
   177   90   91 1    
   178   90   92 1    
   179   90  211 1    
   180   91  212 1    
   181   91  213 1    
   182   91  214 1    
   183   92   93 2    
   184   92   94 am   BACKBONE|DICT|INTERRES
   185   94   95 1    
   186   94  215 1    
   187   95   96 1    
   188   95   97 1    
   189   95  216 1    
   190   96  217 1    
   191   96  218 1    
   192   96  219 1    
   193   97   98 2    
   194   97   99 am   BACKBONE|DICT|INTERRES
   195   99  100 1    
   196   99  220 1    
   197  100  101 1    
   198  100  102 1    
   199  100  221 1    
   200  101  222 1    
   201  101  223 1    
   202  101  224 1    
   203  102  103 2    
   204  102  104 am   BACKBONE|DICT|INTERRES
   205  104  105 1    
   206  104  225 1    
   207  105  106 1    
   208  105  107 1    
   209  105  226 1    
   210  106  227 1    
   211  106  228 1    
   212  106  229 1    
   213  107  108 2    
   214  107  109 am   BACKBONE|DICT|INTERRES
   215  109  110 1    
   216  109  230 1    
   217  110  111 1    
   218  110  112 1    
   219  110  231 1    
   220  111  232 1    
   221  111  233 1    
   222  111  234 1    
   223  112  113 2    
   224  112  114 am   BACKBONE|DICT|INTERRES
   225  114  115 1    
   226  114  235 1    
   227  115  116 1    
   228  115  117 1    
   229  115  236 1    
   230  116  237 1    
   231  116  238 1    
   232  116  239 1    
   233  117  118 2    
   234  117  119 am   BACKBONE|DICT|INTERRES
   235  119  120 1    
   236  119  240 1    
   237  120  121 1    
   238  120  124 1    
   239  120  241 1    
   240  121  122 am   BACKBONE|DICT|INTERRES
   241  121  123 2    
   242  122  242 1    
   243  122  243 1    
   244  124  125 1    
   245  124  244 1    
   246  124  245 1    
   247  125  126 1    
   248  126  246 1    
   249  126  247 1    
@<TRIPOS>SUBSTRUCTURE
     1 UNK         1 GROUP             0       ****    0 ROOT    
