@<TRIPOS>MOLECULE
3R540
247   249    1
SMALL
USER_CHARGES


@<TRIPOS>ATOM
      1 CA         -0.7267  -11.2305  -52.0759 C.3       0 UNK        -0.1800 
      2 C          -0.1879  -11.9085  -50.8247 C.2       0 UNK         0.5000 
      3 O           0.9099  -12.4657  -50.8535 O.2       0 UNK        -0.5000 
      4 N          -0.9477  -11.8558  -49.7232 N.am      1 UNK        -0.5000 
      5 CA         -0.6270  -12.4784  -48.4340 C.3       1 UNK         0.1400 
      6 C6         -1.9163  -12.8252  -47.6431 C.3       23 UNK        -0.0398 
      7 S7         -1.6468  -14.1765  -46.4454 S.3       23 UNK        -0.2404 
      8 C8         -2.2709  -15.6221  -47.3610 C.3       23 UNK        -0.0205 
      9 C9         -1.4787  -15.8786  -48.6342 C.ar      23 UNK        -0.0193 
     10 C10        -2.0377  -15.5965  -49.8846 C.ar      23 UNK        -0.1150 
     11 C11        -1.3107  -15.8334  -51.0543 C.ar      23 UNK        -0.0193 
     12 C12        -0.0206  -16.3629  -50.9678 C.ar      23 UNK        -0.1150 
     13 C13         0.5493  -16.6473  -49.7245 C.ar      23 UNK        -0.0193 
     14 C14        -0.1835  -16.3984  -48.5609 C.ar      23 UNK        -0.1150 
     15 C15         1.9617  -17.2065  -49.6487 C.3       23 UNK        -0.0205 
     16 S16         1.9838  -19.0171  -49.8373 S.3       23 UNK        -0.2404 
     17 C17         1.5824  -19.5419  -48.1389 C.3       23 UNK        -0.0398 
     18 CA          1.0728  -20.9993  -48.0347 C.3       11 UNK         0.1400 
     19 N           1.1635  -21.4810  -46.6582 N.am      11 UNK        -0.5000 
     20 C           1.1544  -22.7645  -46.2816 C.2       10 UNK         0.5000 
     21 O           1.0470  -23.7080  -47.0645 O.2       10 UNK        -0.5000 
     22 CA          1.3001  -23.0378  -44.7705 C.3       10 UNK         0.1400 
     23 CB          2.7797  -23.0546  -44.3575 C.3       10 UNK        -0.1800 
     24 N           0.5777  -22.0687  -43.9444 N.am      10 UNK        -0.5000 
     25 C          -0.7579  -21.9767  -43.9032 C.2       9 UNK         0.5000 
     26 O          -1.5091  -22.7261  -44.5246 O.2       9 UNK        -0.5000 
     27 CA         -1.3578  -20.8322  -43.0669 C.3       9 UNK         0.1400 
     28 CB         -1.3923  -21.2002  -41.5769 C.3       9 UNK        -0.1800 
     29 N          -0.6505  -19.5660  -43.2521 N.am      9 UNK        -0.5000 
     30 C          -0.5727  -18.9098  -44.4187 C.2       8 UNK         0.5000 
     31 O          -1.1281  -19.2813  -45.4522 O.2       8 UNK        -0.5000 
     32 CA          0.3204  -17.6601  -44.4530 C.3       8 UNK         0.1400 
     33 CB         -0.4151  -16.4520  -43.8569 C.3       8 UNK        -0.1800 
     34 N           1.5863  -17.8560  -43.7515 N.am      8 UNK        -0.5000 
     35 C           2.5144  -18.7720  -44.0539 C.2       7 UNK         0.5000 
     36 O           2.4271  -19.5424  -45.0067 O.2       7 UNK        -0.5000 
     37 CA          3.7109  -18.8869  -43.0960 C.3       7 UNK         0.1400 
     38 CB          4.7749  -17.8200  -43.3939 C.3       7 UNK        -0.1800 
     39 N           3.2953  -18.7892  -41.6982 N.am      7 UNK        -0.5000 
     40 C           2.6065  -19.7351  -41.0464 C.2       6 UNK         0.5000 
     41 O           2.2807  -20.8123  -41.5475 O.2       6 UNK        -0.5000 
     42 CA          2.1897  -19.4034  -39.6012 C.3       6 UNK         0.1400 
     43 CB          3.3421  -19.6868  -38.6260 C.3       6 UNK        -0.1800 
     44 N           1.7497  -18.0144  -39.4428 N.am      6 UNK        -0.5000 
     45 C           0.6122  -17.5278  -39.9575 C.2       5 UNK         0.5000 
     46 O          -0.1808  -18.2027  -40.6146 O.2       5 UNK        -0.5000 
     47 CA          0.3278  -16.0276  -39.7343 C.3       5 UNK         0.1400 
     48 CB         -0.2706  -15.7967  -38.3384 C.3       5 UNK        -0.1800 
     49 N           1.4768  -15.1303  -39.9245 N.am      5 UNK        -0.5000 
     50 C           2.2590  -15.0954  -41.0114 C.2       4 UNK         0.5000 
     51 O           2.2004  -15.9278  -41.9151 O.2       4 UNK        -0.5000 
     52 CA          3.3026  -13.9666  -41.1023 C.3       4 UNK         0.1400 
     53 CB          4.5387  -14.3148  -40.2586 C.3       4 UNK        -0.1800 
     54 N           3.7241  -13.7671  -42.4921 N.am      4 UNK        -0.5000 
     55 C           2.9639  -13.2184  -43.4487 C.2       3 UNK         0.5000 
     56 O           1.8932  -12.6431  -43.2356 O.2       3 UNK        -0.5000 
     57 CA          3.4757  -13.3756  -44.8877 C.3       3 UNK         0.1400 
     58 CB          3.0548  -14.7372  -45.4732 C.3       3 UNK        -0.1800 
     59 N           2.9324  -12.3130  -45.7261 N.am      3 UNK        -0.5000 
     60 C           3.5363  -11.7867  -46.7962 C.2       2 UNK         0.5000 
     61 O           4.6596  -12.1221  -47.1773 O.2       2 UNK        -0.5000 
     62 CA          2.7194  -10.7545  -47.5983 C.3       2 UNK         0.1400 
     63 CB          3.5432  -10.0642  -48.7003 C.3       2 UNK        -0.1800 
     64 N           1.5696  -11.4100  -48.2177 N.am      2 UNK        -0.5000 
     65 C           0.3917  -11.6384  -47.6272 C.2       1 UNK         0.5000 
     66 O           0.1117  -11.2111  -46.5056 O.2       1 UNK        -0.5000 
     67 C          -0.3470  -21.1591  -48.6176 C.2       11 UNK         0.5000 
     68 O          -0.4876  -21.7063  -49.7116 O.2       11 UNK        -0.5000 
     69 N          -1.3636  -20.6683  -47.8949 N.am      12 UNK        -0.5000 
     70 CA         -2.7402  -20.5879  -48.3752 C.3       12 UNK         0.1400 
     71 CB         -3.3186  -19.1976  -48.0635 C.3       12 UNK        -0.1800 
     72 C          -3.6182  -21.6991  -47.7887 C.2       12 UNK         0.5000 
     73 O          -4.1161  -22.5302  -48.5477 O.2       12 UNK        -0.5000 
     74 N          -3.8320  -21.6864  -46.4647 N.am      13 UNK        -0.5000 
     75 CA         -4.8156  -22.5375  -45.7811 C.3       13 UNK         0.1400 
     76 CB         -4.8922  -22.1782  -44.2893 C.3       13 UNK        -0.1800 
     77 C          -4.5738  -24.0438  -45.9832 C.2       13 UNK         0.5000 
     78 O          -5.4988  -24.7634  -46.3641 O.2       13 UNK        -0.5000 
     79 N          -3.3184  -24.4694  -45.7962 N.am      14 UNK        -0.5000 
     80 CA         -2.8487  -25.8398  -46.0071 C.3       14 UNK         0.1400 
     81 CB         -1.4467  -25.9866  -45.3991 C.3       14 UNK        -0.1800 
     82 C          -2.8459  -26.2778  -47.4860 C.2       14 UNK         0.5000 
     83 O          -2.8446  -27.4792  -47.7542 O.2       14 UNK        -0.5000 
     84 N          -2.8887  -25.3161  -48.4182 N.am      15 UNK        -0.5000 
     85 CA         -3.0222  -25.5319  -49.8595 C.3       15 UNK         0.1400 
     86 CB         -2.1614  -24.4982  -50.6069 C.3       15 UNK        -0.1800 
     87 C          -4.5038  -25.4863  -50.2880 C.2       15 UNK         0.5000 
     88 O          -4.8239  -24.9214  -51.3354 O.2       15 UNK        -0.5000 
     89 N          -5.3800  -26.0705  -49.4555 N.am      16 UNK        -0.5000 
     90 CA         -6.8316  -26.1952  -49.6181 C.3       16 UNK         0.1400 
     91 CB         -7.1579  -27.2046  -50.7377 C.3       16 UNK        -0.1800 
     92 C          -7.5359  -24.8344  -49.7949 C.2       16 UNK         0.5000 
     93 O          -8.3571  -24.6750  -50.6997 O.2       16 UNK        -0.5000 
     94 N          -7.1791  -23.8783  -48.9231 N.am      17 UNK        -0.5000 
     95 CA         -7.6246  -22.4792  -48.9242 C.3       17 UNK         0.1400 
     96 CB         -9.1277  -22.3755  -48.5914 C.3       17 UNK        -0.1800 
     97 C          -7.2287  -21.7442  -50.2224 C.2       17 UNK         0.5000 
     98 O          -8.0641  -21.0998  -50.8592 O.2       17 UNK        -0.5000 
     99 N          -5.9420  -21.8726  -50.5717 N.am      18 UNK        -0.5000 
    100 CA        -5.2587  -21.3221  -51.7402 C.3       18 UNK         0.1400 
    101 CB        -5.1400  -19.7885  -51.6362 C.3       18 UNK        -0.1800 
    102 C         -5.8785  -21.7894  -53.0702 C.2       18 UNK         0.5000 
    103 O         -6.2713  -20.9649  -53.8987 O.2       18 UNK        -0.5000 
    104 N         -5.9413  -23.1134  -53.2614 N.am      19 UNK        -0.5000 
    105 CA        -6.4097  -23.7683  -54.4835 C.3       19 UNK         0.1400 
    106 CB        -6.7043  -25.2462  -54.1796 C.3       19 UNK        -0.1800 
    107 C         -5.3892  -23.5940  -55.6269 C.2       19 UNK         0.5000 
    108 O         -4.5726  -24.4828  -55.8723 O.2       19 UNK        -0.5000 
    109 N         -5.4265  -22.4107  -56.2555 N.am      20 UNK        -0.5000 
    110 CA        -4.5412  -21.9023  -57.3127 C.3       20 UNK         0.1400 
    111 CB        -4.5419  -22.8262  -58.5480 C.3       20 UNK        -0.1800 
    112 C         -3.1113  -21.5630  -56.8367 C.2       20 UNK         0.5000 
    113 O         -2.2751  -21.1889  -57.6609 O.2       20 UNK        -0.5000 
    114 N         -2.8579  -21.6454  -55.5217 N.am      21 UNK        -0.5000 
    115 CA        -1.5674  -21.3746  -54.8771 C.3       21 UNK         0.1400 
    116 CB        -1.6773  -21.7044  -53.3802 C.3       21 UNK        -0.1800 
    117 C         -1.0709  -19.9277  -55.0664 C.2       21 UNK         0.5000 
    118 O          0.1379  -19.7011  -55.1279 O.2       21 UNK        -0.5000 
    119 N         -2.0168  -18.9882  -55.1773 N.am      22 UNK        -0.5000 
    120 CA        -1.7716  -17.5651  -55.4561 C.3       22 UNK         0.1400 
    121 C         -1.5907  -17.2400  -56.9699 C.2       22 UNK         0.5000 
    122 N         -1.6739  -18.2006  -57.8844 N.am      22 UNK        -0.7600 
    123 O         -1.3570  -16.0882  -57.3254 O.2       22 UNK        -0.5000 
    124 C124       -2.8550  -16.6641  -54.8059 C.3       23 UNK        -0.0398 
    125 S125       -2.9457  -16.8960  -52.9972 S.3       23 UNK        -0.2404 
    126 C126       -1.9117  -15.5196  -52.4138 C.3       23 UNK        -0.0205 
    127 H127       -1.6991  -10.7695  -51.9011 H         1 UNK         0.0600 
    128 H128       -0.8357  -11.9602  -52.8783 H         1 UNK         0.0600 
    129 H129       -0.0369  -10.4552  -52.4092 H         1 UNK         0.0600 
    130 H130       -1.8181  -11.3442  -49.7542 H         1 UNK         0.3000 
    131 H131       -0.1221  -13.4203  -48.6577 H         1 UNK         0.0600 
    132 H132       -2.3129  -11.9534  -47.1201 H         1 UNK         0.0800 
    133 H133       -2.7073  -13.1349  -48.3270 H         1 UNK         0.0800 
    134 H134       -2.2086  -16.5019  -46.7189 H         1 UNK         0.0800 
    135 H135       -3.3299  -15.4821  -47.5830 H         1 UNK         0.0800 
    136 H136       -3.0383  -15.1931  -49.9509 H         1 UNK         0.1150 
    137 H137        0.5427  -16.5548  -51.8703 H         1 UNK         0.1150 
    138 H138        0.2544  -16.5991  -47.5953 H         1 UNK         0.1150 
    139 H139        2.5690  -16.7650  -50.4403 H         1 UNK         0.0800 
    140 H140        2.4392  -16.9231  -48.7091 H         1 UNK         0.0800 
    141 H141        0.8686  -18.8546  -47.6855 H         1 UNK         0.0800 
    142 H142        2.5060  -19.4343  -47.5698 H         1 UNK         0.0800 
    143 H143        1.7406  -21.6242  -48.6321 H         1 UNK         0.0600 
    144 H144        1.3372  -20.7756  -45.9475 H         1 UNK         0.3000 
    145 H145        0.8847  -24.0272  -44.5695 H         1 UNK         0.0600 
    146 H146        2.8913  -23.3063  -43.3026 H         1 UNK         0.0600 
    147 H147        3.3361  -23.7971  -44.9308 H         1 UNK         0.0600 
    148 H148        3.2566  -22.0881  -44.5216 H         1 UNK         0.0600 
    149 H149        1.1334  -21.4293  -43.3893 H         1 UNK         0.3000 
    150 H150       -2.3859  -20.6817  -43.4004 H         1 UNK         0.0600 
    151 H151       -1.9281  -22.1370  -41.4184 H         1 UNK         0.0600 
    152 H152       -1.9012  -20.4323  -40.9941 H         1 UNK         0.0600 
    153 H153       -0.3894  -21.3206  -41.1668 H         1 UNK         0.0600 
    154 H154       -0.2061  -19.1661  -42.4323 H         1 UNK         0.3000 
    155 H155        0.5512  -17.4433  -45.4961 H         1 UNK         0.0600 
    156 H156       -0.6027  -16.5810  -42.7916 H         1 UNK         0.0600 
    157 H157        0.1605  -15.5351  -43.9848 H         1 UNK         0.0600 
    158 H158       -1.3810  -16.3034  -44.3395 H         1 UNK         0.0600 
    159 H159        1.7689  -17.2264  -42.9699 H         1 UNK         0.3000 
    160 H160        4.1648  -19.8678  -43.2531 H         1 UNK         0.0600 
    161 H161        4.4219  -16.8174  -43.1553 H         1 UNK         0.0600 
    162 H162        5.0572  -17.8303  -44.4475 H         1 UNK         0.0600 
    163 H163        5.6799  -17.9987  -42.8132 H         1 UNK         0.0600 
    164 H164        3.4513  -17.9034  -41.2400 H         1 UNK         0.3000 
    165 H165        1.3554  -20.0580  -39.3394 H         1 UNK         0.0600 
    166 H166        3.0308  -19.5323  -37.5928 H         1 UNK         0.0600 
    167 H167        3.6798  -20.7205  -38.7115 H         1 UNK         0.0600 
    168 H168        4.2018  -19.0435  -38.8179 H         1 UNK         0.0600 
    169 H169        2.3533  -17.3931  -38.9246 H         1 UNK         0.3000 
    170 H170       -0.4237  -15.7350  -40.4700 H         1 UNK         0.0600 
    171 H171        0.4516  -16.0117  -37.5499 H         1 UNK         0.0600 
    172 H172       -0.6040  -14.7659  -38.2170 H         1 UNK         0.0600 
    173 H173       -1.1379  -16.4377  -38.1733 H         1 UNK         0.0600 
    174 H174        1.6101  -14.4270  -39.2123 H         1 UNK         0.3000 
    175 H175        2.8584  -13.0422  -40.7276 H         1 UNK         0.0600 
    176 H176        5.2869  -13.5236  -40.3113 H         1 UNK         0.0600 
    177 H177        5.0069  -15.2419  -40.5926 H         1 UNK         0.0600 
    178 H178        4.2754  -14.4402  -39.2077 H         1 UNK         0.0600 
    179 H179        4.5738  -14.2387  -42.7637 H         1 UNK         0.3000 
    180 H180        4.5657  -13.3091  -44.8675 H         1 UNK         0.0600 
    181 H181        1.9701  -14.8203  -45.5531 H         1 UNK         0.0600 
    182 H182        3.3987  -15.5613  -44.8497 H         1 UNK         0.0600 
    183 H183        3.4739  -14.8869  -46.4683 H         1 UNK         0.0600 
    184 H184        2.0137  -11.9786  -45.4545 H         1 UNK         0.3000 
    185 H185        2.3782   -9.9841  -46.9036 H         1 UNK         0.0600 
    186 H186        4.4141   -9.5601  -48.2795 H         1 UNK         0.0600 
    187 H187        3.9011  -10.7768  -49.4446 H         1 UNK         0.0600 
    188 H188        2.9509   -9.3100  -49.2187 H         1 UNK         0.0600 
    189 H189        1.7088  -11.7978  -49.1458 H         1 UNK         0.3000 
    190 H190       -1.1775  -20.2471  -46.9865 H         1 UNK         0.3000 
    191 H191       -2.7654  -20.7022  -49.4612 H         1 UNK         0.0600 
    192 H192       -2.7851  -18.4272  -48.6192 H         1 UNK         0.0600 
    193 H193       -4.3689  -19.1338  -48.3500 H         1 UNK         0.0600 
    194 H194       -3.2550  -18.9500  -47.0041 H         1 UNK         0.0600 
    195 H195       -3.3467  -21.0041  -45.9010 H         1 UNK         0.3000 
    196 H196       -5.7888  -22.3066  -46.2159 H         1 UNK         0.0600 
    197 H197       -5.7151  -22.7085  -43.8086 H         1 UNK         0.0600 
    198 H198       -5.0663  -21.1119  -44.1450 H         1 UNK         0.0600 
    199 H199       -3.9828  -22.4482  -43.7547 H         1 UNK         0.0600 
    200 H200       -2.6278  -23.7986  -45.4606 H         1 UNK         0.3000 
    201 H201       -3.5238  -26.5096  -45.4707 H         1 UNK         0.0600 
    202 H202       -1.4418  -25.7168  -44.3428 H         1 UNK         0.0600 
    203 H203       -0.7256  -25.3509  -45.9114 H         1 UNK         0.0600 
    204 H204       -1.0911  -27.0148  -45.4756 H         1 UNK         0.0600 
    205 H205       -2.9711  -24.3543  -48.1138 H         1 UNK         0.3000 
    206 H206       -2.6451  -26.5225  -50.1205 H         1 UNK         0.0600 
    207 H207       -1.1267  -24.5236  -50.2649 H         1 UNK         0.0600 
    208 H208       -2.1531  -24.6995  -51.6785 H         1 UNK         0.0600 
    209 H209       -2.5330  -23.4829  -50.4673 H         1 UNK         0.0600 
    210 H210       -5.0065  -26.4711  -48.6065 H         1 UNK         0.3000 
    211 H211       -7.2114  -26.6098  -48.6831 H         1 UNK         0.0600 
    212 H212       -6.7882  -26.8684  -51.7055 H         1 UNK         0.0600 
    213 H213       -8.2338  -27.3569  -50.8303 H         1 UNK         0.0600 
    214 H214       -6.7108  -28.1769  -50.5311 H         1 UNK         0.0600 
    215 H215       -6.4862  -24.1205  -48.2238 H         1 UNK         0.3000 
    216 H216       -7.0813  -21.9809  -48.1216 H         1 UNK         0.0600 
    217 H217       -9.4293  -21.3338  -48.4771 H         1 UNK         0.0600 
    218 H218       -9.3597  -22.8846  -47.6560 H         1 UNK         0.0600 
    219 H219       -9.7506  -22.8103  -49.3735 H         1 UNK         0.0600 
    220 H220       -5.3460  -22.4100  -49.9466 H         1 UNK         0.3000 
    221 H221       -4.2496  -21.7334  -51.7106 H         1 UNK         0.0600 
    222 H222       -6.1160  -19.3027  -51.6418 H         1 UNK         0.0600 
    223 H223       -4.6219  -19.4905  -50.7265 H         1 UNK         0.0600 
    224 H224       -4.5713  -19.3874  -52.4754 H         1 UNK         0.0600 
    225 H225       -5.5852  -23.7321  -52.5339 H         1 UNK         0.3000 
    226 H226       -7.3480  -23.3027  -54.7926 H         1 UNK         0.0600 
    227 H227       -7.4895  -25.3390  -53.4292 H         1 UNK         0.0600 
    228 H228       -7.0450  -25.7697  -55.0736 H         1 UNK         0.0600 
    229 H229       -5.8211  -25.7672  -53.8081 H         1 UNK         0.0600 
    230 H230       -6.0789  -21.7282  -55.8842 H         1 UNK         0.3000 
    231 H231       -4.9772  -20.9516  -57.6226 H         1 UNK         0.0600 
    232 H232       -4.0351  -23.7711  -58.3516 H         1 UNK         0.0600 
    233 H233       -4.0299  -22.3546  -59.3875 H         1 UNK         0.0600 
    234 H234       -5.5576  -23.0496  -58.8741 H         1 UNK         0.0600 
    235 H235       -3.6054  -21.9637  -54.9250 H         1 UNK         0.3000 
    236 H236       -0.8289  -22.0423  -55.3253 H         1 UNK         0.0600 
    237 H237       -2.0455  -22.7177  -53.2199 H         1 UNK         0.0600 
    238 H238       -0.7041  -21.6320  -52.8926 H         1 UNK         0.0600 
    239 H239       -2.3459  -21.0135  -52.8667 H         1 UNK         0.0600 
    240 H240       -2.9834  -19.2695  -55.1157 H         1 UNK         0.3000 
    241 H241       -0.8196  -17.2950  -54.9948 H         1 UNK         0.0600 
    242 H242       -1.8368  -19.1669  -57.6268 H         1 UNK         0.3800 
    243 H243       -1.5468  -17.9642  -58.8559 H         1 UNK         0.3800 
    244 H244       -2.6691  -15.6098  -55.0183 H         1 UNK         0.0800 
    245 H245       -3.8357  -16.8877  -55.2287 H         1 UNK         0.0800 
    246 H246       -1.1130  -15.3234  -53.1310 H         1 UNK         0.0800 
    247 H247       -2.5107  -14.6093  -52.3620 H         1 UNK         0.0800 
@<TRIPOS>BOND
     1    1    2 1    
     2    1  127 1    
     3    1  128 1    
     4    1  129 1    
     5    2    3 2    
     6    2    4 am   BACKBONE|DICT|INTERRES
     7    4    5 1    
     8    4  130 1    
     9    5    6 1    
    10    5   65 1    
    11    5  131 1    
    12    6    7 1    
    13    6  132 1    
    14    6  133 1    
    15    7    8 1    
    16    8    9 1    
    17    8  134 1    
    18    8  135 1    
    19    9   10 ar   
    20    9   14 ar   
    21   10   11 ar   
    22   10  136 1    
    23   11   12 ar   
    24   11  126 1    
    25   12   13 ar   
    26   12  137 1    
    27   13   14 ar   
    28   13   15 1    
    29   14  138 1    
    30   15   16 1    
    31   15  139 1    
    32   15  140 1    
    33   16   17 1    
    34   17   18 1    
    35   17  141 1    
    36   17  142 1    
    37   18   19 1    
    38   18   67 1    
    39   18  143 1    
    40   19   20 am   BACKBONE|DICT|INTERRES
    41   19  144 1    
    42   20   21 2    
    43   20   22 1    
    44   22   23 1    
    45   22   24 1    
    46   22  145 1    
    47   23  146 1    
    48   23  147 1    
    49   23  148 1    
    50   24   25 am   BACKBONE|DICT|INTERRES
    51   24  149 1    
    52   25   26 2    
    53   25   27 1    
    54   27   28 1    
    55   27   29 1    
    56   27  150 1    
    57   28  151 1    
    58   28  152 1    
    59   28  153 1    
    60   29   30 am   BACKBONE|DICT|INTERRES
    61   29  154 1    
    62   30   31 2    
    63   30   32 1    
    64   32   33 1    
    65   32   34 1    
    66   32  155 1    
    67   33  156 1    
    68   33  157 1    
    69   33  158 1    
    70   34   35 am   BACKBONE|DICT|INTERRES
    71   34  159 1    
    72   35   36 2    
    73   35   37 1    
    74   37   38 1    
    75   37   39 1    
    76   37  160 1    
    77   38  161 1    
    78   38  162 1    
    79   38  163 1    
    80   39   40 am   BACKBONE|DICT|INTERRES
    81   39  164 1    
    82   40   41 2    
    83   40   42 1    
    84   42   43 1    
    85   42   44 1    
    86   42  165 1    
    87   43  166 1    
    88   43  167 1    
    89   43  168 1    
    90   44   45 am   BACKBONE|DICT|INTERRES
    91   44  169 1    
    92   45   46 2    
    93   45   47 1    
    94   47   48 1    
    95   47   49 1    
    96   47  170 1    
    97   48  171 1    
    98   48  172 1    
    99   48  173 1    
   100   49   50 am   BACKBONE|DICT|INTERRES
   101   49  174 1    
   102   50   51 2    
   103   50   52 1    
   104   52   53 1    
   105   52   54 1    
   106   52  175 1    
   107   53  176 1    
   108   53  177 1    
   109   53  178 1    
   110   54   55 am   BACKBONE|DICT|INTERRES
   111   54  179 1    
   112   55   56 2    
   113   55   57 1    
   114   57   58 1    
   115   57   59 1    
   116   57  180 1    
   117   58  181 1    
   118   58  182 1    
   119   58  183 1    
   120   59   60 am   BACKBONE|DICT|INTERRES
   121   59  184 1    
   122   60   61 2    
   123   60   62 1    
   124   62   63 1    
   125   62   64 1    
   126   62  185 1    
   127   63  186 1    
   128   63  187 1    
   129   63  188 1    
   130   64   65 am   BACKBONE|DICT|INTERRES
   131   64  189 1    
   132   65   66 2    
   133   67   68 2    
   134   67   69 am   BACKBONE|DICT|INTERRES
   135   69   70 1    
   136   69  190 1    
   137   70   71 1    
   138   70   72 1    
   139   70  191 1    
   140   71  192 1    
   141   71  193 1    
   142   71  194 1    
   143   72   73 2    
   144   72   74 am   BACKBONE|DICT|INTERRES
   145   74   75 1    
   146   74  195 1    
   147   75   76 1    
   148   75   77 1    
   149   75  196 1    
   150   76  197 1    
   151   76  198 1    
   152   76  199 1    
   153   77   78 2    
   154   77   79 am   BACKBONE|DICT|INTERRES
   155   79   80 1    
   156   79  200 1    
   157   80   81 1    
   158   80   82 1    
   159   80  201 1    
   160   81  202 1    
   161   81  203 1    
   162   81  204 1    
   163   82   83 2    
   164   82   84 am   BACKBONE|DICT|INTERRES
   165   84   85 1    
   166   84  205 1    
   167   85   86 1    
   168   85   87 1    
   169   85  206 1    
   170   86  207 1    
   171   86  208 1    
   172   86  209 1    
   173   87   88 2    
   174   87   89 am   BACKBONE|DICT|INTERRES
   175   89   90 1    
   176   89  210 1    
   177   90   91 1    
   178   90   92 1    
   179   90  211 1    
   180   91  212 1    
   181   91  213 1    
   182   91  214 1    
   183   92   93 2    
   184   92   94 am   BACKBONE|DICT|INTERRES
   185   94   95 1    
   186   94  215 1    
   187   95   96 1    
   188   95   97 1    
   189   95  216 1    
   190   96  217 1    
   191   96  218 1    
   192   96  219 1    
   193   97   98 2    
   194   97   99 am   BACKBONE|DICT|INTERRES
   195   99  100 1    
   196   99  220 1    
   197  100  101 1    
   198  100  102 1    
   199  100  221 1    
   200  101  222 1    
   201  101  223 1    
   202  101  224 1    
   203  102  103 2    
   204  102  104 am   BACKBONE|DICT|INTERRES
   205  104  105 1    
   206  104  225 1    
   207  105  106 1    
   208  105  107 1    
   209  105  226 1    
   210  106  227 1    
   211  106  228 1    
   212  106  229 1    
   213  107  108 2    
   214  107  109 am   BACKBONE|DICT|INTERRES
   215  109  110 1    
   216  109  230 1    
   217  110  111 1    
   218  110  112 1    
   219  110  231 1    
   220  111  232 1    
   221  111  233 1    
   222  111  234 1    
   223  112  113 2    
   224  112  114 am   BACKBONE|DICT|INTERRES
   225  114  115 1    
   226  114  235 1    
   227  115  116 1    
   228  115  117 1    
   229  115  236 1    
   230  116  237 1    
   231  116  238 1    
   232  116  239 1    
   233  117  118 2    
   234  117  119 am   BACKBONE|DICT|INTERRES
   235  119  120 1    
   236  119  240 1    
   237  120  121 1    
   238  120  124 1    
   239  120  241 1    
   240  121  122 am   BACKBONE|DICT|INTERRES
   241  121  123 2    
   242  122  242 1    
   243  122  243 1    
   244  124  125 1    
   245  124  244 1    
   246  124  245 1    
   247  125  126 1    
   248  126  246 1    
   249  126  247 1    
@<TRIPOS>SUBSTRUCTURE
     1 UNK         1 GROUP             0       ****    0 ROOT    
