@<TRIPOS>MOLECULE
3R540
247   249    1
SMALL
USER_CHARGES


@<TRIPOS>ATOM
      1 CA         -2.7490   -7.8410  -49.0346 C.3       0 UNK        -0.1800 
      2 C          -2.7447   -9.0918  -49.9025 C.2       0 UNK         0.5000 
      3 O          -3.5793   -9.2180  -50.7991 O.2       0 UNK        -0.5000 
      4 N          -1.8083  -10.0093  -49.6428 N.am      1 UNK        -0.5000 
      5 CA         -1.6427  -11.2671  -50.3763 C.3       1 UNK         0.1400 
      6 C6         -2.7483  -12.3343  -50.1123 C.3       23 UNK        -0.0398 
      7 S7         -3.3833  -12.4617  -48.3955 S.3       23 UNK        -0.2404 
      8 C8         -2.3018  -13.6687  -47.5614 C.3       23 UNK        -0.0205 
      9 C9         -2.3868  -15.0732  -48.1358 C.ar      23 UNK        -0.0193 
     10 C10        -1.5339  -15.4646  -49.1666 C.ar      23 UNK        -0.1150 
     11 C11        -1.5626  -16.7685  -49.6626 C.ar      23 UNK        -0.0193 
     12 C12        -2.4260  -17.7050  -49.0829 C.ar      23 UNK        -0.1150 
     13 C13        -3.2784  -17.3326  -48.0312 C.ar      23 UNK        -0.0193 
     14 C14        -3.2656  -16.0072  -47.5867 C.ar      23 UNK        -0.1150 
     15 C15        -4.1893  -18.3090  -47.2874 C.3       23 UNK        -0.0205 
     16 S16        -4.2733  -20.0081  -47.9481 S.3       23 UNK        -0.2404 
     17 C17        -4.6206  -20.9631  -46.4247 C.3       23 UNK        -0.0398 
     18 CA         -3.7776  -22.2578  -46.3401 C.3       11 UNK         0.1400 
     19 N          -2.3437  -21.9961  -46.4769 N.am      11 UNK        -0.5000 
     20 C          -1.5338  -22.7869  -47.1861 C.2       10 UNK         0.5000 
     21 O          -1.8254  -23.9385  -47.5072 O.2       10 UNK        -0.5000 
     22 CA         -0.2106  -22.1684  -47.6677 C.3       10 UNK         0.1400 
     23 CB         -0.4640  -20.8820  -48.4728 C.3       10 UNK        -0.1800 
     24 N           0.7045  -21.8783  -46.5730 N.am      10 UNK        -0.5000 
     25 C           1.3004  -22.8027  -45.8113 C.2       9 UNK         0.5000 
     26 O           1.1811  -24.0161  -45.9781 O.2       9 UNK        -0.5000 
     27 CA          2.1257  -22.2750  -44.6236 C.3       9 UNK         0.1400 
     28 CB          3.5074  -21.7913  -45.0875 C.3       9 UNK        -0.1800 
     29 N           1.4384  -21.2114  -43.8876 N.am      9 UNK        -0.5000 
     30 C           0.2301  -21.3465  -43.3205 C.2       8 UNK         0.5000 
     31 O          -0.4195  -22.3927  -43.3425 O.2       8 UNK        -0.5000 
     32 CA         -0.3770  -20.0987  -42.6580 C.3       8 UNK         0.1400 
     33 CB          0.2622  -19.8407  -41.2859 C.3       8 UNK        -0.1800 
     34 N          -0.2519  -18.9070  -43.4952 N.am      8 UNK        -0.5000 
     35 C          -0.8572  -18.7459  -44.6811 C.2       7 UNK         0.5000 
     36 O          -1.6323  -19.5661  -45.1733 O.2       7 UNK        -0.5000 
     37 CA         -0.5013  -17.4718  -45.4669 C.3       7 UNK         0.1400 
     38 CB         -1.2322  -16.2538  -44.8836 C.3       7 UNK        -0.1800 
     39 N           0.9366  -17.2095  -45.4856 N.am      7 UNK        -0.5000 
     40 C           1.8616  -18.0323  -45.9991 C.2       6 UNK         0.5000 
     41 O           1.6020  -19.0918  -46.5686 O.2       6 UNK        -0.5000 
     42 CA          3.3297  -17.6257  -45.7896 C.3       6 UNK         0.1400 
     43 CB          3.7740  -16.5986  -46.8415 C.3       6 UNK        -0.1800 
     44 N           3.5613  -17.0889  -44.4483 N.am      6 UNK        -0.5000 
     45 C           3.5165  -17.8163  -43.3230 C.2       5 UNK         0.5000 
     46 O           3.3044  -19.0280  -43.2986 O.2       5 UNK        -0.5000 
     47 CA          3.6991  -17.0511  -41.9999 C.3       5 UNK         0.1400 
     48 CB          5.1882  -16.8048  -41.7149 C.3       5 UNK        -0.1800 
     49 N           2.9840  -15.7745  -41.9901 N.am      5 UNK        -0.5000 
     50 C           1.6488  -15.6579  -42.0098 C.2       4 UNK         0.5000 
     51 O           0.8797  -16.6188  -41.9936 O.2       4 UNK        -0.5000 
     52 CA          1.0792  -14.2292  -42.1093 C.3       4 UNK         0.1400 
     53 CB          0.9097  -13.6190  -40.7101 C.3       4 UNK        -0.1800 
     54 N           1.8852  -13.3264  -42.9391 N.am      4 UNK        -0.5000 
     55 C           2.1479  -13.5180  -44.2386 C.2       3 UNK         0.5000 
     56 O           1.7807  -14.5135  -44.8672 O.2       3 UNK        -0.5000 
     57 CA          3.0138  -12.4477  -44.9319 C.3       3 UNK         0.1400 
     58 CB          4.5022  -12.7173  -44.6589 C.3       3 UNK        -0.1800 
     59 N           2.8011  -12.4310  -46.3800 N.am      3 UNK        -0.5000 
     60 C           1.6651  -12.0509  -46.9768 C.2       2 UNK         0.5000 
     61 O           0.7175  -11.5281  -46.3803 O.2       2 UNK        -0.5000 
     62 CA          1.5618  -12.3236  -48.4877 C.3       2 UNK         0.1400 
     63 CB          1.7215  -13.8359  -48.7709 C.3       2 UNK        -0.1800 
     64 N           0.2613  -11.8296  -48.9374 N.am      2 UNK        -0.5000 
     65 C          -0.2180  -11.8144  -50.1861 C.2       1 UNK         0.5000 
     66 O           0.4258  -12.1764  -51.1711 O.2       1 UNK        -0.5000 
     67 C          -4.1335  -23.0782  -45.0874 C.2       11 UNK         0.5000 
     68 O          -5.2444  -23.6074  -45.0372 O.2       11 UNK        -0.5000 
     69 N          -3.2211  -23.1901  -44.1108 N.am      12 UNK        -0.5000 
     70 CA         -3.4379  -23.9713  -42.8912 C.3       12 UNK         0.1400 
     71 CB         -3.1723  -23.1094  -41.6445 C.3       12 UNK        -0.1800 
     72 C          -2.5821  -25.2457  -42.8926 C.2       12 UNK         0.5000 
     73 O          -3.1312  -26.3315  -42.7047 O.2       12 UNK        -0.5000 
     74 N          -1.2644  -25.1056  -43.1008 N.am      13 UNK        -0.5000 
     75 CA         -0.3128  -26.2174  -43.0250 C.3       13 UNK         0.1400 
     76 CB          1.1133  -25.6903  -42.8106 C.3       13 UNK        -0.1800 
     77 C          -0.3993  -27.1461  -44.2482 C.2       13 UNK         0.5000 
     78 O          -0.6429  -28.3419  -44.0804 O.2       13 UNK        -0.5000 
     79 N          -0.2283  -26.5863  -45.4554 N.am      14 UNK        -0.5000 
     80 CA         -0.3777  -27.3197  -46.7180 C.3       14 UNK         0.1400 
     81 CB          0.4182  -26.6118  -47.8257 C.3       14 UNK        -0.1800 
     82 C          -1.8518  -27.5154  -47.1289 C.2       14 UNK         0.5000 
     83 O          -2.1289  -28.3559  -47.9855 O.2       14 UNK        -0.5000 
     84 N          -2.7609  -26.7522  -46.5028 N.am      15 UNK        -0.5000 
     85 CA         -4.2171  -26.7639  -46.6779 C.3       15 UNK         0.1400 
     86 CB         -4.8143  -28.1023  -46.1955 C.3       15 UNK        -0.1800 
     87 C          -4.6679  -26.3727  -48.1022 C.2       15 UNK         0.5000 
     88 O          -5.6554  -26.9091  -48.6098 O.2       15 UNK        -0.5000 
     89 N          -3.9322  -25.4414  -48.7209 N.am      16 UNK        -0.5000 
     90 CA         -4.2288  -24.8578  -50.0270 C.3       16 UNK         0.1400 
     91 CB         -2.8977  -24.4223  -50.6708 C.3       16 UNK        -0.1800 
     92 C          -5.2332  -23.6891  -49.9097 C.2       16 UNK         0.5000 
     93 O          -5.9088  -23.5367  -48.8893 O.2       16 UNK        -0.5000 
     94 N          -5.3073  -22.8736  -50.9636 N.am      17 UNK        -0.5000 
     95 CA         -6.0371  -21.6133  -51.0168 C.3       17 UNK         0.1400 
     96 CB         -7.3686  -21.8217  -51.7551 C.3       17 UNK        -0.1800 
     97 C          -5.1530  -20.6087  -51.7628 C.2       17 UNK         0.5000 
     98 O          -4.3599  -21.0221  -52.6142 O.2       17 UNK        -0.5000 
     99 N          -5.3184  -19.3136  -51.4649 N.am      18 UNK        -0.5000 
    100 CA        -4.5194  -18.2112  -52.0148 C.3       18 UNK         0.1400 
    101 CB        -5.0046  -16.8834  -51.4132 C.3       18 UNK        -0.1800 
    102 C         -4.5229  -18.1336  -53.5527 C.2       18 UNK         0.5000 
    103 O         -3.4998  -17.8003  -54.1446 O.2       18 UNK        -0.5000 
    104 N         -5.6539  -18.4976  -54.1723 N.am      19 UNK        -0.5000 
    105 CA        -5.8297  -18.5588  -55.6249 C.3       19 UNK         0.1400 
    106 CB        -7.3161  -18.7992  -55.9314 C.3       19 UNK        -0.1800 
    107 C         -4.9579  -19.6249  -56.3223 C.2       19 UNK         0.5000 
    108 O         -4.6946  -19.4917  -57.5182 O.2       19 UNK        -0.5000 
    109 N         -4.5393  -20.6575  -55.5785 N.am      20 UNK        -0.5000 
    110 CA        -3.6620  -21.7252  -56.0539 C.3       20 UNK         0.1400 
    111 CB        -4.2242  -23.0780  -55.5870 C.3       20 UNK        -0.1800 
    112 C         -2.2255  -21.5363  -55.5398 C.2       20 UNK         0.5000 
    113 O         -1.2769  -21.7540  -56.2944 O.2       20 UNK        -0.5000 
    114 N         -2.0894  -21.1590  -54.2619 N.am      21 UNK        -0.5000 
    115 CA        -0.8145  -21.0501  -53.5561 C.3       21 UNK         0.1400 
    116 CB        -1.0853  -21.0705  -52.0456 C.3       21 UNK        -0.1800 
    117 C          0.0130  -19.8087  -53.9308 C.2       21 UNK         0.5000 
    118 O          1.2383  -19.8519  -53.8107 O.2       21 UNK        -0.5000 
    119 N         -0.6478  -18.7280  -54.3554 N.am      22 UNK        -0.5000 
    120 CA        -0.0211  -17.4426  -54.6809 C.3       22 UNK         0.1400 
    121 C         -0.8222  -16.6721  -55.7711 C.2       22 UNK         0.5000 
    122 N         -0.7848  -15.3458  -55.7973 N.am      22 UNK        -0.7600 
    123 O         -1.4336  -17.2736  -56.6517 O.2       22 UNK        -0.5000 
    124 C124        0.3662  -16.6334  -53.4074 C.3       23 UNK        -0.0398 
    125 S125       -1.0410  -16.2130  -52.3191 S.3       23 UNK        -0.2404 
    126 C126       -0.6356  -17.1481  -50.8078 C.3       23 UNK        -0.0205 
    127 H127       -1.9595   -7.8654  -48.2831 H         1 UNK         0.0600 
    128 H128       -3.7049   -7.7460  -48.5195 H         1 UNK         0.0600 
    129 H129       -2.6035   -6.9547  -49.6523 H         1 UNK         0.0600 
    130 H130       -1.1222   -9.8280  -48.9243 H         1 UNK         0.3000 
    131 H131       -1.7008  -11.0147  -51.4378 H         1 UNK         0.0600 
    132 H132       -2.4563  -13.3141  -50.4881 H         1 UNK         0.0800 
    133 H133       -3.6146  -12.0675  -50.7186 H         1 UNK         0.0800 
    134 H134       -1.2694  -13.3318  -47.5623 H         1 UNK         0.0800 
    135 H135       -2.5869  -13.6943  -46.5087 H         1 UNK         0.0800 
    136 H136       -0.8461  -14.7514  -49.5954 H         1 UNK         0.1150 
    137 H137       -2.4183  -18.7202  -49.4494 H         1 UNK         0.1150 
    138 H138       -3.9129  -15.7104  -46.7732 H         1 UNK         0.1150 
    139 H139       -3.8398  -18.3393  -46.2554 H         1 UNK         0.0800 
    140 H140       -5.2024  -17.9055  -47.2591 H         1 UNK         0.0800 
    141 H141       -5.6856  -21.2018  -46.4213 H         1 UNK         0.0800 
    142 H142       -4.4427  -20.3483  -45.5414 H         1 UNK         0.0800 
    143 H143       -4.0906  -22.8736  -47.1834 H         1 UNK         0.0600 
    144 H144       -2.0264  -21.0742  -46.1834 H         1 UNK         0.3000 
    145 H145        0.2671  -22.8921  -48.3313 H         1 UNK         0.0600 
    146 H146       -0.8020  -20.0633  -47.8364 H         1 UNK         0.0600 
    147 H147        0.4412  -20.5509  -48.9816 H         1 UNK         0.0600 
    148 H148       -1.2317  -21.0399  -49.2303 H         1 UNK         0.0600 
    149 H149        0.8851  -20.8968  -46.3807 H         1 UNK         0.3000 
    150 H150        2.2817  -23.0984  -43.9270 H         1 UNK         0.0600 
    151 H151        4.1272  -21.4977  -44.2404 H         1 UNK         0.0600 
    152 H152        3.4319  -20.9375  -45.7601 H         1 UNK         0.0600 
    153 H153        4.0384  -22.5818  -45.6192 H         1 UNK         0.0600 
    154 H154        1.9324  -20.3284  -43.7983 H         1 UNK         0.3000 
    155 H155       -1.4412  -20.2902  -42.5052 H         1 UNK         0.0600 
    156 H156        0.1722  -20.7165  -40.6420 H         1 UNK         0.0600 
    157 H157        1.3227  -19.6020  -41.3727 H         1 UNK         0.0600 
    158 H158       -0.2252  -19.0098  -40.7757 H         1 UNK         0.0600 
    159 H159        0.3342  -18.1589  -43.1378 H         1 UNK         0.3000 
    160 H160       -0.8245  -17.6107  -46.4999 H         1 UNK         0.0600 
    161 H161       -1.0026  -15.3504  -45.4479 H         1 UNK         0.0600 
    162 H162       -0.9570  -16.0752  -43.8455 H         1 UNK         0.0600 
    163 H163       -2.3124  -16.3973  -44.9105 H         1 UNK         0.0600 
    164 H164        1.2445  -16.3268  -45.0864 H         1 UNK         0.3000 
    165 H165        3.9448  -18.5197  -45.9099 H         1 UNK         0.0600 
    166 H166        4.8347  -16.3672  -46.7432 H         1 UNK         0.0600 
    167 H167        3.6154  -16.9803  -47.8509 H         1 UNK         0.0600 
    168 H168        3.2184  -15.6660  -46.7531 H         1 UNK         0.0600 
    169 H169        3.6724  -16.0890  -44.3745 H         1 UNK         0.3000 
    170 H170        3.2963  -17.6730  -41.1975 H         1 UNK         0.0600 
    171 H171        5.6442  -16.1628  -42.4696 H         1 UNK         0.0600 
    172 H172        5.3304  -16.3332  -40.7424 H         1 UNK         0.0600 
    173 H173        5.7432  -17.7439  -41.7036 H         1 UNK         0.0600 
    174 H174        3.5420  -14.9339  -42.0023 H         1 UNK         0.3000 
    175 H175        0.0915  -14.3018  -42.5684 H         1 UNK         0.0600 
    176 H176        0.4173  -12.6476  -40.7600 H         1 UNK         0.0600 
    177 H177        1.8694  -13.4847  -40.2095 H         1 UNK         0.0600 
    178 H178        0.2956  -14.2603  -40.0764 H         1 UNK         0.0600 
    179 H179        2.2338  -12.4936  -42.4866 H         1 UNK         0.3000 
    180 H180        2.7490  -11.4674  -44.5304 H         1 UNK         0.0600 
    181 H181        4.8136  -13.6888  -45.0452 H         1 UNK         0.0600 
    182 H182        4.7157  -12.7055  -43.5893 H         1 UNK         0.0600 
    183 H183        5.1314  -11.9561  -45.1206 H         1 UNK         0.0600 
    184 H184        3.5190  -12.8683  -46.9379 H         1 UNK         0.3000 
    185 H185        2.3444  -11.7626  -49.0016 H         1 UNK         0.0600 
    186 H186        1.0521  -14.4344  -48.1514 H         1 UNK         0.0600 
    187 H187        1.5309  -14.0892  -49.8128 H         1 UNK         0.0600 
    188 H188        2.7385  -14.1646  -48.5592 H         1 UNK         0.0600 
    189 H189       -0.3126  -11.5052  -48.1677 H         1 UNK         0.3000 
    190 H190       -2.3127  -22.7530  -44.2192 H         1 UNK         0.3000 
    191 H191       -4.4794  -24.2923  -42.8240 H         1 UNK         0.0600 
    192 H192       -3.7727  -22.1998  -41.6608 H         1 UNK         0.0600 
    193 H193       -3.4363  -23.6554  -40.7381 H         1 UNK         0.0600 
    194 H194       -2.1281  -22.8180  -41.5479 H         1 UNK         0.0600 
    195 H195       -0.8823  -24.1720  -43.2370 H         1 UNK         0.3000 
    196 H196       -0.5671  -26.8102  -42.1433 H         1 UNK         0.0600 
    197 H197        1.7954  -26.5095  -42.5811 H         1 UNK         0.0600 
    198 H198        1.1578  -24.9853  -41.9802 H         1 UNK         0.0600 
    199 H199        1.4982  -25.1933  -43.6971 H         1 UNK         0.0600 
    200 H200        0.0325  -25.6069  -45.5286 H         1 UNK         0.3000 
    201 H201        0.0533  -28.3155  -46.5946 H         1 UNK         0.0600 
    202 H202        1.4731  -26.5336  -47.5626 H         1 UNK         0.0600 
    203 H203        0.0483  -25.6054  -48.0141 H         1 UNK         0.0600 
    204 H204        0.3569  -27.1629  -48.7648 H         1 UNK         0.0600 
    205 H205       -2.4018  -26.0707  -45.8503 H         1 UNK         0.3000 
    206 H206       -4.6040  -25.9871  -46.0196 H         1 UNK         0.0600 
    207 H207       -4.4884  -28.3345  -45.1814 H         1 UNK         0.0600 
    208 H208       -5.9040  -28.0623  -46.1834 H         1 UNK         0.0600 
    209 H209       -4.5247  -28.9323  -46.8404 H         1 UNK         0.0600 
    210 H210       -3.1459  -25.0307  -48.2219 H         1 UNK         0.3000 
    211 H211       -4.6819  -25.6197  -50.6643 H         1 UNK         0.0600 
    212 H212       -2.4612  -23.5706  -50.1481 H         1 UNK         0.0600 
    213 H213       -3.0286  -24.1403  -51.7160 H         1 UNK         0.0600 
    214 H214       -2.1675  -25.2317  -50.6508 H         1 UNK         0.0600 
    215 H215       -4.6827  -23.0137  -51.7469 H         1 UNK         0.3000 
    216 H216       -6.2264  -21.2358  -50.0098 H         1 UNK         0.0600 
    217 H217       -7.9361  -20.8921  -51.8108 H         1 UNK         0.0600 
    218 H218       -7.9920  -22.5527  -51.2398 H         1 UNK         0.0600 
    219 H219       -7.2125  -22.1753  -52.7753 H         1 UNK         0.0600 
    220 H220       -5.9950  -19.0605  -50.7596 H         1 UNK         0.3000 
    221 H221       -3.4860  -18.3717  -51.7032 H         1 UNK         0.0600 
    222 H222       -6.0272  -16.6537  -51.7142 H         1 UNK         0.0600 
    223 H223       -4.9740  -16.9042  -50.3244 H         1 UNK         0.0600 
    224 H224       -4.3703  -16.0567  -51.7366 H         1 UNK         0.0600 
    225 H225       -6.4433  -18.7710  -53.6062 H         1 UNK         0.3000 
    226 H226       -5.5467  -17.5878  -56.0369 H         1 UNK         0.0600 
    227 H227       -7.9386  -18.0061  -55.5168 H         1 UNK         0.0600 
    228 H228       -7.4951  -18.8215  -57.0072 H         1 UNK         0.0600 
    229 H229       -7.6622  -19.7489  -55.5213 H         1 UNK         0.0600 
    230 H230       -4.7681  -20.6704  -54.5917 H         1 UNK         0.3000 
    231 H231       -3.6272  -21.7362  -57.1453 H         1 UNK         0.0600 
    232 H232       -4.2893  -23.1378  -54.4999 H         1 UNK         0.0600 
    233 H233       -3.5925  -23.9007  -55.9243 H         1 UNK         0.0600 
    234 H234       -5.2224  -23.2481  -55.9906 H         1 UNK         0.0600 
    235 H235       -2.9247  -21.0298  -53.6961 H         1 UNK         0.3000 
    236 H236       -0.2128  -21.9280  -53.8009 H         1 UNK         0.0600 
    237 H237       -1.5643  -22.0015  -51.7469 H         1 UNK         0.0600 
    238 H238       -0.1558  -20.9864  -51.4816 H         1 UNK         0.0600 
    239 H239       -1.7354  -20.2497  -51.7419 H         1 UNK         0.0600 
    240 H240       -1.6589  -18.7416  -54.4425 H         1 UNK         0.3000 
    241 H241        0.9151  -17.6715  -55.1933 H         1 UNK         0.0600 
    242 H242       -1.2885  -14.8594  -56.5223 H         1 UNK         0.3800 
    243 H243       -0.3045  -14.8166  -55.0875 H         1 UNK         0.3800 
    244 H244        1.0996  -17.2012  -52.8340 H         1 UNK         0.0800 
    245 H245        0.8819  -15.7114  -53.6773 H         1 UNK         0.0800 
    246 H246        0.3925  -16.9363  -50.5104 H         1 UNK         0.0800 
    247 H247       -0.6884  -18.2163  -51.0179 H         1 UNK         0.0800 
@<TRIPOS>BOND
     1    1    2 1    
     2    1  127 1    
     3    1  128 1    
     4    1  129 1    
     5    2    3 2    
     6    2    4 am   BACKBONE|DICT|INTERRES
     7    4    5 1    
     8    4  130 1    
     9    5    6 1    
    10    5   65 1    
    11    5  131 1    
    12    6    7 1    
    13    6  132 1    
    14    6  133 1    
    15    7    8 1    
    16    8    9 1    
    17    8  134 1    
    18    8  135 1    
    19    9   10 ar   
    20    9   14 ar   
    21   10   11 ar   
    22   10  136 1    
    23   11   12 ar   
    24   11  126 1    
    25   12   13 ar   
    26   12  137 1    
    27   13   14 ar   
    28   13   15 1    
    29   14  138 1    
    30   15   16 1    
    31   15  139 1    
    32   15  140 1    
    33   16   17 1    
    34   17   18 1    
    35   17  141 1    
    36   17  142 1    
    37   18   19 1    
    38   18   67 1    
    39   18  143 1    
    40   19   20 am   BACKBONE|DICT|INTERRES
    41   19  144 1    
    42   20   21 2    
    43   20   22 1    
    44   22   23 1    
    45   22   24 1    
    46   22  145 1    
    47   23  146 1    
    48   23  147 1    
    49   23  148 1    
    50   24   25 am   BACKBONE|DICT|INTERRES
    51   24  149 1    
    52   25   26 2    
    53   25   27 1    
    54   27   28 1    
    55   27   29 1    
    56   27  150 1    
    57   28  151 1    
    58   28  152 1    
    59   28  153 1    
    60   29   30 am   BACKBONE|DICT|INTERRES
    61   29  154 1    
    62   30   31 2    
    63   30   32 1    
    64   32   33 1    
    65   32   34 1    
    66   32  155 1    
    67   33  156 1    
    68   33  157 1    
    69   33  158 1    
    70   34   35 am   BACKBONE|DICT|INTERRES
    71   34  159 1    
    72   35   36 2    
    73   35   37 1    
    74   37   38 1    
    75   37   39 1    
    76   37  160 1    
    77   38  161 1    
    78   38  162 1    
    79   38  163 1    
    80   39   40 am   BACKBONE|DICT|INTERRES
    81   39  164 1    
    82   40   41 2    
    83   40   42 1    
    84   42   43 1    
    85   42   44 1    
    86   42  165 1    
    87   43  166 1    
    88   43  167 1    
    89   43  168 1    
    90   44   45 am   BACKBONE|DICT|INTERRES
    91   44  169 1    
    92   45   46 2    
    93   45   47 1    
    94   47   48 1    
    95   47   49 1    
    96   47  170 1    
    97   48  171 1    
    98   48  172 1    
    99   48  173 1    
   100   49   50 am   BACKBONE|DICT|INTERRES
   101   49  174 1    
   102   50   51 2    
   103   50   52 1    
   104   52   53 1    
   105   52   54 1    
   106   52  175 1    
   107   53  176 1    
   108   53  177 1    
   109   53  178 1    
   110   54   55 am   BACKBONE|DICT|INTERRES
   111   54  179 1    
   112   55   56 2    
   113   55   57 1    
   114   57   58 1    
   115   57   59 1    
   116   57  180 1    
   117   58  181 1    
   118   58  182 1    
   119   58  183 1    
   120   59   60 am   BACKBONE|DICT|INTERRES
   121   59  184 1    
   122   60   61 2    
   123   60   62 1    
   124   62   63 1    
   125   62   64 1    
   126   62  185 1    
   127   63  186 1    
   128   63  187 1    
   129   63  188 1    
   130   64   65 am   BACKBONE|DICT|INTERRES
   131   64  189 1    
   132   65   66 2    
   133   67   68 2    
   134   67   69 am   BACKBONE|DICT|INTERRES
   135   69   70 1    
   136   69  190 1    
   137   70   71 1    
   138   70   72 1    
   139   70  191 1    
   140   71  192 1    
   141   71  193 1    
   142   71  194 1    
   143   72   73 2    
   144   72   74 am   BACKBONE|DICT|INTERRES
   145   74   75 1    
   146   74  195 1    
   147   75   76 1    
   148   75   77 1    
   149   75  196 1    
   150   76  197 1    
   151   76  198 1    
   152   76  199 1    
   153   77   78 2    
   154   77   79 am   BACKBONE|DICT|INTERRES
   155   79   80 1    
   156   79  200 1    
   157   80   81 1    
   158   80   82 1    
   159   80  201 1    
   160   81  202 1    
   161   81  203 1    
   162   81  204 1    
   163   82   83 2    
   164   82   84 am   BACKBONE|DICT|INTERRES
   165   84   85 1    
   166   84  205 1    
   167   85   86 1    
   168   85   87 1    
   169   85  206 1    
   170   86  207 1    
   171   86  208 1    
   172   86  209 1    
   173   87   88 2    
   174   87   89 am   BACKBONE|DICT|INTERRES
   175   89   90 1    
   176   89  210 1    
   177   90   91 1    
   178   90   92 1    
   179   90  211 1    
   180   91  212 1    
   181   91  213 1    
   182   91  214 1    
   183   92   93 2    
   184   92   94 am   BACKBONE|DICT|INTERRES
   185   94   95 1    
   186   94  215 1    
   187   95   96 1    
   188   95   97 1    
   189   95  216 1    
   190   96  217 1    
   191   96  218 1    
   192   96  219 1    
   193   97   98 2    
   194   97   99 am   BACKBONE|DICT|INTERRES
   195   99  100 1    
   196   99  220 1    
   197  100  101 1    
   198  100  102 1    
   199  100  221 1    
   200  101  222 1    
   201  101  223 1    
   202  101  224 1    
   203  102  103 2    
   204  102  104 am   BACKBONE|DICT|INTERRES
   205  104  105 1    
   206  104  225 1    
   207  105  106 1    
   208  105  107 1    
   209  105  226 1    
   210  106  227 1    
   211  106  228 1    
   212  106  229 1    
   213  107  108 2    
   214  107  109 am   BACKBONE|DICT|INTERRES
   215  109  110 1    
   216  109  230 1    
   217  110  111 1    
   218  110  112 1    
   219  110  231 1    
   220  111  232 1    
   221  111  233 1    
   222  111  234 1    
   223  112  113 2    
   224  112  114 am   BACKBONE|DICT|INTERRES
   225  114  115 1    
   226  114  235 1    
   227  115  116 1    
   228  115  117 1    
   229  115  236 1    
   230  116  237 1    
   231  116  238 1    
   232  116  239 1    
   233  117  118 2    
   234  117  119 am   BACKBONE|DICT|INTERRES
   235  119  120 1    
   236  119  240 1    
   237  120  121 1    
   238  120  124 1    
   239  120  241 1    
   240  121  122 am   BACKBONE|DICT|INTERRES
   241  121  123 2    
   242  122  242 1    
   243  122  243 1    
   244  124  125 1    
   245  124  244 1    
   246  124  245 1    
   247  125  126 1    
   248  126  246 1    
   249  126  247 1    
@<TRIPOS>SUBSTRUCTURE
     1 UNK         1 GROUP             0       ****    0 ROOT    
