@<TRIPOS>MOLECULE
3R540
247   249    1
SMALL
USER_CHARGES


@<TRIPOS>ATOM
      1 CA          8.8473  -13.9960  -46.1221 C.3       0 UNK        -0.1800 
      2 C           7.4139  -14.0121  -45.6101 C.2       0 UNK         0.5000 
      3 O           7.1608  -14.5114  -44.5138 O.2       0 UNK        -0.5000 
      4 N           6.4778  -13.4695  -46.3993 N.am      1 UNK        -0.5000 
      5 CA          5.0452  -13.4028  -46.0805 C.3       1 UNK         0.1400 
      6 C6          4.1903  -13.0475  -47.3222 C.3       23 UNK        -0.0398 
      7 S7          4.3289  -14.2949  -48.6430 S.3       23 UNK        -0.2404 
      8 C8          2.8074  -15.2372  -48.3364 C.3       23 UNK        -0.0205 
      9 C9          2.7555  -16.5054  -49.1683 C.ar      23 UNK        -0.0193 
     10 C10         1.9023  -16.5980  -50.2715 C.ar      23 UNK        -0.1150 
     11 C11         1.8008  -17.7932  -50.9897 C.ar      23 UNK        -0.0193 
     12 C12         2.5894  -18.8867  -50.6209 C.ar      23 UNK        -0.1150 
     13 C13         3.4486  -18.8024  -49.5206 C.ar      23 UNK        -0.0193 
     14 C14         3.5266  -17.6097  -48.7985 C.ar      23 UNK        -0.1150 
     15 C15         4.2707  -20.0067  -49.0879 C.3       23 UNK        -0.0205 
     16 S16         3.4864  -20.8889  -47.7010 S.3       23 UNK        -0.2404 
     17 C17         1.9454  -21.4455  -48.4955 C.3       23 UNK        -0.0398 
     18 CA          1.1874  -22.4969  -47.6572 C.3       11 UNK         0.1400 
     19 N           0.6136  -21.9387  -46.4279 N.am      11 UNK        -0.5000 
     20 C           0.0272  -22.6712  -45.4697 C.2       10 UNK         0.5000 
     21 O          -0.0462  -23.9003  -45.4969 O.2       10 UNK        -0.5000 
     22 CA         -0.6361  -21.9038  -44.3123 C.3       10 UNK         0.1400 
     23 CB          0.4145  -21.4112  -43.3060 C.3       10 UNK        -0.1800 
     24 N          -1.4512  -20.7794  -44.7748 N.am      10 UNK        -0.5000 
     25 C          -2.5391  -20.9000  -45.5499 C.2       9 UNK         0.5000 
     26 O          -2.9971  -21.9791  -45.9197 O.2       9 UNK        -0.5000 
     27 CA         -3.2044  -19.6022  -46.0404 C.3       9 UNK         0.1400 
     28 CB         -4.1479  -19.0297  -44.9740 C.3       9 UNK        -0.1800 
     29 N          -2.2371  -18.5832  -46.4430 N.am      9 UNK        -0.5000 
     30 C          -1.3436  -18.7302  -47.4313 C.2       8 UNK         0.5000 
     31 O          -1.2515  -19.7407  -48.1264 O.2       8 UNK        -0.5000 
     32 CA         -0.3642  -17.5672  -47.6480 C.3       8 UNK         0.1400 
     33 CB         -1.0398  -16.4109  -48.4029 C.3       8 UNK        -0.1800 
     34 N           0.1881  -17.0760  -46.3860 N.am      8 UNK        -0.5000 
     35 C           0.9823  -17.7961  -45.5806 C.2       7 UNK         0.5000 
     36 O           1.3652  -18.9379  -45.8341 O.2       7 UNK        -0.5000 
     37 CA          1.3550  -17.1497  -44.2347 C.3       7 UNK         0.1400 
     38 CB          2.4861  -16.1228  -44.4025 C.3       7 UNK        -0.1800 
     39 N           0.2029  -16.5095  -43.5989 N.am      7 UNK        -0.5000 
     40 C          -0.8620  -17.1739  -43.1255 C.2       6 UNK         0.5000 
     41 O          -0.9636  -18.3996  -43.1379 O.2       6 UNK        -0.5000 
     42 CA         -2.0287  -16.3275  -42.5840 C.3       6 UNK         0.1400 
     43 CB         -1.8160  -16.0081  -41.0969 C.3       6 UNK        -0.1800 
     44 N          -2.2264  -15.0791  -43.3210 N.am      6 UNK        -0.5000 
     45 C          -2.5370  -14.9883  -44.6229 C.2       5 UNK         0.5000 
     46 O          -2.7193  -15.9641  -45.3495 O.2       5 UNK        -0.5000 
     47 CA         -2.6196  -13.5701  -45.2194 C.3       5 UNK         0.1400 
     48 CB         -4.0755  -13.0826  -45.2464 C.3       5 UNK        -0.1800 
     49 N          -1.7973  -12.6036  -44.4849 N.am      5 UNK        -0.5000 
     50 C          -0.4584  -12.5949  -44.4970 C.2       4 UNK         0.5000 
     51 O           0.2245  -13.3578  -45.1846 O.2       4 UNK        -0.5000 
     52 CA          0.2255  -11.6209  -43.5274 C.3       4 UNK         0.1400 
     53 CB          0.8741  -12.3917  -42.3659 C.3       4 UNK        -0.1800 
     54 N           1.2477  -10.8463  -44.2229 N.am      4 UNK        -0.5000 
     55 C           1.0210   -9.6745  -44.8340 C.2       3 UNK         0.5000 
     56 O          -0.0901   -9.1419  -44.8670 O.2       3 UNK        -0.5000 
     57 CA          2.2108   -8.9785  -45.5379 C.3       3 UNK         0.1400 
     58 CB          2.1636   -7.4427  -45.3937 C.3       3 UNK        -0.1800 
     59 N           3.5299   -9.4981  -45.1577 N.am      3 UNK        -0.5000 
     60 C           4.1130   -9.4792  -43.9481 C.2       2 UNK         0.5000 
     61 O           3.6380   -8.9083  -42.9652 O.2       2 UNK        -0.5000 
     62 CA          5.4402  -10.2658  -43.8220 C.3       2 UNK         0.1400 
     63 CB          5.6842  -10.7827  -42.3889 C.3       2 UNK        -0.1800 
     64 N           5.5673  -11.3684  -44.7894 N.am      2 UNK        -0.5000 
     65 C           4.7316  -12.4100  -44.9430 C.2       1 UNK         0.5000 
     66 O           3.7171  -12.5765  -44.2670 O.2       1 UNK        -0.5000 
     67 C           0.1167  -23.1860  -48.5238 C.2       11 UNK         0.5000 
     68 O           0.3409  -24.3058  -48.9821 O.2       11 UNK        -0.5000 
     69 N          -1.0326  -22.5245  -48.7117 N.am      12 UNK        -0.5000 
     70 CA         -2.1623  -23.0395  -49.4825 C.3       12 UNK         0.1400 
     71 CB         -3.2002  -21.9272  -49.6656 C.3       12 UNK        -0.1800 
     72 C          -2.7948  -24.2954  -48.8566 C.2       12 UNK         0.5000 
     73 O          -3.1581  -25.2134  -49.5887 O.2       12 UNK        -0.5000 
     74 N          -2.8821  -24.3401  -47.5204 N.am      13 UNK        -0.5000 
     75 CA         -3.3328  -25.5070  -46.7622 C.3       13 UNK         0.1400 
     76 CB         -3.5578  -25.1176  -45.2936 C.3       13 UNK        -0.1800 
     77 C          -2.3569  -26.6928  -46.8689 C.2       13 UNK         0.5000 
     78 O          -2.8059  -27.8291  -47.0207 O.2       13 UNK        -0.5000 
     79 N          -1.0473  -26.4091  -46.8119 N.am      14 UNK        -0.5000 
     80 CA          0.0220  -27.3979  -46.9622 C.3       14 UNK         0.1400 
     81 CB          1.3637  -26.7743  -46.5478 C.3       14 UNK        -0.1800 
     82 C           0.1016  -27.9772  -48.3871 C.2       14 UNK         0.5000 
     83 O           0.2634  -29.1884  -48.5420 O.2       14 UNK        -0.5000 
     84 N          -0.0310  -27.1082  -49.3986 N.am      15 UNK        -0.5000 
     85 CA         -0.0655  -27.4762  -50.8162 C.3       15 UNK         0.1400 
     86 CB          0.1434  -26.2121  -51.6642 C.3       15 UNK        -0.1800 
     87 C          -1.3706  -28.1856  -51.2294 C.2       15 UNK         0.5000 
     88 O          -1.3508  -28.9733  -52.1765 O.2       15 UNK        -0.5000 
     89 N          -2.4600  -27.8861  -50.5078 N.am      16 UNK        -0.5000 
     90 CA         -3.8549  -28.2750  -50.7272 C.3       16 UNK         0.1400 
     91 CB         -4.0143  -29.8059  -50.8382 C.3       16 UNK        -0.1800 
     92 C          -4.5002  -27.5307  -51.9146 C.2       16 UNK         0.5000 
     93 O          -3.8114  -26.8794  -52.7040 O.2       16 UNK        -0.5000 
     94 N          -5.8349  -27.6362  -52.0003 N.am      17 UNK        -0.5000 
     95 CA         -6.7087  -26.9954  -52.9922 C.3       17 UNK         0.1400 
     96 CB         -6.4456  -27.5565  -54.4062 C.3       17 UNK        -0.1800 
     97 C          -6.6613  -25.4525  -52.9266 C.2       17 UNK         0.5000 
     98 O          -6.5821  -24.7856  -53.9606 O.2       17 UNK        -0.5000 
     99 N          -6.7124  -24.9164  -51.6985 N.am      18 UNK        -0.5000 
    100 CA        -6.7931  -23.4833  -51.4086 C.3       18 UNK         0.1400 
    101 CB        -6.6524  -23.2768  -49.8915 C.3       18 UNK        -0.1800 
    102 C         -8.1167  -22.8725  -51.9105 C.2       18 UNK         0.5000 
    103 O         -9.1515  -23.5449  -51.8826 O.2       18 UNK        -0.5000 
    104 N         -8.0668  -21.6076  -52.3348 N.am      19 UNK        -0.5000 
    105 CA        -9.2015  -20.8657  -52.8765 C.3       19 UNK         0.1400 
    106 CB        -9.4101  -21.2258  -54.3607 C.3       19 UNK        -0.1800 
    107 C         -8.9190  -19.3758  -52.6626 C.2       19 UNK         0.5000 
    108 O         -8.2994  -18.7467  -53.5210 O.2       19 UNK        -0.5000 
    109 N         -9.3179  -18.8673  -51.4858 N.am      20 UNK        -0.5000 
    110 CA        -8.9518  -17.5580  -50.9269 C.3       20 UNK         0.1400 
    111 CB        -9.5171  -16.3981  -51.7742 C.3       20 UNK        -0.1800 
    112 C         -7.4261  -17.4865  -50.7224 C.2       20 UNK         0.5000 
    113 O         -6.7394  -16.6823  -51.3575 O.2       20 UNK        -0.5000 
    114 N         -6.9281  -18.4187  -49.8947 N.am      21 UNK        -0.5000 
    115 CA        -5.5190  -18.7817  -49.7336 C.3       21 UNK         0.1400 
    116 CB        -4.7187  -17.6416  -49.0631 C.3       21 UNK        -0.1800 
    117 C         -4.9479  -19.2730  -51.0799 C.2       21 UNK         0.5000 
    118 O         -5.5029  -20.2169  -51.6495 O.2       21 UNK        -0.5000 
    119 N         -3.8829  -18.6271  -51.5672 N.am      22 UNK        -0.5000 
    120 CA        -3.2476  -18.9019  -52.8661 C.3       22 UNK         0.1400 
    121 C         -4.1084  -18.5095  -54.1058 C.2       22 UNK         0.5000 
    122 N         -5.2049  -17.7751  -53.9584 N.am      22 UNK        -0.7600 
    123 O         -3.7728  -18.8832  -55.2263 O.2       22 UNK        -0.5000 
    124 C124       -1.8385  -18.2591  -52.9679 C.3       23 UNK        -0.0398 
    125 S125       -0.7261  -18.7122  -51.5951 S.3       23 UNK        -0.2404 
    126 C126        0.8150  -17.9113  -52.1406 C.3       23 UNK        -0.0205 
    127 H127        9.4858  -13.4437  -45.4327 H         1 UNK         0.0600 
    128 H128        8.9222  -13.5282  -47.1041 H         1 UNK         0.0600 
    129 H129        9.2288  -15.0140  -46.2009 H         1 UNK         0.0600 
    130 H130        6.7434  -13.1024  -47.3023 H         1 UNK         0.3000 
    131 H131        4.7359  -14.3896  -45.7290 H         1 UNK         0.0600 
    132 H132        3.1376  -12.9373  -47.0515 H         1 UNK         0.0800 
    133 H133        4.4953  -12.0844  -47.7351 H         1 UNK         0.0800 
    134 H134        2.7514  -15.5049  -47.2816 H         1 UNK         0.0800 
    135 H135        1.9428  -14.6042  -48.5412 H         1 UNK         0.0800 
    136 H136        1.2901  -15.7518  -50.5497 H         1 UNK         0.1150 
    137 H137        2.5086  -19.8128  -51.1724 H         1 UNK         0.1150 
    138 H138        4.1751  -17.5465  -47.9359 H         1 UNK         0.1150 
    139 H139        4.4184  -20.6930  -49.9231 H         1 UNK         0.0800 
    140 H140        5.2656  -19.6794  -48.7825 H         1 UNK         0.0800 
    141 H141        2.2102  -21.8528  -49.4734 H         1 UNK         0.0800 
    142 H142        1.3100  -20.5779  -48.6825 H         1 UNK         0.0800 
    143 H143        1.8992  -23.2708  -47.3617 H         1 UNK         0.0600 
    144 H144        0.6608  -20.9311  -46.3217 H         1 UNK         0.3000 
    145 H145       -1.2984  -22.5998  -43.7932 H         1 UNK         0.0600 
    146 H146       -0.0581  -20.9588  -42.4342 H         1 UNK         0.0600 
    147 H147        1.0314  -22.2369  -42.9493 H         1 UNK         0.0600 
    148 H148        1.0806  -20.6694  -43.7472 H         1 UNK         0.0600 
    149 H149       -1.1660  -19.8549  -44.4669 H         1 UNK         0.3000 
    150 H150       -3.8016  -19.8501  -46.9199 H         1 UNK         0.0600 
    151 H151       -4.9147  -19.7560  -44.7021 H         1 UNK         0.0600 
    152 H152       -4.6577  -18.1366  -45.3360 H         1 UNK         0.0600 
    153 H153       -3.6104  -18.7642  -44.0641 H         1 UNK         0.0600 
    154 H154       -2.2766  -17.6954  -45.9484 H         1 UNK         0.3000 
    155 H155        0.4605  -17.9456  -48.2534 H         1 UNK         0.0600 
    156 H156       -0.3517  -15.5805  -48.5555 H         1 UNK         0.0600 
    157 H157       -1.9097  -16.0269  -47.8703 H         1 UNK         0.0600 
    158 H158       -1.3783  -16.7361  -49.3866 H         1 UNK         0.0600 
    159 H159       -0.1145  -16.1630  -46.0792 H         1 UNK         0.3000 
    160 H160        1.7122  -17.9428  -43.5743 H         1 UNK         0.0600 
    161 H161        2.8307  -15.7554  -43.4357 H         1 UNK         0.0600 
    162 H162        2.1678  -15.2597  -44.9874 H         1 UNK         0.0600 
    163 H163        3.3461  -16.5657  -44.9067 H         1 UNK         0.0600 
    164 H164        0.1946  -15.5002  -43.5818 H         1 UNK         0.3000 
    165 H165       -2.9414  -16.9182  -42.6793 H         1 UNK         0.0600 
    166 H166       -2.6734  -15.4793  -40.6801 H         1 UNK         0.0600 
    167 H167       -1.6867  -16.9226  -40.5164 H         1 UNK         0.0600 
    168 H168       -0.9305  -15.3910  -40.9390 H         1 UNK         0.0600 
    169 H169       -2.1076  -14.2235  -42.8001 H         1 UNK         0.3000 
    170 H170       -2.2566  -13.6233  -46.2482 H         1 UNK         0.0600 
    171 H171       -4.7070  -13.7726  -45.8079 H         1 UNK         0.0600 
    172 H172       -4.4923  -12.9993  -44.2419 H         1 UNK         0.0600 
    173 H173       -4.1558  -12.1070  -45.7263 H         1 UNK         0.0600 
    174 H174       -2.2906  -11.9381  -43.9067 H         1 UNK         0.3000 
    175 H175       -0.5204  -10.9454  -43.1028 H         1 UNK         0.0600 
    176 H176        1.6001  -13.1249  -42.7194 H         1 UNK         0.0600 
    177 H177        1.3896  -11.7152  -41.6839 H         1 UNK         0.0600 
    178 H178        0.1231  -12.9292  -41.7859 H         1 UNK         0.0600 
    179 H179        2.1674  -11.2724  -44.2734 H         1 UNK         0.3000 
    180 H180        2.0972   -9.2080  -46.5982 H         1 UNK         0.0600 
    181 H181        3.0045   -6.9724  -45.9033 H         1 UNK         0.0600 
    182 H182        2.1873   -7.1320  -44.3490 H         1 UNK         0.0600 
    183 H183        1.2525   -7.0351  -45.8332 H         1 UNK         0.0600 
    184 H184        4.0223   -9.9892  -45.8892 H         1 UNK         0.3000 
    185 H185        6.2346   -9.5564  -44.0577 H         1 UNK         0.0600 
    186 H186        6.6238  -11.3313  -42.3228 H         1 UNK         0.0600 
    187 H187        5.7411   -9.9580  -41.6776 H         1 UNK         0.0600 
    188 H188        4.8849  -11.4463  -42.0572 H         1 UNK         0.0600 
    189 H189        6.3698  -11.3212  -45.4018 H         1 UNK         0.3000 
    190 H190       -1.1295  -21.5825  -48.3375 H         1 UNK         0.3000 
    191 H191       -1.7876  -23.3152  -50.4704 H         1 UNK         0.0600 
    192 H192       -3.9941  -22.2467  -50.3397 H         1 UNK         0.0600 
    193 H193       -2.7439  -21.0393  -50.1034 H         1 UNK         0.0600 
    194 H194       -3.6576  -21.6391  -48.7189 H         1 UNK         0.0600 
    195 H195       -2.6349  -23.5146  -46.9808 H         1 UNK         0.3000 
    196 H196       -4.2911  -25.8271  -47.1768 H         1 UNK         0.0600 
    197 H197       -2.6444  -24.7411  -44.8320 H         1 UNK         0.0600 
    198 H198       -4.3203  -24.3436  -45.2048 H         1 UNK         0.0600 
    199 H199       -3.8945  -25.9741  -44.7083 H         1 UNK         0.0600 
    200 H200       -0.7599  -25.4514  -46.6373 H         1 UNK         0.3000 
    201 H201       -0.1883  -28.2246  -46.2803 H         1 UNK         0.0600 
    202 H202        1.6212  -25.9176  -47.1709 H         1 UNK         0.0600 
    203 H203        2.1744  -27.4988  -46.6332 H         1 UNK         0.0600 
    204 H204        1.3369  -26.4363  -45.5118 H         1 UNK         0.0600 
    205 H205       -0.0876  -26.1146  -49.1857 H         1 UNK         0.3000 
    206 H206        0.7623  -28.1606  -51.0131 H         1 UNK         0.0600 
    207 H207        1.0926  -25.7304  -51.4287 H         1 UNK         0.0600 
    208 H208        0.1535  -26.4515  -52.7282 H         1 UNK         0.0600 
    209 H209       -0.6523  -25.4843  -51.4985 H         1 UNK         0.0600 
    210 H210       -2.3515  -27.1492  -49.8213 H         1 UNK         0.3000 
    211 H211       -4.3824  -27.9499  -49.8291 H         1 UNK         0.0600 
    212 H212       -5.0635  -30.0962  -50.7811 H         1 UNK         0.0600 
    213 H213       -3.4948  -30.3162  -50.0269 H         1 UNK         0.0600 
    214 H214       -3.6262  -30.1902  -51.7817 H         1 UNK         0.0600 
    215 H215       -6.3127  -28.1898  -51.3028 H         1 UNK         0.3000 
    216 H216       -7.7287  -27.2727  -52.7219 H         1 UNK         0.0600 
    217 H217       -7.1829  -27.1820  -55.1173 H         1 UNK         0.0600 
    218 H218       -5.4610  -27.2751  -54.7803 H         1 UNK         0.0600 
    219 H219       -6.5100  -28.6445  -54.4168 H         1 UNK         0.0600 
    220 H220       -6.7862  -25.5380  -50.9076 H         1 UNK         0.3000 
    221 H221       -5.9589  -22.9899  -51.9121 H         1 UNK         0.0600 
    222 H222       -5.7420  -23.7378  -49.5094 H         1 UNK         0.0600 
    223 H223       -7.4949  -23.7056  -49.3473 H         1 UNK         0.0600 
    224 H224       -6.6082  -22.2150  -49.6460 H         1 UNK         0.0600 
    225 H225       -7.1895  -21.0943  -52.2760 H         1 UNK         0.3000 
    226 H226      -10.1100  -21.1225  -52.3271 H         1 UNK         0.0600 
    227 H227       -8.5093  -21.0482  -54.9495 H         1 UNK         0.0600 
    228 H228       -9.6824  -22.2747  -54.4785 H         1 UNK         0.0600 
    229 H229      -10.2130  -20.6306  -54.7970 H         1 UNK         0.0600 
    230 H230       -9.8161  -19.4796  -50.8547 H         1 UNK         0.3000 
    231 H231       -9.4089  -17.4943  -49.9382 H         1 UNK         0.0600 
    232 H232       -9.0734  -16.3573  -52.7691 H         1 UNK         0.0600 
    233 H233       -9.3206  -15.4391  -51.2938 H         1 UNK         0.0600 
    234 H234      -10.5968  -16.4877  -51.8927 H         1 UNK         0.0600 
    235 H235       -7.5836  -19.0495  -49.4564 H         1 UNK         0.3000 
    236 H236       -5.4907  -19.6415  -49.0627 H         1 UNK         0.0600 
    237 H237       -3.6826  -17.9360  -48.9049 H         1 UNK         0.0600 
    238 H238       -4.7144  -16.7265  -49.6555 H         1 UNK         0.0600 
    239 H239       -5.1328  -17.3985  -48.0845 H         1 UNK         0.0600 
    240 H240       -3.4956  -17.8588  -51.0410 H         1 UNK         0.3000 
    241 H241       -3.1153  -19.9838  -52.9281 H         1 UNK         0.0600 
    242 H242       -5.7661  -17.5572  -54.7660 H         1 UNK         0.3800 
    243 H243       -5.5259  -17.4873  -53.0431 H         1 UNK         0.3800 
    244 H244       -1.9220  -17.1712  -52.9946 H         1 UNK         0.0800 
    245 H245       -1.3555  -18.5539  -53.9014 H         1 UNK         0.0800 
    246 H246        1.2561  -18.4871  -52.9556 H         1 UNK         0.0800 
    247 H247        0.5925  -16.9222  -52.5440 H         1 UNK         0.0800 
@<TRIPOS>BOND
     1    1    2 1    
     2    1  127 1    
     3    1  128 1    
     4    1  129 1    
     5    2    3 2    
     6    2    4 am   BACKBONE|DICT|INTERRES
     7    4    5 1    
     8    4  130 1    
     9    5    6 1    
    10    5   65 1    
    11    5  131 1    
    12    6    7 1    
    13    6  132 1    
    14    6  133 1    
    15    7    8 1    
    16    8    9 1    
    17    8  134 1    
    18    8  135 1    
    19    9   10 ar   
    20    9   14 ar   
    21   10   11 ar   
    22   10  136 1    
    23   11   12 ar   
    24   11  126 1    
    25   12   13 ar   
    26   12  137 1    
    27   13   14 ar   
    28   13   15 1    
    29   14  138 1    
    30   15   16 1    
    31   15  139 1    
    32   15  140 1    
    33   16   17 1    
    34   17   18 1    
    35   17  141 1    
    36   17  142 1    
    37   18   19 1    
    38   18   67 1    
    39   18  143 1    
    40   19   20 am   BACKBONE|DICT|INTERRES
    41   19  144 1    
    42   20   21 2    
    43   20   22 1    
    44   22   23 1    
    45   22   24 1    
    46   22  145 1    
    47   23  146 1    
    48   23  147 1    
    49   23  148 1    
    50   24   25 am   BACKBONE|DICT|INTERRES
    51   24  149 1    
    52   25   26 2    
    53   25   27 1    
    54   27   28 1    
    55   27   29 1    
    56   27  150 1    
    57   28  151 1    
    58   28  152 1    
    59   28  153 1    
    60   29   30 am   BACKBONE|DICT|INTERRES
    61   29  154 1    
    62   30   31 2    
    63   30   32 1    
    64   32   33 1    
    65   32   34 1    
    66   32  155 1    
    67   33  156 1    
    68   33  157 1    
    69   33  158 1    
    70   34   35 am   BACKBONE|DICT|INTERRES
    71   34  159 1    
    72   35   36 2    
    73   35   37 1    
    74   37   38 1    
    75   37   39 1    
    76   37  160 1    
    77   38  161 1    
    78   38  162 1    
    79   38  163 1    
    80   39   40 am   BACKBONE|DICT|INTERRES
    81   39  164 1    
    82   40   41 2    
    83   40   42 1    
    84   42   43 1    
    85   42   44 1    
    86   42  165 1    
    87   43  166 1    
    88   43  167 1    
    89   43  168 1    
    90   44   45 am   BACKBONE|DICT|INTERRES
    91   44  169 1    
    92   45   46 2    
    93   45   47 1    
    94   47   48 1    
    95   47   49 1    
    96   47  170 1    
    97   48  171 1    
    98   48  172 1    
    99   48  173 1    
   100   49   50 am   BACKBONE|DICT|INTERRES
   101   49  174 1    
   102   50   51 2    
   103   50   52 1    
   104   52   53 1    
   105   52   54 1    
   106   52  175 1    
   107   53  176 1    
   108   53  177 1    
   109   53  178 1    
   110   54   55 am   BACKBONE|DICT|INTERRES
   111   54  179 1    
   112   55   56 2    
   113   55   57 1    
   114   57   58 1    
   115   57   59 1    
   116   57  180 1    
   117   58  181 1    
   118   58  182 1    
   119   58  183 1    
   120   59   60 am   BACKBONE|DICT|INTERRES
   121   59  184 1    
   122   60   61 2    
   123   60   62 1    
   124   62   63 1    
   125   62   64 1    
   126   62  185 1    
   127   63  186 1    
   128   63  187 1    
   129   63  188 1    
   130   64   65 am   BACKBONE|DICT|INTERRES
   131   64  189 1    
   132   65   66 2    
   133   67   68 2    
   134   67   69 am   BACKBONE|DICT|INTERRES
   135   69   70 1    
   136   69  190 1    
   137   70   71 1    
   138   70   72 1    
   139   70  191 1    
   140   71  192 1    
   141   71  193 1    
   142   71  194 1    
   143   72   73 2    
   144   72   74 am   BACKBONE|DICT|INTERRES
   145   74   75 1    
   146   74  195 1    
   147   75   76 1    
   148   75   77 1    
   149   75  196 1    
   150   76  197 1    
   151   76  198 1    
   152   76  199 1    
   153   77   78 2    
   154   77   79 am   BACKBONE|DICT|INTERRES
   155   79   80 1    
   156   79  200 1    
   157   80   81 1    
   158   80   82 1    
   159   80  201 1    
   160   81  202 1    
   161   81  203 1    
   162   81  204 1    
   163   82   83 2    
   164   82   84 am   BACKBONE|DICT|INTERRES
   165   84   85 1    
   166   84  205 1    
   167   85   86 1    
   168   85   87 1    
   169   85  206 1    
   170   86  207 1    
   171   86  208 1    
   172   86  209 1    
   173   87   88 2    
   174   87   89 am   BACKBONE|DICT|INTERRES
   175   89   90 1    
   176   89  210 1    
   177   90   91 1    
   178   90   92 1    
   179   90  211 1    
   180   91  212 1    
   181   91  213 1    
   182   91  214 1    
   183   92   93 2    
   184   92   94 am   BACKBONE|DICT|INTERRES
   185   94   95 1    
   186   94  215 1    
   187   95   96 1    
   188   95   97 1    
   189   95  216 1    
   190   96  217 1    
   191   96  218 1    
   192   96  219 1    
   193   97   98 2    
   194   97   99 am   BACKBONE|DICT|INTERRES
   195   99  100 1    
   196   99  220 1    
   197  100  101 1    
   198  100  102 1    
   199  100  221 1    
   200  101  222 1    
   201  101  223 1    
   202  101  224 1    
   203  102  103 2    
   204  102  104 am   BACKBONE|DICT|INTERRES
   205  104  105 1    
   206  104  225 1    
   207  105  106 1    
   208  105  107 1    
   209  105  226 1    
   210  106  227 1    
   211  106  228 1    
   212  106  229 1    
   213  107  108 2    
   214  107  109 am   BACKBONE|DICT|INTERRES
   215  109  110 1    
   216  109  230 1    
   217  110  111 1    
   218  110  112 1    
   219  110  231 1    
   220  111  232 1    
   221  111  233 1    
   222  111  234 1    
   223  112  113 2    
   224  112  114 am   BACKBONE|DICT|INTERRES
   225  114  115 1    
   226  114  235 1    
   227  115  116 1    
   228  115  117 1    
   229  115  236 1    
   230  116  237 1    
   231  116  238 1    
   232  116  239 1    
   233  117  118 2    
   234  117  119 am   BACKBONE|DICT|INTERRES
   235  119  120 1    
   236  119  240 1    
   237  120  121 1    
   238  120  124 1    
   239  120  241 1    
   240  121  122 am   BACKBONE|DICT|INTERRES
   241  121  123 2    
   242  122  242 1    
   243  122  243 1    
   244  124  125 1    
   245  124  244 1    
   246  124  245 1    
   247  125  126 1    
   248  126  246 1    
   249  126  247 1    
@<TRIPOS>SUBSTRUCTURE
     1 UNK         1 GROUP             0       ****    0 ROOT    
