@<TRIPOS>MOLECULE
3R540
247   249    1
SMALL
USER_CHARGES


@<TRIPOS>ATOM
      1 CA          1.0389  -14.6524  -49.0676 C.3       0 UNK        -0.1800 
      2 C           2.5467  -14.4596  -49.0112 C.2       0 UNK         0.5000 
      3 O           3.1625  -14.7760  -47.9949 O.2       0 UNK        -0.5000 
      4 N           3.1360  -13.9029  -50.0810 N.am      1 UNK        -0.5000 
      5 CA          4.5748  -13.6268  -50.2512 C.3       1 UNK         0.1400 
      6 C6          5.4085  -14.9050  -50.5426 C.3       23 UNK        -0.0398 
      7 S7          5.0376  -15.5825  -52.1973 S.3       23 UNK        -0.2404 
      8 C8          4.7973  -17.3552  -51.8576 C.3       23 UNK        -0.0205 
      9 C9          3.4861  -17.6358  -51.1399 C.ar      23 UNK        -0.0193 
     10 C10         2.2682  -17.3774  -51.7758 C.ar      23 UNK        -0.1150 
     11 C11         1.0541  -17.6243  -51.1287 C.ar      23 UNK        -0.0193 
     12 C12         1.0751  -18.1642  -49.8364 C.ar      23 UNK        -0.1150 
     13 C13         2.2855  -18.4312  -49.1895 C.ar      23 UNK        -0.0193 
     14 C14         3.4883  -18.1644  -49.8469 C.ar      23 UNK        -0.1150 
     15 C15         2.2974  -18.9583  -47.7629 C.3       23 UNK        -0.0205 
     16 S16         2.2715  -20.7790  -47.6772 S.3       23 UNK        -0.2404 
     17 C17         0.5574  -21.1703  -48.1638 C.3       23 UNK        -0.0398 
     18 CA         -0.0389  -22.3558  -47.3683 C.3       11 UNK         0.1400 
     19 N          -0.2608  -22.0419  -45.9542 N.am      11 UNK        -0.5000 
     20 C          -0.5920  -22.9400  -45.0164 C.2       10 UNK         0.5000 
     21 O          -0.6883  -24.1473  -45.2348 O.2       10 UNK        -0.5000 
     22 CA         -0.9402  -22.3920  -43.6206 C.3       10 UNK         0.1400 
     23 CB          0.3259  -22.0796  -42.8087 C.3       10 UNK        -0.1800 
     24 N          -1.7963  -21.2061  -43.6962 N.am      10 UNK        -0.5000 
     25 C          -3.0681  -21.2283  -44.1198 C.2       9 UNK         0.5000 
     26 O          -3.6564  -22.2617  -44.4393 O.2       9 UNK        -0.5000 
     27 CA         -3.7960  -19.8750  -44.2415 C.3       9 UNK         0.1400 
     28 CB         -4.3739  -19.4486  -42.8843 C.3       9 UNK        -0.1800 
     29 N          -2.9424  -18.8065  -44.7615 N.am      9 UNK        -0.5000 
     30 C          -2.4058  -18.7851  -45.9898 C.2       8 UNK         0.5000 
     31 O          -2.6192  -19.6416  -46.8449 O.2       8 UNK        -0.5000 
     32 CA         -1.3985  -17.6602  -46.2898 C.3       8 UNK         0.1400 
     33 CB         -2.1187  -16.3719  -46.7087 C.3       8 UNK        -0.1800 
     34 N          -0.4915  -17.3968  -45.1676 N.am      8 UNK        -0.5000 
     35 C           0.3211  -18.3170  -44.6245 C.2       7 UNK         0.5000 
     36 O           0.4032  -19.4738  -45.0292 O.2       7 UNK        -0.5000 
     37 CA          1.1553  -17.8985  -43.4082 C.3       7 UNK         0.1400 
     38 CB          2.4141  -17.1518  -43.8538 C.3       7 UNK        -0.1800 
     39 N           0.3804  -17.0692  -42.4916 N.am      7 UNK        -0.5000 
     40 C          -0.5628  -17.5515  -41.6712 C.2       6 UNK         0.5000 
     41 O          -0.8252  -18.7495  -41.5579 O.2       6 UNK        -0.5000 
     42 CA         -1.3781  -16.5137  -40.8787 C.3       6 UNK         0.1400 
     43 CB         -0.6257  -16.0832  -39.6107 C.3       6 UNK        -0.1800 
     44 N          -1.7048  -15.3293  -41.6749 N.am      6 UNK        -0.5000 
     45 C          -2.4861  -15.3422  -42.7637 C.2       5 UNK         0.5000 
     46 O          -3.0402  -16.3526  -43.1957 O.2       5 UNK        -0.5000 
     47 CA         -2.6535  -14.0105  -43.5164 C.3       5 UNK         0.1400 
     48 CB         -3.8592  -13.2348  -42.9654 C.3       5 UNK        -0.1800 
     49 N          -1.4722  -13.1435  -43.4917 N.am      5 UNK        -0.5000 
     50 C          -0.2561  -13.4530  -43.9646 C.2       4 UNK         0.5000 
     51 O           0.0408  -14.5654  -44.4079 O.2       4 UNK        -0.5000 
     52 CA          0.7623  -12.2941  -43.9692 C.3       4 UNK         0.1400 
     53 CB          0.8957  -11.6215  -42.5844 C.3       4 UNK        -0.1800 
     54 N           2.0769  -12.6509  -44.5153 N.am      4 UNK        -0.5000 
     55 C           3.0409  -13.4013  -43.9597 C.2       3 UNK         0.5000 
     56 O           2.9347  -13.9582  -42.8662 O.2       3 UNK        -0.5000 
     57 CA          4.3712  -13.5184  -44.7391 C.3       3 UNK         0.1400 
     58 CB          4.7542  -14.9793  -45.0211 C.3       3 UNK        -0.1800 
     59 N           4.3617  -12.7795  -46.0062 N.am      3 UNK        -0.5000 
     60 C           4.7328  -11.4975  -46.1429 C.2       2 UNK         0.5000 
     61 O           5.1229  -10.8092  -45.1985 O.2       2 UNK        -0.5000 
     62 CA          4.6151  -10.8518  -47.5430 C.3       2 UNK         0.1400 
     63 CB          5.8173   -9.9411  -47.8706 C.3       2 UNK        -0.1800 
     64 N           4.3545  -11.7951  -48.6379 N.am      2 UNK        -0.5000 
     65 C           5.1611  -12.7602  -49.1080 C.2       1 UNK         0.5000 
     66 O           6.2915  -12.9810  -48.6705 O.2       1 UNK        -0.5000 
     67 C          -1.3206  -22.8791  -48.0514 C.2       11 UNK         0.5000 
     68 O          -1.2202  -23.7357  -48.9294 O.2       11 UNK        -0.5000 
     69 N          -2.4983  -22.3789  -47.6515 N.am      12 UNK        -0.5000 
     70 CA         -3.8006  -22.8496  -48.1267 C.3       12 UNK         0.1400 
     71 CB         -4.9076  -21.8780  -47.6918 C.3       12 UNK        -0.1800 
     72 C          -4.1015  -24.2753  -47.6404 C.2       12 UNK         0.5000 
     73 O          -4.5006  -25.1167  -48.4448 O.2       12 UNK        -0.5000 
     74 N          -3.8458  -24.5379  -46.3501 N.am      13 UNK        -0.5000 
     75 CA         -3.9672  -25.8579  -45.7245 C.3       13 UNK         0.1400 
     76 CB         -3.7657  -25.7248  -44.2076 C.3       13 UNK        -0.1800 
     77 C          -2.9964  -26.8979  -46.3189 C.2       13 UNK         0.5000 
     78 O          -3.3691  -28.0612  -46.4729 O.2       13 UNK        -0.5000 
     79 N          -1.7879  -26.4492  -46.6842 N.am      14 UNK        -0.5000 
     80 CA         -0.7740  -27.2319  -47.3952 C.3       14 UNK         0.1400 
     81 CB          0.5879  -26.5402  -47.2234 C.3       14 UNK        -0.1800 
     82 C          -1.0830  -27.4359  -48.8949 C.2       14 UNK         0.5000 
     83 O          -0.3772  -28.2047  -49.5484 O.2       14 UNK        -0.5000 
     84 N          -2.1019  -26.7349  -49.4170 N.am      15 UNK        -0.5000 
     85 CA         -2.5505  -26.6941  -50.8136 C.3       15 UNK         0.1400 
     86 CB         -3.0275  -28.0809  -51.2916 C.3       15 UNK        -0.1800 
     87 C          -1.5365  -26.0414  -51.7788 C.2       15 UNK         0.5000 
     88 O          -1.6344  -26.2353  -52.9908 O.2       15 UNK        -0.5000 
     89 N          -0.6096  -25.2421  -51.2360 N.am      16 UNK        -0.5000 
     90 CA          0.3593  -24.4432  -51.9848 C.3       16 UNK         0.1400 
     91 CB          1.5750  -24.1544  -51.0898 C.3       16 UNK        -0.1800 
     92 C          -0.2726  -23.1339  -52.4881 C.2       16 UNK         0.5000 
     93 O          -0.0193  -22.7314  -53.6234 O.2       16 UNK        -0.5000 
     94 N          -1.1111  -22.5175  -51.6429 N.am      17 UNK        -0.5000 
     95 CA         -1.8957  -21.3200  -51.9648 C.3       17 UNK         0.1400 
     96 CB         -1.9391  -20.4088  -50.7323 C.3       17 UNK        -0.1800 
     97 C          -3.3254  -21.6575  -52.4293 C.2       17 UNK         0.5000 
     98 O          -4.0842  -20.7378  -52.7460 O.2       17 UNK        -0.5000 
     99 N          -3.6577  -22.9589  -52.4396 N.am      18 UNK        -0.5000 
    100 CA        -4.9482  -23.5737  -52.7667 C.3       18 UNK         0.1400 
    101 CB        -5.3271  -23.2719  -54.2327 C.3       18 UNK        -0.1800 
    102 C         -6.0769  -23.1828  -51.7897 C.2       18 UNK         0.5000 
    103 O         -5.8651  -22.4068  -50.8561 O.2       18 UNK        -0.5000 
    104 N         -7.2853  -23.7058  -52.0401 N.am      19 UNK        -0.5000 
    105 CA        -8.5098  -23.3697  -51.3012 C.3       19 UNK         0.1400 
    106 CB        -9.6418  -24.3014  -51.7602 C.3       19 UNK        -0.1800 
    107 C         -8.9305  -21.8909  -51.4489 C.2       19 UNK         0.5000 
    108 O         -9.6651  -21.3773  -50.6050 O.2       19 UNK        -0.5000 
    109 N         -8.4321  -21.2316  -52.5042 N.am      20 UNK        -0.5000 
    110 CA        -8.5535  -19.7969  -52.7512 C.3       20 UNK         0.1400 
    111 CB        -8.1415  -19.5175  -54.2054 C.3       20 UNK        -0.1800 
    112 C         -7.7170  -18.9288  -51.7881 C.2       20 UNK         0.5000 
    113 O         -7.9709  -17.7261  -51.7156 O.2       20 UNK        -0.5000 
    114 N         -6.7306  -19.5278  -51.0979 N.am      21 UNK        -0.5000 
    115 CA        -5.8141  -18.9096  -50.1325 C.3       21 UNK         0.1400 
    116 CB        -6.5479  -18.6194  -48.8081 C.3       21 UNK        -0.1800 
    117 C         -5.0930  -17.6762  -50.7109 C.2       21 UNK         0.5000 
    118 O         -5.2179  -16.5703  -50.1822 O.2       21 UNK        -0.5000 
    119 N         -4.3979  -17.9065  -51.8303 N.am      22 UNK        -0.5000 
    120 CA        -3.7126  -16.9154  -52.6791 C.3       22 UNK         0.1400 
    121 C         -4.6578  -16.1226  -53.6318 C.2       22 UNK         0.5000 
    122 N         -5.9760  -16.2681  -53.5606 N.am      22 UNK        -0.7600 
    123 O         -4.1812  -15.3750  -54.4814 O.2       22 UNK        -0.5000 
    124 C124       -2.7436  -15.9487  -51.9317 C.3       23 UNK        -0.0398 
    125 S125       -1.5920  -16.7329  -50.7514 S.3       23 UNK        -0.2404 
    126 C126       -0.2526  -17.3001  -51.8535 C.3       23 UNK        -0.0205 
    127 H127        0.7642  -15.6117  -48.6298 H         1 UNK         0.0600 
    128 H128        0.6693  -14.6296  -50.0929 H         1 UNK         0.0600 
    129 H129        0.5380  -13.8678  -48.5011 H         1 UNK         0.0600 
    130 H130        2.5631  -13.6660  -50.8786 H         1 UNK         0.3000 
    131 H131        4.6484  -12.9871  -51.1321 H         1 UNK         0.0600 
    132 H132        5.2405  -15.6572  -49.7706 H         1 UNK         0.0800 
    133 H133        6.4785  -14.6920  -50.5338 H         1 UNK         0.0800 
    134 H134        4.8003  -17.8965  -52.8046 H         1 UNK         0.0800 
    135 H135        5.6479  -17.7326  -51.2879 H         1 UNK         0.0800 
    136 H136        2.2710  -16.9680  -52.7763 H         1 UNK         0.1150 
    137 H137        0.1471  -18.3562  -49.3206 H         1 UNK         0.1150 
    138 H138        4.4258  -18.3627  -49.3468 H         1 UNK         0.1150 
    139 H139        3.1881  -18.5984  -47.2457 H         1 UNK         0.0800 
    140 H140        1.4539  -18.5449  -47.2171 H         1 UNK         0.0800 
    141 H141        0.5861  -21.3950  -49.2309 H         1 UNK         0.0800 
    142 H142       -0.0748  -20.2901  -48.0434 H         1 UNK         0.0800 
    143 H143        0.6839  -23.1731  -47.4048 H         1 UNK         0.0600 
    144 H144       -0.1408  -21.0689  -45.6764 H         1 UNK         0.3000 
    145 H145       -1.4925  -23.1693  -43.0883 H         1 UNK         0.0600 
    146 H146        0.0754  -21.7036  -41.8166 H         1 UNK         0.0600 
    147 H147        0.9543  -21.3366  -43.2984 H         1 UNK         0.0600 
    148 H148        0.9299  -22.9777  -42.6744 H         1 UNK         0.0600 
    149 H149       -1.3706  -20.3185  -43.4658 H         1 UNK         0.3000 
    150 H150       -4.6259  -20.0066  -44.9385 H         1 UNK         0.0600 
    151 H151       -5.0259  -20.2216  -42.4755 H         1 UNK         0.0600 
    152 H152       -4.9666  -18.5384  -42.9777 H         1 UNK         0.0600 
    153 H153       -3.5865  -19.2598  -42.1534 H         1 UNK         0.0600 
    154 H154       -2.7573  -18.0271  -44.1361 H         1 UNK         0.3000 
    155 H155       -0.7884  -17.9838  -47.1333 H         1 UNK         0.0600 
    156 H156       -2.6740  -16.5256  -47.6351 H         1 UNK         0.0600 
    157 H157       -1.4135  -15.5588  -46.8827 H         1 UNK         0.0600 
    158 H158       -2.8335  -16.0490  -45.9536 H         1 UNK         0.0600 
    159 H159       -0.4638  -16.4482  -44.8062 H         1 UNK         0.3000 
    160 H160        1.4690  -18.8034  -42.8832 H         1 UNK         0.0600 
    161 H161        2.1593  -16.2504  -44.4101 H         1 UNK         0.0600 
    162 H162        3.0307  -17.7756  -44.5022 H         1 UNK         0.0600 
    163 H163        3.0244  -16.8616  -42.9987 H         1 UNK         0.0600 
    164 H164        0.5005  -16.0687  -42.5733 H         1 UNK         0.3000 
    165 H165       -2.3152  -16.9871  -40.5776 H         1 UNK         0.0600 
    166 H166       -1.2296  -15.4085  -39.0037 H         1 UNK         0.0600 
    167 H167       -0.3817  -16.9466  -38.9902 H         1 UNK         0.0600 
    168 H168        0.3096  -15.5751  -39.8490 H         1 UNK         0.0600 
    169 H169       -1.2850  -14.4556  -41.3938 H         1 UNK         0.3000 
    170 H170       -2.8573  -14.2459  -44.5613 H         1 UNK         0.0600 
    171 H171       -3.7022  -12.9279  -41.9306 H         1 UNK         0.0600 
    172 H172       -4.0570  -12.3398  -43.5556 H         1 UNK         0.0600 
    173 H173       -4.7628  -13.8457  -42.9932 H         1 UNK         0.0600 
    174 H174       -1.6257  -12.2067  -43.1482 H         1 UNK         0.3000 
    175 H175        0.3625  -11.5475  -44.6567 H         1 UNK         0.0600 
    176 H176        1.1484  -12.3402  -41.8043 H         1 UNK         0.0600 
    177 H177        1.6685  -10.8526  -42.5929 H         1 UNK         0.0600 
    178 H178       -0.0325  -11.1334  -42.2865 H         1 UNK         0.0600 
    179 H179        2.2720  -12.2846  -45.4348 H         1 UNK         0.3000 
    180 H180        5.1462  -13.1058  -44.0900 H         1 UNK         0.0600 
    181 H181        5.7110  -15.0408  -45.5398 H         1 UNK         0.0600 
    182 H182        4.0104  -15.4810  -45.6386 H         1 UNK         0.0600 
    183 H183        4.8540  -15.5439  -44.0939 H         1 UNK         0.0600 
    184 H184        4.0485  -13.2991  -46.8200 H         1 UNK         0.3000 
    185 H185        3.7328  -10.2123  -47.4935 H         1 UNK         0.0600 
    186 H186        5.7101   -9.4840  -48.8543 H         1 UNK         0.0600 
    187 H187        5.9032   -9.1298  -47.1468 H         1 UNK         0.0600 
    188 H188        6.7594  -10.4894  -47.8552 H         1 UNK         0.0600 
    189 H189        3.4399  -11.7190  -49.0613 H         1 UNK         0.3000 
    190 H190       -2.5064  -21.5955  -47.0057 H         1 UNK         0.3000 
    191 H191       -3.7739  -22.8658  -49.2178 H         1 UNK         0.0600 
    192 H192       -4.6867  -20.8621  -48.0126 H         1 UNK         0.0600 
    193 H193       -5.0398  -21.8626  -46.6113 H         1 UNK         0.0600 
    194 H194       -5.8650  -22.1581  -48.1322 H         1 UNK         0.0600 
    195 H195       -3.5538  -23.7746  -45.7468 H         1 UNK         0.3000 
    196 H196       -4.9832  -26.2158  -45.9023 H         1 UNK         0.0600 
    197 H197       -4.4939  -25.0402  -43.7721 H         1 UNK         0.0600 
    198 H198       -2.7707  -25.3521  -43.9637 H         1 UNK         0.0600 
    199 H199       -3.8866  -26.6885  -43.7113 H         1 UNK         0.0600 
    200 H200       -1.5331  -25.4981  -46.4359 H         1 UNK         0.3000 
    201 H201       -0.7156  -28.2206  -46.9357 H         1 UNK         0.0600 
    202 H202        0.8363  -26.4107  -46.1699 H         1 UNK         0.0600 
    203 H203        0.5995  -25.5575  -47.6946 H         1 UNK         0.0600 
    204 H204        1.3874  -27.1288  -47.6750 H         1 UNK         0.0600 
    205 H205       -2.6226  -26.1328  -48.7909 H         1 UNK         0.3000 
    206 H206       -3.4209  -26.0371  -50.8193 H         1 UNK         0.0600 
    207 H207       -2.1991  -28.7813  -51.4001 H         1 UNK         0.0600 
    208 H208       -3.7443  -28.5128  -50.5932 H         1 UNK         0.0600 
    209 H209       -3.5229  -28.0117  -52.2607 H         1 UNK         0.0600 
    210 H210       -0.6592  -25.0690  -50.2371 H         1 UNK         0.3000 
    211 H211        0.7009  -25.0129  -52.8517 H         1 UNK         0.0600 
    212 H212        1.2978  -23.6032  -50.1910 H         1 UNK         0.0600 
    213 H213        2.3199  -23.5616  -51.6221 H         1 UNK         0.0600 
    214 H214        2.0588  -25.0795  -50.7759 H         1 UNK         0.0600 
    215 H215       -1.2515  -22.9264  -50.7248 H         1 UNK         0.3000 
    216 H216       -1.4154  -20.7660  -52.7738 H         1 UNK         0.0600 
    217 H217       -0.9366  -20.1363  -50.4138 H         1 UNK         0.0600 
    218 H218       -2.4582  -20.8704  -49.8956 H         1 UNK         0.0600 
    219 H219       -2.4599  -19.4816  -50.9534 H         1 UNK         0.0600 
    220 H220       -2.9353  -23.6017  -52.1559 H         1 UNK         0.3000 
    221 H221       -4.8051  -24.6506  -52.6671 H         1 UNK         0.0600 
    222 H222       -5.5929  -22.2242  -54.3780 H         1 UNK         0.0600 
    223 H223       -4.5006  -23.5007  -54.9057 H         1 UNK         0.0600 
    224 H224       -6.1764  -23.8725  -54.5591 H         1 UNK         0.0600 
    225 H225       -7.3933  -24.3478  -52.8121 H         1 UNK         0.3000 
    226 H226       -8.3231  -23.5507  -50.2405 H         1 UNK         0.0600 
    227 H227       -9.3864  -25.3473  -51.5890 H         1 UNK         0.0600 
    228 H228      -10.5617  -24.0993  -51.2100 H         1 UNK         0.0600 
    229 H229       -9.8601  -24.1768  -52.8216 H         1 UNK         0.0600 
    230 H230       -7.8507  -21.7473  -53.1471 H         1 UNK         0.3000 
    231 H231       -9.6006  -19.5136  -52.6265 H         1 UNK         0.0600 
    232 H232       -8.2570  -18.4606  -54.4495 H         1 UNK         0.0600 
    233 H233       -8.7583  -20.0798  -54.9067 H         1 UNK         0.0600 
    234 H234       -7.0986  -19.7827  -54.3854 H         1 UNK         0.0600 
    235 H235       -6.5755  -20.5197  -51.2447 H         1 UNK         0.3000 
    236 H236       -5.0387  -19.6495  -49.9320 H         1 UNK         0.0600 
    237 H237       -7.3359  -17.8766  -48.9363 H         1 UNK         0.0600 
    238 H238       -7.0029  -19.5244  -48.4055 H         1 UNK         0.0600 
    239 H239       -5.8557  -18.2408  -48.0548 H         1 UNK         0.0600 
    240 H240       -4.3915  -18.8558  -52.1939 H         1 UNK         0.3000 
    241 H241       -3.0964  -17.5201  -53.3452 H         1 UNK         0.0600 
    242 H242       -6.4051  -16.8306  -52.8371 H         1 UNK         0.3800 
    243 H243       -6.5599  -15.7492  -54.1969 H         1 UNK         0.3800 
    244 H244       -3.3163  -15.2069  -51.3735 H         1 UNK         0.0800 
    245 H245       -2.1562  -15.3750  -52.6502 H         1 UNK         0.0800 
    246 H246       -0.0687  -16.5268  -52.6006 H         1 UNK         0.0800 
    247 H247       -0.5866  -18.1854  -52.3952 H         1 UNK         0.0800 
@<TRIPOS>BOND
     1    1    2 1    
     2    1  127 1    
     3    1  128 1    
     4    1  129 1    
     5    2    3 2    
     6    2    4 am   BACKBONE|DICT|INTERRES
     7    4    5 1    
     8    4  130 1    
     9    5    6 1    
    10    5   65 1    
    11    5  131 1    
    12    6    7 1    
    13    6  132 1    
    14    6  133 1    
    15    7    8 1    
    16    8    9 1    
    17    8  134 1    
    18    8  135 1    
    19    9   10 ar   
    20    9   14 ar   
    21   10   11 ar   
    22   10  136 1    
    23   11   12 ar   
    24   11  126 1    
    25   12   13 ar   
    26   12  137 1    
    27   13   14 ar   
    28   13   15 1    
    29   14  138 1    
    30   15   16 1    
    31   15  139 1    
    32   15  140 1    
    33   16   17 1    
    34   17   18 1    
    35   17  141 1    
    36   17  142 1    
    37   18   19 1    
    38   18   67 1    
    39   18  143 1    
    40   19   20 am   BACKBONE|DICT|INTERRES
    41   19  144 1    
    42   20   21 2    
    43   20   22 1    
    44   22   23 1    
    45   22   24 1    
    46   22  145 1    
    47   23  146 1    
    48   23  147 1    
    49   23  148 1    
    50   24   25 am   BACKBONE|DICT|INTERRES
    51   24  149 1    
    52   25   26 2    
    53   25   27 1    
    54   27   28 1    
    55   27   29 1    
    56   27  150 1    
    57   28  151 1    
    58   28  152 1    
    59   28  153 1    
    60   29   30 am   BACKBONE|DICT|INTERRES
    61   29  154 1    
    62   30   31 2    
    63   30   32 1    
    64   32   33 1    
    65   32   34 1    
    66   32  155 1    
    67   33  156 1    
    68   33  157 1    
    69   33  158 1    
    70   34   35 am   BACKBONE|DICT|INTERRES
    71   34  159 1    
    72   35   36 2    
    73   35   37 1    
    74   37   38 1    
    75   37   39 1    
    76   37  160 1    
    77   38  161 1    
    78   38  162 1    
    79   38  163 1    
    80   39   40 am   BACKBONE|DICT|INTERRES
    81   39  164 1    
    82   40   41 2    
    83   40   42 1    
    84   42   43 1    
    85   42   44 1    
    86   42  165 1    
    87   43  166 1    
    88   43  167 1    
    89   43  168 1    
    90   44   45 am   BACKBONE|DICT|INTERRES
    91   44  169 1    
    92   45   46 2    
    93   45   47 1    
    94   47   48 1    
    95   47   49 1    
    96   47  170 1    
    97   48  171 1    
    98   48  172 1    
    99   48  173 1    
   100   49   50 am   BACKBONE|DICT|INTERRES
   101   49  174 1    
   102   50   51 2    
   103   50   52 1    
   104   52   53 1    
   105   52   54 1    
   106   52  175 1    
   107   53  176 1    
   108   53  177 1    
   109   53  178 1    
   110   54   55 am   BACKBONE|DICT|INTERRES
   111   54  179 1    
   112   55   56 2    
   113   55   57 1    
   114   57   58 1    
   115   57   59 1    
   116   57  180 1    
   117   58  181 1    
   118   58  182 1    
   119   58  183 1    
   120   59   60 am   BACKBONE|DICT|INTERRES
   121   59  184 1    
   122   60   61 2    
   123   60   62 1    
   124   62   63 1    
   125   62   64 1    
   126   62  185 1    
   127   63  186 1    
   128   63  187 1    
   129   63  188 1    
   130   64   65 am   BACKBONE|DICT|INTERRES
   131   64  189 1    
   132   65   66 2    
   133   67   68 2    
   134   67   69 am   BACKBONE|DICT|INTERRES
   135   69   70 1    
   136   69  190 1    
   137   70   71 1    
   138   70   72 1    
   139   70  191 1    
   140   71  192 1    
   141   71  193 1    
   142   71  194 1    
   143   72   73 2    
   144   72   74 am   BACKBONE|DICT|INTERRES
   145   74   75 1    
   146   74  195 1    
   147   75   76 1    
   148   75   77 1    
   149   75  196 1    
   150   76  197 1    
   151   76  198 1    
   152   76  199 1    
   153   77   78 2    
   154   77   79 am   BACKBONE|DICT|INTERRES
   155   79   80 1    
   156   79  200 1    
   157   80   81 1    
   158   80   82 1    
   159   80  201 1    
   160   81  202 1    
   161   81  203 1    
   162   81  204 1    
   163   82   83 2    
   164   82   84 am   BACKBONE|DICT|INTERRES
   165   84   85 1    
   166   84  205 1    
   167   85   86 1    
   168   85   87 1    
   169   85  206 1    
   170   86  207 1    
   171   86  208 1    
   172   86  209 1    
   173   87   88 2    
   174   87   89 am   BACKBONE|DICT|INTERRES
   175   89   90 1    
   176   89  210 1    
   177   90   91 1    
   178   90   92 1    
   179   90  211 1    
   180   91  212 1    
   181   91  213 1    
   182   91  214 1    
   183   92   93 2    
   184   92   94 am   BACKBONE|DICT|INTERRES
   185   94   95 1    
   186   94  215 1    
   187   95   96 1    
   188   95   97 1    
   189   95  216 1    
   190   96  217 1    
   191   96  218 1    
   192   96  219 1    
   193   97   98 2    
   194   97   99 am   BACKBONE|DICT|INTERRES
   195   99  100 1    
   196   99  220 1    
   197  100  101 1    
   198  100  102 1    
   199  100  221 1    
   200  101  222 1    
   201  101  223 1    
   202  101  224 1    
   203  102  103 2    
   204  102  104 am   BACKBONE|DICT|INTERRES
   205  104  105 1    
   206  104  225 1    
   207  105  106 1    
   208  105  107 1    
   209  105  226 1    
   210  106  227 1    
   211  106  228 1    
   212  106  229 1    
   213  107  108 2    
   214  107  109 am   BACKBONE|DICT|INTERRES
   215  109  110 1    
   216  109  230 1    
   217  110  111 1    
   218  110  112 1    
   219  110  231 1    
   220  111  232 1    
   221  111  233 1    
   222  111  234 1    
   223  112  113 2    
   224  112  114 am   BACKBONE|DICT|INTERRES
   225  114  115 1    
   226  114  235 1    
   227  115  116 1    
   228  115  117 1    
   229  115  236 1    
   230  116  237 1    
   231  116  238 1    
   232  116  239 1    
   233  117  118 2    
   234  117  119 am   BACKBONE|DICT|INTERRES
   235  119  120 1    
   236  119  240 1    
   237  120  121 1    
   238  120  124 1    
   239  120  241 1    
   240  121  122 am   BACKBONE|DICT|INTERRES
   241  121  123 2    
   242  122  242 1    
   243  122  243 1    
   244  124  125 1    
   245  124  244 1    
   246  124  245 1    
   247  125  126 1    
   248  126  246 1    
   249  126  247 1    
@<TRIPOS>SUBSTRUCTURE
     1 UNK         1 GROUP             0       ****    0 ROOT    
