@<TRIPOS>MOLECULE
3R540
247   249    1
SMALL
USER_CHARGES


@<TRIPOS>ATOM
      1 CA          0.1026  -14.0212  -52.7374 C.3       0 UNK        -0.1800 
      2 C           0.1884  -14.1577  -51.2247 C.2       0 UNK         0.5000 
      3 O           1.1749  -14.6839  -50.7100 O.2       0 UNK        -0.5000 
      4 N          -0.8347  -13.6759  -50.5091 N.am      1 UNK        -0.5000 
      5 CA         -0.9700  -13.7133  -49.0458 C.3       1 UNK         0.1400 
      6 C6         -2.4568  -13.6253  -48.6161 C.3       23 UNK        -0.0398 
      7 S7         -3.3684  -15.0920  -49.1924 S.3       23 UNK        -0.2404 
      8 C8         -4.8127  -15.1281  -48.0935 C.3       23 UNK        -0.0205 
      9 C9         -5.4779  -16.4917  -48.1747 C.ar      23 UNK        -0.0193 
     10 C10        -6.3411  -16.8011  -49.2298 C.ar      23 UNK        -0.1150 
     11 C11        -6.8940  -18.0809  -49.3396 C.ar      23 UNK        -0.0193 
     12 C12        -6.5836  -19.0511  -48.3804 C.ar      23 UNK        -0.1150 
     13 C13        -5.7292  -18.7486  -47.3160 C.ar      23 UNK        -0.0193 
     14 C14        -5.1907  -17.4646  -47.2156 C.ar      23 UNK        -0.1150 
     15 C15        -5.3741  -19.8018  -46.2776 C.3       23 UNK        -0.0205 
     16 S16        -3.6754  -20.4111  -46.5115 S.3       23 UNK        -0.2404 
     17 C17        -3.5753  -21.6681  -45.1988 C.3       23 UNK        -0.0398 
     18 CA         -2.4982  -22.7394  -45.4963 C.3       11 UNK         0.1400 
     19 N          -1.1341  -22.2001  -45.4789 N.am      11 UNK        -0.5000 
     20 C          -0.0637  -22.8212  -45.9945 C.2       10 UNK         0.5000 
     21 O          -0.1290  -23.8761  -46.6288 O.2       10 UNK        -0.5000 
     22 CA          1.3141  -22.1777  -45.7407 C.3       10 UNK         0.1400 
     23 CB          1.7389  -21.2959  -46.9212 C.3       10 UNK        -0.1800 
     24 N           1.3619  -21.3981  -44.5013 N.am      10 UNK        -0.5000 
     25 C           1.3461  -21.9512  -43.2812 C.2       9 UNK         0.5000 
     26 O           1.2850  -23.1644  -43.0868 O.2       9 UNK        -0.5000 
     27 CA          1.3324  -20.9941  -42.0782 C.3       9 UNK         0.1400 
     28 CB          2.7303  -20.4246  -41.8028 C.3       9 UNK        -0.1800 
     29 N           0.3668  -19.9022  -42.2201 N.am      9 UNK        -0.5000 
     30 C          -0.9594  -20.0810  -42.2850 C.2       8 UNK         0.5000 
     31 O          -1.4929  -21.1872  -42.3608 O.2       8 UNK        -0.5000 
     32 CA         -1.8393  -18.8277  -42.2711 C.3       8 UNK         0.1400 
     33 CB         -1.7738  -18.1018  -40.9163 C.3       8 UNK        -0.1800 
     34 N          -1.4720  -17.9121  -43.3490 N.am      8 UNK        -0.5000 
     35 C          -2.3625  -17.3025  -44.1416 C.2       7 UNK         0.5000 
     36 O          -3.5795  -17.4563  -44.0360 O.2       7 UNK        -0.5000 
     37 CA         -1.8354  -16.3238  -45.2081 C.3       7 UNK         0.1400 
     38 CB         -2.1196  -14.8756  -44.7781 C.3       7 UNK        -0.1800 
     39 N          -0.4104  -16.4532  -45.5089 N.am      7 UNK        -0.5000 
     40 C           0.1254  -17.4356  -46.2454 C.2       6 UNK         0.5000 
     41 O          -0.5006  -18.4232  -46.6234 O.2       6 UNK        -0.5000 
     42 CA          1.6069  -17.2882  -46.6259 C.3       6 UNK         0.1400 
     43 CB          1.7652  -16.3067  -47.7947 C.3       6 UNK        -0.1800 
     44 N           2.3941  -16.8050  -45.4959 N.am      6 UNK        -0.5000 
     45 C           3.2236  -17.5627  -44.7685 C.2       5 UNK         0.5000 
     46 O           3.4580  -18.7470  -45.0071 O.2       5 UNK        -0.5000 
     47 CA          3.8782  -16.8938  -43.5423 C.3       5 UNK         0.1400 
     48 CB          5.2036  -16.2274  -43.9400 C.3       5 UNK        -0.1800 
     49 N           3.0202  -15.8991  -42.8957 N.am      5 UNK        -0.5000 
     50 C           1.8049  -16.1429  -42.3863 C.2       4 UNK         0.5000 
     51 O           1.2965  -17.2630  -42.3417 O.2       4 UNK        -0.5000 
     52 CA          0.9909  -14.9311  -41.8950 C.3       4 UNK         0.1400 
     53 CB          1.1129  -14.7915  -40.3710 C.3       4 UNK        -0.1800 
     54 N           1.3389  -13.6508  -42.5256 N.am      4 UNK        -0.5000 
     55 C           1.3167  -13.3851  -43.8400 C.2       3 UNK         0.5000 
     56 O           1.0564  -14.2345  -44.6962 O.2       3 UNK        -0.5000 
     57 CA          1.6146  -11.9268  -44.2471 C.3       3 UNK         0.1400 
     58 CB          2.8950  -11.3777  -43.5801 C.3       3 UNK        -0.1800 
     59 N           1.6567  -11.7351  -45.7013 N.am      3 UNK        -0.5000 
     60 C           2.5489  -12.2270  -46.5717 C.2       2 UNK         0.5000 
     61 O           3.5173  -12.9223  -46.2573 O.2       2 UNK        -0.5000 
     62 CA          2.2846  -11.8916  -48.0530 C.3       2 UNK         0.1400 
     63 CB          3.5432  -12.0480  -48.9247 C.3       2 UNK        -0.1800 
     64 N           1.2319  -12.7380  -48.6072 N.am      2 UNK        -0.5000 
     65 C          -0.0812  -12.6450  -48.3675 C.2       1 UNK         0.5000 
     66 O          -0.5816  -11.7624  -47.6673 O.2       1 UNK        -0.5000 
     67 C          -2.6415  -23.9306  -44.5277 C.2       11 UNK         0.5000 
     68 O          -3.3594  -24.8775  -44.8431 O.2       11 UNK        -0.5000 
     69 N          -1.9605  -23.8691  -43.3755 N.am      12 UNK        -0.5000 
     70 CA         -1.9158  -24.9417  -42.3841 C.3       12 UNK         0.1400 
     71 CB         -1.4482  -24.3709  -41.0362 C.3       12 UNK        -0.1800 
     72 C          -1.0150  -26.1078  -42.8289 C.2       12 UNK         0.5000 
     73 O          -1.3962  -27.2666  -42.6591 O.2       12 UNK        -0.5000 
     74 N           0.1623  -25.7836  -43.3824 N.am      13 UNK        -0.5000 
     75 CA          1.1635  -26.7525  -43.8325 C.3       13 UNK         0.1400 
     76 CB          2.4977  -26.0298  -44.0719 C.3       13 UNK        -0.1800 
     77 C           0.7458  -27.5296  -45.0937 C.2       13 UNK         0.5000 
     78 O           1.0941  -28.7046  -45.2203 O.2       13 UNK        -0.5000 
     79 N           0.0210  -26.8667  -46.0009 N.am      14 UNK        -0.5000 
     80 CA         -0.4542  -27.4254  -47.2600 C.3       14 UNK         0.1400 
     81 CB          0.6183  -27.2221  -48.3523 C.3       14 UNK        -0.1800 
     82 C          -1.8167  -26.7933  -47.5785 C.2       14 UNK         0.5000 
     83 O          -2.8091  -27.1541  -46.9461 O.2       14 UNK        -0.5000 
     84 N          -1.8404  -25.8668  -48.5412 N.am      15 UNK        -0.5000 
     85 CA         -3.0050  -25.0786  -48.9454 C.3       15 UNK         0.1400 
     86 CB         -3.9176  -25.9169  -49.8640 C.3       15 UNK        -0.1800 
     87 C          -2.5619  -23.7602  -49.6106 C.2       15 UNK         0.5000 
     88 O          -3.3059  -23.2119  -50.4239 O.2       15 UNK        -0.5000 
     89 N          -1.3320  -23.3072  -49.3089 N.am      16 UNK        -0.5000 
     90 CA         -0.6570  -22.1176  -49.8548 C.3       16 UNK         0.1400 
     91 CB         -1.2713  -20.8387  -49.2557 C.3       16 UNK        -0.1800 
     92 C          -0.5716  -22.0687  -51.3991 C.2       16 UNK         0.5000 
     93 O          -0.5033  -20.9852  -51.9785 O.2       16 UNK        -0.5000 
     94 N          -0.5899  -23.2500  -52.0363 N.am      17 UNK        -0.5000 
     95 CA         -0.6774  -23.4733  -53.4842 C.3       17 UNK         0.1400 
     96 CB          0.6183  -23.0285  -54.1948 C.3       17 UNK        -0.1800 
     97 C          -1.9712  -22.9128  -54.1233 C.2       17 UNK         0.5000 
     98 O          -1.9788  -22.5856  -55.3122 O.2       17 UNK        -0.5000 
     99 N          -3.0509  -22.8511  -53.3259 N.am      18 UNK        -0.5000 
    100 CA        -4.4179  -22.4714  -53.6859 C.3       18 UNK         0.1400 
    101 CB        -5.0826  -23.6073  -54.4949 C.3       18 UNK        -0.1800 
    102 C         -4.4842  -21.0901  -54.3661 C.2       18 UNK         0.5000 
    103 O         -4.1969  -20.0847  -53.7157 O.2       18 UNK        -0.5000 
    104 N         -4.8353  -21.0616  -55.6597 N.am      19 UNK        -0.5000 
    105 CA        -4.9964  -19.8685  -56.4956 C.3       19 UNK         0.1400 
    106 CB        -5.4043  -20.3049  -57.9104 C.3       19 UNK        -0.1800 
    107 C         -3.7671  -18.9410  -56.5537 C.2       19 UNK         0.5000 
    108 O         -3.9356  -17.7428  -56.7811 O.2       19 UNK        -0.5000 
    109 N         -2.5669  -19.4858  -56.3068 N.am      20 UNK        -0.5000 
    110 CA        -1.3236  -18.7232  -56.1783 C.3       20 UNK         0.1400 
    111 CB        -0.1481  -19.7002  -56.0512 C.3       20 UNK        -0.1800 
    112 C         -1.3320  -17.7378  -54.9908 C.2       20 UNK         0.5000 
    113 O         -0.6993  -16.6854  -55.0812 O.2       20 UNK        -0.5000 
    114 N         -2.0577  -18.0843  -53.9198 N.am      21 UNK        -0.5000 
    115 CA        -2.2974  -17.2279  -52.7629 C.3       21 UNK         0.1400 
    116 CB        -2.2125  -18.0696  -51.4811 C.3       21 UNK        -0.1800 
    117 C         -3.6633  -16.5350  -52.8775 C.2       21 UNK         0.5000 
    118 O         -3.7419  -15.3214  -52.6847 O.2       21 UNK        -0.5000 
    119 N         -4.7084  -17.3125  -53.1944 N.am      22 UNK        -0.5000 
    120 CA        -6.1056  -16.8513  -53.2376 C.3       22 UNK         0.1400 
    121 C         -6.4465  -15.8625  -54.3901 C.2       22 UNK         0.5000 
    122 N         -5.6930  -15.8118  -55.4813 N.am      22 UNK        -0.7600 
    123 O         -7.4200  -15.1211  -54.2889 O.2       22 UNK        -0.5000 
    124 C124       -7.1196  -18.0251  -53.2245 C.3       23 UNK        -0.0398 
    125 S125       -6.8817  -19.2075  -51.8534 S.3       23 UNK        -0.2404 
    126 C126       -7.8136  -18.4254  -50.4999 C.3       23 UNK        -0.0205 
    127 H127        0.7427  -13.2075  -53.0777 H         1 UNK         0.0600 
    128 H128       -0.9173  -13.8201  -53.0668 H         1 UNK         0.0600 
    129 H129        0.4366  -14.9408  -53.2177 H         1 UNK         0.0600 
    130 H130       -1.6123  -13.2554  -50.9979 H         1 UNK         0.3000 
    131 H131       -0.5950  -14.6777  -48.6973 H         1 UNK         0.0600 
    132 H132       -2.5457  -13.5690  -47.5315 H         1 UNK         0.0800 
    133 H133       -2.9299  -12.7262  -49.0140 H         1 UNK         0.0800 
    134 H134       -4.5074  -14.9174  -47.0675 H         1 UNK         0.0800 
    135 H135       -5.5145  -14.3444  -48.3821 H         1 UNK         0.0800 
    136 H136       -6.5601  -16.0514  -49.9764 H         1 UNK         0.1150 
    137 H137       -6.9989  -20.0450  -48.4712 H         1 UNK         0.1150 
    138 H138       -4.5245  -17.2343  -46.3999 H         1 UNK         0.1150 
    139 H139       -5.4694  -19.3748  -45.2779 H         1 UNK         0.0800 
    140 H140       -6.0729  -20.6379  -46.3302 H         1 UNK         0.0800 
    141 H141       -4.5571  -22.1368  -45.1073 H         1 UNK         0.0800 
    142 H142       -3.3843  -21.1687  -44.2484 H         1 UNK         0.0800 
    143 H143       -2.6862  -23.1265  -46.4993 H         1 UNK         0.0600 
    144 H144       -0.9985  -21.3316  -44.9834 H         1 UNK         0.3000 
    145 H145        2.0424  -22.9865  -45.6555 H         1 UNK         0.0600 
    146 H146        2.6848  -20.7929  -46.7206 H         1 UNK         0.0600 
    147 H147        1.8837  -21.8982  -47.8172 H         1 UNK         0.0600 
    148 H148        0.9927  -20.5356  -47.1482 H         1 UNK         0.0600 
    149 H149        1.4361  -20.3944  -44.5867 H         1 UNK         0.3000 
    150 H150        1.0359  -21.5773  -41.2037 H         1 UNK         0.0600 
    151 H151        3.4496  -21.2253  -41.6265 H         1 UNK         0.0600 
    152 H152        2.7304  -19.7846  -40.9204 H         1 UNK         0.0600 
    153 H153        3.0954  -19.8367  -42.6423 H         1 UNK         0.0600 
    154 H154        0.7385  -18.9548  -42.1754 H         1 UNK         0.3000 
    155 H155       -2.8647  -19.1783  -42.4074 H         1 UNK         0.0600 
    156 H156       -0.7784  -17.7096  -40.7088 H         1 UNK         0.0600 
    157 H157       -2.0378  -18.7753  -40.1001 H         1 UNK         0.0600 
    158 H158       -2.4729  -17.2659  -40.8866 H         1 UNK         0.0600 
    159 H159       -0.4849  -17.7296  -43.4777 H         1 UNK         0.3000 
    160 H160       -2.3822  -16.5144  -46.1332 H         1 UNK         0.0600 
    161 H161       -1.7051  -14.1587  -45.4857 H         1 UNK         0.0600 
    162 H162       -1.6914  -14.6554  -43.8004 H         1 UNK         0.0600 
    163 H163       -3.1925  -14.6912  -44.7137 H         1 UNK         0.0600 
    164 H164        0.1735  -15.6662  -45.2314 H         1 UNK         0.3000 
    165 H165        1.9653  -18.2634  -46.9598 H         1 UNK         0.0600 
    166 H166        2.7987  -16.2675  -48.1387 H         1 UNK         0.0600 
    167 H167        1.1496  -16.6040  -48.6448 H         1 UNK         0.0600 
    168 H168        1.4743  -15.2969  -47.5071 H         1 UNK         0.0600 
    169 H169        2.2327  -15.8458  -45.2088 H         1 UNK         0.3000 
    170 H170        4.0927  -17.6738  -42.8098 H         1 UNK         0.0600 
    171 H171        5.8765  -16.9460  -44.4098 H         1 UNK         0.0600 
    172 H172        5.0466  -15.4121  -44.6480 H         1 UNK         0.0600 
    173 H173        5.7191  -15.8222  -43.0691 H         1 UNK         0.0600 
    174 H174        3.3499  -14.9455  -42.9009 H         1 UNK         0.3000 
    175 H175       -0.0542  -15.1377  -42.1309 H         1 UNK         0.0600 
    176 H176        2.1321  -14.5454  -40.0703 H         1 UNK         0.0600 
    177 H177        0.4520  -14.0121  -39.9914 H         1 UNK         0.0600 
    178 H178        0.8375  -15.7201  -39.8690 H         1 UNK         0.0600 
    179 H179        1.5654  -12.8988  -41.8910 H         1 UNK         0.3000 
    180 H180        0.7712  -11.3316  -43.8946 H         1 UNK         0.0600 
    181 H181        3.7607  -12.0117  -43.7741 H         1 UNK         0.0600 
    182 H182        2.7812  -11.3044  -42.4983 H         1 UNK         0.0600 
    183 H183        3.1280  -10.3762  -43.9421 H         1 UNK         0.0600 
    184 H184        0.8443  -11.2779  -46.0987 H         1 UNK         0.3000 
    185 H185        1.9656  -10.8488  -48.1117 H         1 UNK         0.0600 
    186 H186        4.3613  -11.4358  -48.5433 H         1 UNK         0.0600 
    187 H187        3.8896  -13.0821  -48.9522 H         1 UNK         0.0600 
    188 H188        3.3524  -11.7331  -49.9508 H         1 UNK         0.0600 
    189 H189        1.5337  -13.4867  -49.2244 H         1 UNK         0.3000 
    190 H190       -1.4594  -23.0169  -43.1460 H         1 UNK         0.3000 
    191 H191       -2.9271  -25.3318  -42.2499 H         1 UNK         0.0600 
    192 H192       -0.4470  -23.9442  -41.1020 H         1 UNK         0.0600 
    193 H193       -1.4256  -25.1468  -40.2701 H         1 UNK         0.0600 
    194 H194       -2.1208  -23.5872  -40.6870 H         1 UNK         0.0600 
    195 H195        0.4331  -24.8038  -43.4167 H         1 UNK         0.3000 
    196 H196        1.3129  -27.4793  -43.0313 H         1 UNK         0.0600 
    197 H197        3.2736  -26.7316  -44.3803 H         1 UNK         0.0600 
    198 H198        2.8477  -25.5364  -43.1650 H         1 UNK         0.0600 
    199 H199        2.4092  -25.2736  -44.8524 H         1 UNK         0.0600 
    200 H200       -0.2250  -25.8985  -45.8294 H         1 UNK         0.3000 
    201 H201       -0.6319  -28.4970  -47.1473 H         1 UNK         0.0600 
    202 H202        1.5211  -27.7859  -48.1169 H         1 UNK         0.0600 
    203 H203        0.9064  -26.1749  -48.4536 H         1 UNK         0.0600 
    204 H204        0.2672  -27.5747  -49.3230 H         1 UNK         0.0600 
    205 H205       -0.9760  -25.6575  -49.0188 H         1 UNK         0.3000 
    206 H206       -3.5700  -24.8023  -48.0530 H         1 UNK         0.0600 
    207 H207       -4.2494  -26.8303  -49.3706 H         1 UNK         0.0600 
    208 H208       -4.8144  -25.3623  -50.1429 H         1 UNK         0.0600 
    209 H209       -3.4054  -26.2005  -50.7841 H         1 UNK         0.0600 
    210 H210       -0.8318  -23.7723  -48.5584 H         1 UNK         0.3000 
    211 H211        0.3755  -22.1765  -49.5141 H         1 UNK         0.0600 
    212 H212       -1.2814  -20.8817  -48.1678 H         1 UNK         0.0600 
    213 H213       -2.2962  -20.6843  -49.5949 H         1 UNK         0.0600 
    214 H214       -0.6938  -19.9556  -49.5290 H         1 UNK         0.0600 
    215 H215       -0.6372  -24.0815  -51.4666 H         1 UNK         0.3000 
    216 H216       -0.7506  -24.5541  -53.6127 H         1 UNK         0.0600 
    217 H217        0.5694  -23.2151  -55.2682 H         1 UNK         0.0600 
    218 H218        1.4776  -23.5796  -53.8132 H         1 UNK         0.0600 
    219 H219        0.8216  -21.9685  -54.0534 H         1 UNK         0.0600 
    220 H220       -2.9287  -23.0657  -52.3405 H         1 UNK         0.3000 
    221 H221       -4.9653  -22.3701  -52.7474 H         1 UNK         0.0600 
    222 H222       -4.5575  -23.8125  -55.4285 H         1 UNK         0.0600 
    223 H223       -5.0978  -24.5326  -53.9188 H         1 UNK         0.0600 
    224 H224       -6.1188  -23.3666  -54.7365 H         1 UNK         0.0600 
    225 H225       -5.0123  -21.9456  -56.1139 H         1 UNK         0.3000 
    226 H226       -5.8149  -19.2849  -56.0721 H         1 UNK         0.0600 
    227 H227       -6.3358  -20.8710  -57.8968 H         1 UNK         0.0600 
    228 H228       -5.5616  -19.4403  -58.5570 H         1 UNK         0.0600 
    229 H229       -4.6381  -20.9272  -58.3747 H         1 UNK         0.0600 
    230 H230       -2.5159  -20.4779  -56.1078 H         1 UNK         0.3000 
    231 H231       -1.1911  -18.1421  -57.0932 H         1 UNK         0.0600 
    232 H232       -0.1071  -20.3890  -56.8952 H         1 UNK         0.0600 
    233 H233       -0.2311  -20.2889  -55.1386 H         1 UNK         0.0600 
    234 H234        0.8030  -19.1677  -56.0146 H         1 UNK         0.0600 
    235 H235       -2.5804  -18.9540  -53.9425 H         1 UNK         0.3000 
    236 H236       -1.5326  -16.4527  -52.6992 H         1 UNK         0.0600 
    237 H237       -2.4504  -17.4762  -50.5990 H         1 UNK         0.0600 
    238 H238       -2.8993  -18.9168  -51.5016 H         1 UNK         0.0600 
    239 H239       -1.2043  -18.4582  -51.3446 H         1 UNK         0.0600 
    240 H240       -4.5616  -18.3107  -53.3228 H         1 UNK         0.3000 
    241 H241       -6.2665  -16.2873  -52.3177 H         1 UNK         0.0600 
    242 H242       -4.9169  -16.4476  -55.6275 H         1 UNK         0.3800 
    243 H243       -5.9322  -15.1579  -56.2092 H         1 UNK         0.3800 
    244 H244       -7.0439  -18.5898  -54.1541 H         1 UNK         0.0800 
    245 H245       -8.1445  -17.6516  -53.1892 H         1 UNK         0.0800 
    246 H246       -8.5921  -19.1118  -50.1638 H         1 UNK         0.0800 
    247 H247       -8.3296  -17.5298  -50.8484 H         1 UNK         0.0800 
@<TRIPOS>BOND
     1    1    2 1    
     2    1  127 1    
     3    1  128 1    
     4    1  129 1    
     5    2    3 2    
     6    2    4 am   BACKBONE|DICT|INTERRES
     7    4    5 1    
     8    4  130 1    
     9    5    6 1    
    10    5   65 1    
    11    5  131 1    
    12    6    7 1    
    13    6  132 1    
    14    6  133 1    
    15    7    8 1    
    16    8    9 1    
    17    8  134 1    
    18    8  135 1    
    19    9   10 ar   
    20    9   14 ar   
    21   10   11 ar   
    22   10  136 1    
    23   11   12 ar   
    24   11  126 1    
    25   12   13 ar   
    26   12  137 1    
    27   13   14 ar   
    28   13   15 1    
    29   14  138 1    
    30   15   16 1    
    31   15  139 1    
    32   15  140 1    
    33   16   17 1    
    34   17   18 1    
    35   17  141 1    
    36   17  142 1    
    37   18   19 1    
    38   18   67 1    
    39   18  143 1    
    40   19   20 am   BACKBONE|DICT|INTERRES
    41   19  144 1    
    42   20   21 2    
    43   20   22 1    
    44   22   23 1    
    45   22   24 1    
    46   22  145 1    
    47   23  146 1    
    48   23  147 1    
    49   23  148 1    
    50   24   25 am   BACKBONE|DICT|INTERRES
    51   24  149 1    
    52   25   26 2    
    53   25   27 1    
    54   27   28 1    
    55   27   29 1    
    56   27  150 1    
    57   28  151 1    
    58   28  152 1    
    59   28  153 1    
    60   29   30 am   BACKBONE|DICT|INTERRES
    61   29  154 1    
    62   30   31 2    
    63   30   32 1    
    64   32   33 1    
    65   32   34 1    
    66   32  155 1    
    67   33  156 1    
    68   33  157 1    
    69   33  158 1    
    70   34   35 am   BACKBONE|DICT|INTERRES
    71   34  159 1    
    72   35   36 2    
    73   35   37 1    
    74   37   38 1    
    75   37   39 1    
    76   37  160 1    
    77   38  161 1    
    78   38  162 1    
    79   38  163 1    
    80   39   40 am   BACKBONE|DICT|INTERRES
    81   39  164 1    
    82   40   41 2    
    83   40   42 1    
    84   42   43 1    
    85   42   44 1    
    86   42  165 1    
    87   43  166 1    
    88   43  167 1    
    89   43  168 1    
    90   44   45 am   BACKBONE|DICT|INTERRES
    91   44  169 1    
    92   45   46 2    
    93   45   47 1    
    94   47   48 1    
    95   47   49 1    
    96   47  170 1    
    97   48  171 1    
    98   48  172 1    
    99   48  173 1    
   100   49   50 am   BACKBONE|DICT|INTERRES
   101   49  174 1    
   102   50   51 2    
   103   50   52 1    
   104   52   53 1    
   105   52   54 1    
   106   52  175 1    
   107   53  176 1    
   108   53  177 1    
   109   53  178 1    
   110   54   55 am   BACKBONE|DICT|INTERRES
   111   54  179 1    
   112   55   56 2    
   113   55   57 1    
   114   57   58 1    
   115   57   59 1    
   116   57  180 1    
   117   58  181 1    
   118   58  182 1    
   119   58  183 1    
   120   59   60 am   BACKBONE|DICT|INTERRES
   121   59  184 1    
   122   60   61 2    
   123   60   62 1    
   124   62   63 1    
   125   62   64 1    
   126   62  185 1    
   127   63  186 1    
   128   63  187 1    
   129   63  188 1    
   130   64   65 am   BACKBONE|DICT|INTERRES
   131   64  189 1    
   132   65   66 2    
   133   67   68 2    
   134   67   69 am   BACKBONE|DICT|INTERRES
   135   69   70 1    
   136   69  190 1    
   137   70   71 1    
   138   70   72 1    
   139   70  191 1    
   140   71  192 1    
   141   71  193 1    
   142   71  194 1    
   143   72   73 2    
   144   72   74 am   BACKBONE|DICT|INTERRES
   145   74   75 1    
   146   74  195 1    
   147   75   76 1    
   148   75   77 1    
   149   75  196 1    
   150   76  197 1    
   151   76  198 1    
   152   76  199 1    
   153   77   78 2    
   154   77   79 am   BACKBONE|DICT|INTERRES
   155   79   80 1    
   156   79  200 1    
   157   80   81 1    
   158   80   82 1    
   159   80  201 1    
   160   81  202 1    
   161   81  203 1    
   162   81  204 1    
   163   82   83 2    
   164   82   84 am   BACKBONE|DICT|INTERRES
   165   84   85 1    
   166   84  205 1    
   167   85   86 1    
   168   85   87 1    
   169   85  206 1    
   170   86  207 1    
   171   86  208 1    
   172   86  209 1    
   173   87   88 2    
   174   87   89 am   BACKBONE|DICT|INTERRES
   175   89   90 1    
   176   89  210 1    
   177   90   91 1    
   178   90   92 1    
   179   90  211 1    
   180   91  212 1    
   181   91  213 1    
   182   91  214 1    
   183   92   93 2    
   184   92   94 am   BACKBONE|DICT|INTERRES
   185   94   95 1    
   186   94  215 1    
   187   95   96 1    
   188   95   97 1    
   189   95  216 1    
   190   96  217 1    
   191   96  218 1    
   192   96  219 1    
   193   97   98 2    
   194   97   99 am   BACKBONE|DICT|INTERRES
   195   99  100 1    
   196   99  220 1    
   197  100  101 1    
   198  100  102 1    
   199  100  221 1    
   200  101  222 1    
   201  101  223 1    
   202  101  224 1    
   203  102  103 2    
   204  102  104 am   BACKBONE|DICT|INTERRES
   205  104  105 1    
   206  104  225 1    
   207  105  106 1    
   208  105  107 1    
   209  105  226 1    
   210  106  227 1    
   211  106  228 1    
   212  106  229 1    
   213  107  108 2    
   214  107  109 am   BACKBONE|DICT|INTERRES
   215  109  110 1    
   216  109  230 1    
   217  110  111 1    
   218  110  112 1    
   219  110  231 1    
   220  111  232 1    
   221  111  233 1    
   222  111  234 1    
   223  112  113 2    
   224  112  114 am   BACKBONE|DICT|INTERRES
   225  114  115 1    
   226  114  235 1    
   227  115  116 1    
   228  115  117 1    
   229  115  236 1    
   230  116  237 1    
   231  116  238 1    
   232  116  239 1    
   233  117  118 2    
   234  117  119 am   BACKBONE|DICT|INTERRES
   235  119  120 1    
   236  119  240 1    
   237  120  121 1    
   238  120  124 1    
   239  120  241 1    
   240  121  122 am   BACKBONE|DICT|INTERRES
   241  121  123 2    
   242  122  242 1    
   243  122  243 1    
   244  124  125 1    
   245  124  244 1    
   246  124  245 1    
   247  125  126 1    
   248  126  246 1    
   249  126  247 1    
@<TRIPOS>SUBSTRUCTURE
     1 UNK         1 GROUP             0       ****    0 ROOT    
