@<TRIPOS>MOLECULE
3R540
247   249    1
SMALL
USER_CHARGES


@<TRIPOS>ATOM
      1 CA          0.3561  -19.4055  -43.2852 C.3       0 UNK        -0.1800 
      2 C           0.9075  -18.3248  -44.2036 C.2       0 UNK         0.5000 
      3 O           0.3086  -18.0393  -45.2397 O.2       0 UNK        -0.5000 
      4 N           2.0507  -17.7344  -43.8364 N.am      1 UNK        -0.5000 
      5 CA          2.7134  -16.6536  -44.5808 C.3       1 UNK         0.1400 
      6 C6          3.9251  -17.1359  -45.4241 C.3       23 UNK        -0.0398 
      7 S7          3.4426  -18.3811  -46.6666 S.3       23 UNK        -0.2404 
      8 C8          4.6078  -18.0746  -48.0204 C.3       23 UNK        -0.0205 
      9 C9          4.4030  -19.0907  -49.1336 C.ar      23 UNK        -0.0193 
     10 C10         3.4907  -18.8363  -50.1617 C.ar      23 UNK        -0.1150 
     11 C11         3.3067  -19.7595  -51.1935 C.ar      23 UNK        -0.0193 
     12 C12         4.0457  -20.9430  -51.1967 C.ar      23 UNK        -0.1150 
     13 C13         4.9463  -21.2211  -50.1652 C.ar      23 UNK        -0.0193 
     14 C14         5.1223  -20.2902  -49.1364 C.ar      23 UNK        -0.1150 
     15 C15         5.7437  -22.5166  -50.1761 C.3       23 UNK        -0.0205 
     16 S16         4.9916  -23.8030  -49.1292 S.3       23 UNK        -0.2404 
     17 C17         3.4835  -24.2397  -50.0657 C.3       23 UNK        -0.0398 
     18 CA          2.2318  -24.3284  -49.1631 C.3       11 UNK         0.1400 
     19 N           1.9908  -23.1090  -48.3809 N.am      11 UNK        -0.5000 
     20 C           1.2134  -23.0869  -47.2912 C.2       10 UNK         0.5000 
     21 O           0.5624  -24.0573  -46.9006 O.2       10 UNK        -0.5000 
     22 CA          1.1464  -21.7683  -46.5005 C.3       10 UNK         0.1400 
     23 CB          2.4794  -21.5369  -45.7725 C.3       10 UNK        -0.1800 
     24 N           0.7489  -20.5625  -47.2474 N.am      10 UNK        -0.5000 
     25 C          -0.2925  -20.4714  -48.0912 C.2       9 UNK         0.5000 
     26 O          -0.8707  -21.4475  -48.5644 O.2       9 UNK        -0.5000 
     27 CA         -0.8473  -19.0799  -48.4432 C.3       9 UNK         0.1400 
     28 CB         -2.1983  -18.8777  -47.7356 C.3       9 UNK        -0.1800 
     29 N           0.0275  -17.9679  -48.0720 N.am      9 UNK        -0.5000 
     30 C           0.3666  -16.9746  -48.9018 C.2       8 UNK         0.5000 
     31 O           0.0346  -16.9207  -50.0876 O.2       8 UNK        -0.5000 
     32 CA          1.1079  -15.7843  -48.2873 C.3       8 UNK         0.1400 
     33 CB          2.0287  -15.0608  -49.2891 C.3       8 UNK        -0.1800 
     34 N           0.0968  -14.8562  -47.8007 N.am      8 UNK        -0.5000 
     35 C           0.2561  -13.9983  -46.7902 C.2       7 UNK         0.5000 
     36 O           1.2986  -13.8909  -46.1450 O.2       7 UNK        -0.5000 
     37 CA         -0.9399  -13.0969  -46.4251 C.3       7 UNK         0.1400 
     38 CB         -2.0276  -12.9957  -47.5204 C.3       7 UNK        -0.1800 
     39 N          -1.5072  -13.4952  -45.1356 N.am      7 UNK        -0.5000 
     40 C          -2.1135  -14.6550  -44.8409 C.2       6 UNK         0.5000 
     41 O          -2.3625  -15.5322  -45.6679 O.2       6 UNK        -0.5000 
     42 CA         -2.5062  -14.8849  -43.3701 C.3       6 UNK         0.1400 
     43 CB         -1.5994  -15.9522  -42.7396 C.3       6 UNK        -0.1800 
     44 N          -2.4313  -13.6665  -42.5587 N.am      6 UNK        -0.5000 
     45 C          -3.4472  -12.8131  -42.3848 C.2       5 UNK         0.5000 
     46 O          -4.5393  -12.9384  -42.9403 O.2       5 UNK        -0.5000 
     47 CA         -3.2321  -11.6369  -41.4199 C.3       5 UNK         0.1400 
     48 CB         -3.4823  -12.0795  -39.9668 C.3       5 UNK        -0.1800 
     49 N          -1.9098  -11.0083  -41.5266 N.am      5 UNK        -0.5000 
     50 C          -1.6985   -9.7075  -41.2656 C.2       4 UNK         0.5000 
     51 O          -2.6029   -8.9196  -40.9825 O.2       4 UNK        -0.5000 
     52 CA         -0.2509   -9.1731  -41.2903 C.3       4 UNK         0.1400 
     53 CB          0.2853   -9.0268  -39.8574 C.3       4 UNK        -0.1800 
     54 N           0.6859   -9.9929  -42.0536 N.am      4 UNK        -0.5000 
     55 C           0.6901  -10.1285  -43.3849 C.2       3 UNK         0.5000 
     56 O          -0.0916   -9.5433  -44.1346 O.2       3 UNK        -0.5000 
     57 CA          1.7306  -11.0970  -43.9831 C.3       3 UNK         0.1400 
     58 CB          2.9294  -10.3160  -44.5418 C.3       3 UNK        -0.1800 
     59 N           2.2275  -12.1434  -43.0800 N.am      3 UNK        -0.5000 
     60 C           1.4808  -13.0228  -42.4006 C.2       2 UNK         0.5000 
     61 O           0.2494  -12.9841  -42.3500 O.2       2 UNK        -0.5000 
     62 CA          2.2348  -14.1615  -41.6946 C.3       2 UNK         0.1400 
     63 CB          1.5679  -14.5462  -40.3627 C.3       2 UNK        -0.1800 
     64 N           2.2486  -15.3263  -42.5732 N.am      2 UNK        -0.5000 
     65 C           3.0495  -15.4808  -43.6371 C.2       1 UNK         0.5000 
     66 O           4.0004  -14.7360  -43.8805 O.2       1 UNK        -0.5000 
     67 C           0.9930  -24.7581  -49.9759 C.2       11 UNK         0.5000 
     68 O           0.8085  -25.9543  -50.2034 O.2       11 UNK        -0.5000 
     69 N           0.1517  -23.7917  -50.3710 N.am      12 UNK        -0.5000 
     70 CA         -1.1353  -24.0527  -51.0110 C.3       12 UNK         0.1400 
     71 CB         -1.5980  -22.8132  -51.7875 C.3       12 UNK        -0.1800 
     72 C          -2.1889  -24.4936  -49.9844 C.2       12 UNK         0.5000 
     73 O          -2.9567  -25.4102  -50.2667 O.2       12 UNK        -0.5000 
     74 N          -2.1957  -23.8681  -48.8001 N.am      13 UNK        -0.5000 
     75 CA         -3.0892  -24.1833  -47.6844 C.3       13 UNK         0.1400 
     76 CB         -2.9265  -23.1328  -46.5761 C.3       13 UNK        -0.1800 
     77 C          -2.8749  -25.6047  -47.1400 C.2       13 UNK         0.5000 
     78 O          -3.8522  -26.2915  -46.8438 O.2       13 UNK        -0.5000 
     79 N          -1.6114  -26.0497  -47.1002 N.am      14 UNK        -0.5000 
     80 CA         -1.2103  -27.4200  -46.7705 C.3       14 UNK         0.1400 
     81 CB          0.3225  -27.4846  -46.6933 C.3       14 UNK        -0.1800 
     82 C          -1.7455  -28.4789  -47.7592 C.2       14 UNK         0.5000 
     83 O          -1.9496  -29.6267  -47.3631 O.2       14 UNK        -0.5000 
     84 N          -1.9815  -28.0723  -49.0136 N.am      15 UNK        -0.5000 
     85 CA         -2.5687  -28.8907  -50.0757 C.3       15 UNK         0.1400 
     86 CB         -1.8590  -28.5443  -51.3962 C.3       15 UNK        -0.1800 
     87 C          -4.0932  -28.6857  -50.2105 C.2       15 UNK         0.5000 
     88 O          -4.7072  -29.3322  -51.0603 O.2       15 UNK        -0.5000 
     89 N          -4.6713  -27.7813  -49.4023 N.am      16 UNK        -0.5000 
     90 CA         -6.0589  -27.3001  -49.4365 C.3       16 UNK         0.1400 
     91 CB         -7.0425  -28.4266  -49.0576 C.3       16 UNK        -0.1800 
     92 C          -6.4289  -26.5921  -50.7614 C.2       16 UNK         0.5000 
     93 O          -7.5866  -26.6298  -51.1817 O.2       16 UNK        -0.5000 
     94 N          -5.4344  -25.9573  -51.3939 N.am      17 UNK        -0.5000 
     95 CA         -5.5267  -25.2989  -52.6968 C.3       17 UNK         0.1400 
     96 CB         -4.3107  -25.7299  -53.5340 C.3       17 UNK        -0.1800 
     97 C          -5.5812  -23.7630  -52.5879 C.2       17 UNK         0.5000 
     98 O          -5.7741  -23.0982  -53.6072 O.2       17 UNK        -0.5000 
     99 N          -5.4046  -23.2127  -51.3774 N.am      18 UNK        -0.5000 
    100 CA        -5.3873  -21.7759  -51.0845 C.3       18 UNK         0.1400 
    101 CB        -4.6774  -21.5392  -49.7395 C.3       18 UNK        -0.1800 
    102 C         -6.7936  -21.1408  -51.1171 C.2       18 UNK         0.5000 
    103 O         -7.2668  -20.6278  -50.1018 O.2       18 UNK        -0.5000 
    104 N         -7.4385  -21.1763  -52.2892 N.am      19 UNK        -0.5000 
    105 CA        -8.7561  -20.5871  -52.5476 C.3       19 UNK         0.1400 
    106 CB        -9.2429  -21.0406  -53.9321 C.3       19 UNK        -0.1800 
    107 C         -8.7678  -19.0479  -52.4461 C.2       19 UNK         0.5000 
    108 O         -9.7987  -18.4681  -52.1026 O.2       19 UNK        -0.5000 
    109 N         -7.6188  -18.4228  -52.7268 N.am      20 UNK        -0.5000 
    110 CA        -7.3730  -16.9887  -52.6059 C.3       20 UNK         0.1400 
    111 CB        -7.8620  -16.2598  -53.8734 C.3       20 UNK        -0.1800 
    112 C         -5.8802  -16.7673  -52.3069 C.2       20 UNK         0.5000 
    113 O         -5.2306  -15.9584  -52.9719 O.2       20 UNK        -0.5000 
    114 N         -5.3590  -17.5330  -51.3331 N.am      21 UNK        -0.5000 
    115 CA        -3.9398  -17.6468  -50.9673 C.3       21 UNK         0.1400 
    116 CB        -3.4177  -16.3064  -50.4019 C.3       21 UNK        -0.1800 
    117 C         -3.0980  -18.2148  -52.1353 C.2       21 UNK         0.5000 
    118 O         -3.6306  -18.9913  -52.9332 O.2       21 UNK        -0.5000 
    119 N         -1.8186  -17.8371  -52.2266 N.am      22 UNK        -0.5000 
    120 CA        -0.9474  -18.1391  -53.3739 C.3       22 UNK         0.1400 
    121 C          0.0958  -17.0307  -53.6823 C.2       22 UNK         0.5000 
    122 N          0.5046  -16.2091  -52.7240 N.am      22 UNK        -0.7600 
    123 O          0.5279  -16.8983  -54.8241 O.2       22 UNK        -0.5000 
    124 C124       -0.3145  -19.5557  -53.3230 C.3       23 UNK        -0.0398 
    125 S125        0.6280  -19.9246  -51.8015 S.3       23 UNK        -0.2404 
    126 C126        2.3148  -19.4768  -52.3073 C.3       23 UNK        -0.0205 
    127 H127        1.0776  -19.6931  -42.5202 H         1 UNK         0.0600 
    128 H128        0.1009  -20.2942  -43.8615 H         1 UNK         0.0600 
    129 H129       -0.5473  -19.0521  -42.7888 H         1 UNK         0.0600 
    130 H130        2.5144  -18.0237  -42.9859 H         1 UNK         0.3000 
    131 H131        1.9931  -16.2188  -45.2705 H         1 UNK         0.0600 
    132 H132        4.6961  -17.5629  -44.7812 H         1 UNK         0.0800 
    133 H133        4.3841  -16.2944  -45.9458 H         1 UNK         0.0800 
    134 H134        4.4711  -17.0619  -48.4019 H         1 UNK         0.0800 
    135 H135        5.6295  -18.1315  -47.6418 H         1 UNK         0.0800 
    136 H136        2.9161  -17.9234  -50.1628 H         1 UNK         0.1150 
    137 H137        3.9148  -21.6485  -52.0049 H         1 UNK         0.1150 
    138 H138        5.8206  -20.4994  -48.3380 H         1 UNK         0.1150 
    139 H139        5.8523  -22.8936  -51.1944 H         1 UNK         0.0800 
    140 H140        6.7554  -22.3213  -49.8177 H         1 UNK         0.0800 
    141 H141        3.3161  -23.5301  -50.8736 H         1 UNK         0.0800 
    142 H142        3.6665  -25.2013  -50.5488 H         1 UNK         0.0800 
    143 H143        2.4195  -25.1338  -48.4488 H         1 UNK         0.0600 
    144 H144        2.5009  -22.2789  -48.6479 H         1 UNK         0.3000 
    145 H145        0.3803  -21.9089  -45.7360 H         1 UNK         0.0600 
    146 H146        2.4175  -20.7028  -45.0760 H         1 UNK         0.0600 
    147 H147        3.2898  -21.3341  -46.4735 H         1 UNK         0.0600 
    148 H148        2.7658  -22.4147  -45.1916 H         1 UNK         0.0600 
    149 H149        1.1876  -19.7018  -46.9517 H         1 UNK         0.3000 
    150 H150       -1.0290  -19.0860  -49.5187 H         1 UNK         0.0600 
    151 H151       -2.9108  -19.6546  -48.0132 H         1 UNK         0.0600 
    152 H152       -2.6443  -17.9172  -47.9908 H         1 UNK         0.0600 
    153 H153       -2.0871  -18.9077  -46.6508 H         1 UNK         0.0600 
    154 H154        0.2512  -17.8950  -47.0804 H         1 UNK         0.3000 
    155 H155        1.7144  -16.1514  -47.4619 H         1 UNK         0.0600 
    156 H156        2.5756  -14.2520  -48.8045 H         1 UNK         0.0600 
    157 H157        1.4656  -14.6299  -50.1177 H         1 UNK         0.0600 
    158 H158        2.7685  -15.7385  -49.7114 H         1 UNK         0.0600 
    159 H159       -0.8079  -14.9230  -48.2459 H         1 UNK         0.3000 
    160 H160       -0.5364  -12.0934  -46.2865 H         1 UNK         0.0600 
    161 H161       -2.5128  -13.9495  -47.7277 H         1 UNK         0.0600 
    162 H162       -1.6030  -12.6328  -48.4573 H         1 UNK         0.0600 
    163 H163       -2.8055  -12.2904  -47.2277 H         1 UNK         0.0600 
    164 H164       -1.3146  -12.8752  -44.3620 H         1 UNK         0.3000 
    165 H165       -3.5288  -15.2682  -43.3602 H         1 UNK         0.0600 
    166 H166       -0.5515  -15.6581  -42.7770 H         1 UNK         0.0600 
    167 H167       -1.8637  -16.1344  -41.6979 H         1 UNK         0.0600 
    168 H168       -1.6946  -16.8997  -43.2706 H         1 UNK         0.0600 
    169 H169       -1.5280  -13.4767  -42.1349 H         1 UNK         0.3000 
    170 H170       -3.9961  -10.9015  -41.6822 H         1 UNK         0.0600 
    171 H171       -4.4523  -12.5682  -39.8660 H         1 UNK         0.0600 
    172 H172       -2.7216  -12.7830  -39.6264 H         1 UNK         0.0600 
    173 H173       -3.4783  -11.2275  -39.2868 H         1 UNK         0.0600 
    174 H174       -1.1243  -11.5988  -41.7778 H         1 UNK         0.3000 
    175 H175       -0.2790   -8.1810  -41.7460 H         1 UNK         0.0600 
    176 H176        0.3532   -9.9919  -39.3536 H         1 UNK         0.0600 
    177 H177        1.2762   -8.5723  -39.8504 H         1 UNK         0.0600 
    178 H178       -0.3662   -8.3892  -39.2581 H         1 UNK         0.0600 
    179 H179        1.3608  -10.5226  -41.5224 H         1 UNK         0.3000 
    180 H180        1.2435  -11.6020  -44.8161 H         1 UNK         0.0600 
    181 H181        3.4917   -9.8226  -43.7480 H         1 UNK         0.0600 
    182 H182        2.6049   -9.5458  -45.2429 H         1 UNK         0.0600 
    183 H183        3.6121  -10.9742  -45.0799 H         1 UNK         0.0600 
    184 H184        3.2275  -12.2884  -43.0908 H         1 UNK         0.3000 
    185 H185        3.2581  -13.8424  -41.4859 H         1 UNK         0.0600 
    186 H186        1.5181  -13.6885  -39.6908 H         1 UNK         0.0600 
    187 H187        0.5497  -14.9110  -40.5040 H         1 UNK         0.0600 
    188 H188        2.1329  -15.3262  -39.8522 H         1 UNK         0.0600 
    189 H189        1.4844  -15.9755  -42.4625 H         1 UNK         0.3000 
    190 H190        0.3348  -22.8376  -50.0892 H         1 UNK         0.3000 
    191 H191       -1.0157  -24.8666  -51.7294 H         1 UNK         0.0600 
    192 H192       -2.5747  -22.9746  -52.2439 H         1 UNK         0.0600 
    193 H193       -0.9006  -22.5822  -52.5921 H         1 UNK         0.0600 
    194 H194       -1.6729  -21.9340  -51.1474 H         1 UNK         0.0600 
    195 H195       -1.5644  -23.0798  -48.6630 H         1 UNK         0.3000 
    196 H196       -4.1142  -24.1293  -48.0554 H         1 UNK         0.0600 
    197 H197       -3.6017  -23.3345  -45.7438 H         1 UNK         0.0600 
    198 H198       -3.1547  -22.1329  -46.9455 H         1 UNK         0.0600 
    199 H199       -1.9110  -23.1181  -46.1804 H         1 UNK         0.0600 
    200 H200       -0.8636  -25.3913  -47.2991 H         1 UNK         0.3000 
    201 H201       -1.6146  -27.6570  -45.7845 H         1 UNK         0.0600 
    202 H202        0.7090  -26.7962  -45.9415 H         1 UNK         0.0600 
    203 H203        0.7829  -27.2293  -47.6485 H         1 UNK         0.0600 
    204 H204        0.6599  -28.4857  -46.4220 H         1 UNK         0.0600 
    205 H205       -1.8018  -27.1056  -49.2512 H         1 UNK         0.3000 
    206 H206       -2.3990  -29.9488  -49.8672 H         1 UNK         0.0600 
    207 H207       -0.7821  -28.6936  -51.3158 H         1 UNK         0.0600 
    208 H208       -2.2139  -29.1766  -52.2109 H         1 UNK         0.0600 
    209 H209       -2.0308  -27.5079  -51.6882 H         1 UNK         0.0600 
    210 H210       -4.0796  -27.3185  -48.7236 H         1 UNK         0.3000 
    211 H211       -6.1271  -26.5347  -48.6623 H         1 UNK         0.0600 
    212 H212       -7.0873  -29.2016  -49.8231 H         1 UNK         0.0600 
    213 H213       -8.0529  -28.0368  -48.9291 H         1 UNK         0.0600 
    214 H214       -6.7569  -28.8986  -48.1176 H         1 UNK         0.0600 
    215 H215       -4.5125  -25.9462  -50.9593 H         1 UNK         0.3000 
    216 H216       -6.4304  -25.6200  -53.2186 H         1 UNK         0.0600 
    217 H217       -4.3512  -25.3026  -54.5367 H         1 UNK         0.0600 
    218 H218       -4.2746  -26.8140  -53.6447 H         1 UNK         0.0600 
    219 H219       -3.3732  -25.4105  -53.0777 H         1 UNK         0.0600 
    220 H220       -5.2849  -23.8358  -50.5933 H         1 UNK         0.3000 
    221 H221       -4.7974  -21.2748  -51.8548 H         1 UNK         0.0600 
    222 H222       -5.1412  -22.1062  -48.9323 H         1 UNK         0.0600 
    223 H223       -3.6269  -21.8144  -49.7926 H         1 UNK         0.0600 
    224 H224       -4.7095  -20.4879  -49.4554 H         1 UNK         0.0600 
    225 H225       -6.9879  -21.6648  -53.0578 H         1 UNK         0.3000 
    226 H226       -9.4498  -20.9717  -51.7971 H         1 UNK         0.0600 
    227 H227       -9.3110  -22.1272  -53.9897 H         1 UNK         0.0600 
    228 H228      -10.2348  -20.6413  -54.1482 H         1 UNK         0.0600 
    229 H229       -8.5729  -20.7038  -54.7241 H         1 UNK         0.0600 
    230 H230       -6.8221  -18.9811  -53.0027 H         1 UNK         0.3000 
    231 H231       -7.9242  -16.5987  -51.7476 H         1 UNK         0.0600 
    232 H232       -7.6982  -15.1844  -53.7952 H         1 UNK         0.0600 
    233 H233       -8.9297  -16.4122  -54.0312 H         1 UNK         0.0600 
    234 H234       -7.3387  -16.6108  -54.7635 H         1 UNK         0.0600 
    235 H235       -5.9836  -18.1667  -50.8546 H         1 UNK         0.3000 
    236 H236       -3.8894  -18.3852  -50.1679 H         1 UNK         0.0600 
    237 H237       -4.1090  -15.8947  -49.6666 H         1 UNK         0.0600 
    238 H238       -2.4645  -16.4342  -49.8946 H         1 UNK         0.0600 
    239 H239       -3.2783  -15.5578  -51.1825 H         1 UNK         0.0600 
    240 H240       -1.4080  -17.2517  -51.5093 H         1 UNK         0.3000 
    241 H241       -1.5899  -18.1276  -54.2571 H         1 UNK         0.0600 
    242 H242        0.2742  -16.3855  -51.7480 H         1 UNK         0.3800 
    243 H243        1.1652  -15.4847  -52.9531 H         1 UNK         0.3800 
    244 H244       -1.1122  -20.2950  -53.3944 H         1 UNK         0.0800 
    245 H245        0.3156  -19.7308  -54.1966 H         1 UNK         0.0800 
    246 H246        2.3573  -18.4196  -52.5684 H         1 UNK         0.0800 
    247 H247        2.5858  -20.0308  -53.2073 H         1 UNK         0.0800 
@<TRIPOS>BOND
     1    1    2 1    
     2    1  127 1    
     3    1  128 1    
     4    1  129 1    
     5    2    3 2    
     6    2    4 am   BACKBONE|DICT|INTERRES
     7    4    5 1    
     8    4  130 1    
     9    5    6 1    
    10    5   65 1    
    11    5  131 1    
    12    6    7 1    
    13    6  132 1    
    14    6  133 1    
    15    7    8 1    
    16    8    9 1    
    17    8  134 1    
    18    8  135 1    
    19    9   10 ar   
    20    9   14 ar   
    21   10   11 ar   
    22   10  136 1    
    23   11   12 ar   
    24   11  126 1    
    25   12   13 ar   
    26   12  137 1    
    27   13   14 ar   
    28   13   15 1    
    29   14  138 1    
    30   15   16 1    
    31   15  139 1    
    32   15  140 1    
    33   16   17 1    
    34   17   18 1    
    35   17  141 1    
    36   17  142 1    
    37   18   19 1    
    38   18   67 1    
    39   18  143 1    
    40   19   20 am   BACKBONE|DICT|INTERRES
    41   19  144 1    
    42   20   21 2    
    43   20   22 1    
    44   22   23 1    
    45   22   24 1    
    46   22  145 1    
    47   23  146 1    
    48   23  147 1    
    49   23  148 1    
    50   24   25 am   BACKBONE|DICT|INTERRES
    51   24  149 1    
    52   25   26 2    
    53   25   27 1    
    54   27   28 1    
    55   27   29 1    
    56   27  150 1    
    57   28  151 1    
    58   28  152 1    
    59   28  153 1    
    60   29   30 am   BACKBONE|DICT|INTERRES
    61   29  154 1    
    62   30   31 2    
    63   30   32 1    
    64   32   33 1    
    65   32   34 1    
    66   32  155 1    
    67   33  156 1    
    68   33  157 1    
    69   33  158 1    
    70   34   35 am   BACKBONE|DICT|INTERRES
    71   34  159 1    
    72   35   36 2    
    73   35   37 1    
    74   37   38 1    
    75   37   39 1    
    76   37  160 1    
    77   38  161 1    
    78   38  162 1    
    79   38  163 1    
    80   39   40 am   BACKBONE|DICT|INTERRES
    81   39  164 1    
    82   40   41 2    
    83   40   42 1    
    84   42   43 1    
    85   42   44 1    
    86   42  165 1    
    87   43  166 1    
    88   43  167 1    
    89   43  168 1    
    90   44   45 am   BACKBONE|DICT|INTERRES
    91   44  169 1    
    92   45   46 2    
    93   45   47 1    
    94   47   48 1    
    95   47   49 1    
    96   47  170 1    
    97   48  171 1    
    98   48  172 1    
    99   48  173 1    
   100   49   50 am   BACKBONE|DICT|INTERRES
   101   49  174 1    
   102   50   51 2    
   103   50   52 1    
   104   52   53 1    
   105   52   54 1    
   106   52  175 1    
   107   53  176 1    
   108   53  177 1    
   109   53  178 1    
   110   54   55 am   BACKBONE|DICT|INTERRES
   111   54  179 1    
   112   55   56 2    
   113   55   57 1    
   114   57   58 1    
   115   57   59 1    
   116   57  180 1    
   117   58  181 1    
   118   58  182 1    
   119   58  183 1    
   120   59   60 am   BACKBONE|DICT|INTERRES
   121   59  184 1    
   122   60   61 2    
   123   60   62 1    
   124   62   63 1    
   125   62   64 1    
   126   62  185 1    
   127   63  186 1    
   128   63  187 1    
   129   63  188 1    
   130   64   65 am   BACKBONE|DICT|INTERRES
   131   64  189 1    
   132   65   66 2    
   133   67   68 2    
   134   67   69 am   BACKBONE|DICT|INTERRES
   135   69   70 1    
   136   69  190 1    
   137   70   71 1    
   138   70   72 1    
   139   70  191 1    
   140   71  192 1    
   141   71  193 1    
   142   71  194 1    
   143   72   73 2    
   144   72   74 am   BACKBONE|DICT|INTERRES
   145   74   75 1    
   146   74  195 1    
   147   75   76 1    
   148   75   77 1    
   149   75  196 1    
   150   76  197 1    
   151   76  198 1    
   152   76  199 1    
   153   77   78 2    
   154   77   79 am   BACKBONE|DICT|INTERRES
   155   79   80 1    
   156   79  200 1    
   157   80   81 1    
   158   80   82 1    
   159   80  201 1    
   160   81  202 1    
   161   81  203 1    
   162   81  204 1    
   163   82   83 2    
   164   82   84 am   BACKBONE|DICT|INTERRES
   165   84   85 1    
   166   84  205 1    
   167   85   86 1    
   168   85   87 1    
   169   85  206 1    
   170   86  207 1    
   171   86  208 1    
   172   86  209 1    
   173   87   88 2    
   174   87   89 am   BACKBONE|DICT|INTERRES
   175   89   90 1    
   176   89  210 1    
   177   90   91 1    
   178   90   92 1    
   179   90  211 1    
   180   91  212 1    
   181   91  213 1    
   182   91  214 1    
   183   92   93 2    
   184   92   94 am   BACKBONE|DICT|INTERRES
   185   94   95 1    
   186   94  215 1    
   187   95   96 1    
   188   95   97 1    
   189   95  216 1    
   190   96  217 1    
   191   96  218 1    
   192   96  219 1    
   193   97   98 2    
   194   97   99 am   BACKBONE|DICT|INTERRES
   195   99  100 1    
   196   99  220 1    
   197  100  101 1    
   198  100  102 1    
   199  100  221 1    
   200  101  222 1    
   201  101  223 1    
   202  101  224 1    
   203  102  103 2    
   204  102  104 am   BACKBONE|DICT|INTERRES
   205  104  105 1    
   206  104  225 1    
   207  105  106 1    
   208  105  107 1    
   209  105  226 1    
   210  106  227 1    
   211  106  228 1    
   212  106  229 1    
   213  107  108 2    
   214  107  109 am   BACKBONE|DICT|INTERRES
   215  109  110 1    
   216  109  230 1    
   217  110  111 1    
   218  110  112 1    
   219  110  231 1    
   220  111  232 1    
   221  111  233 1    
   222  111  234 1    
   223  112  113 2    
   224  112  114 am   BACKBONE|DICT|INTERRES
   225  114  115 1    
   226  114  235 1    
   227  115  116 1    
   228  115  117 1    
   229  115  236 1    
   230  116  237 1    
   231  116  238 1    
   232  116  239 1    
   233  117  118 2    
   234  117  119 am   BACKBONE|DICT|INTERRES
   235  119  120 1    
   236  119  240 1    
   237  120  121 1    
   238  120  124 1    
   239  120  241 1    
   240  121  122 am   BACKBONE|DICT|INTERRES
   241  121  123 2    
   242  122  242 1    
   243  122  243 1    
   244  124  125 1    
   245  124  244 1    
   246  124  245 1    
   247  125  126 1    
   248  126  246 1    
   249  126  247 1    
@<TRIPOS>SUBSTRUCTURE
     1 UNK         1 GROUP             0       ****    0 ROOT    
