@<TRIPOS>MOLECULE
3R540
247   249    1
SMALL
USER_CHARGES


@<TRIPOS>ATOM
      1 CA         -0.0466  -10.9800  -47.7499 C.3       0 UNK        -0.1800 
      2 C          -0.3342  -12.3991  -48.2193 C.2       0 UNK         0.5000 
      3 O          -1.1677  -12.5875  -49.1028 O.2       0 UNK        -0.5000 
      4 N           0.3219  -13.3866  -47.5952 N.am      1 UNK        -0.5000 
      5 CA          0.2813  -14.8455  -47.8042 C.3       1 UNK         0.1400 
      6 C6          0.8992  -15.3411  -49.1405 C.3       23 UNK        -0.0398 
      7 S7         -0.1493  -15.2487  -50.6368 S.3       23 UNK        -0.2404 
      8 C8         -0.9005  -16.9081  -50.7011 C.3       23 UNK        -0.0205 
      9 C9          0.1164  -18.0021  -50.9873 C.ar      23 UNK        -0.0193 
     10 C10         0.5887  -18.1895  -52.2868 C.ar      23 UNK        -0.1150 
     11 C11         1.5015  -19.2069  -52.5712 C.ar      23 UNK        -0.0193 
     12 C12         1.9376  -20.0428  -51.5383 C.ar      23 UNK        -0.1150 
     13 C13         1.4840  -19.8662  -50.2250 C.ar      23 UNK        -0.0193 
     14 C14         0.5696  -18.8368  -49.9613 C.ar      23 UNK        -0.1150 
     15 C15         2.0063  -20.8246  -49.1494 C.3       23 UNK        -0.0205 
     16 S16         1.7682  -20.3259  -47.4047 S.3       23 UNK        -0.2404 
     17 C17         0.0338  -20.7952  -47.0803 C.3       23 UNK        -0.0398 
     18 CA         -0.1906  -22.3156  -46.8943 C.3       11 UNK         0.1400 
     19 N           0.6934  -22.9323  -45.9017 N.am      11 UNK        -0.5000 
     20 C           0.8944  -24.2548  -45.7981 C.2       10 UNK         0.5000 
     21 O           0.3595  -25.0842  -46.5326 O.2       10 UNK        -0.5000 
     22 CA          1.8006  -24.7370  -44.6508 C.3       10 UNK         0.1400 
     23 CB          3.2797  -24.6252  -45.0488 C.3       10 UNK        -0.1800 
     24 N           1.5757  -23.9972  -43.4098 N.am      10 UNK        -0.5000 
     25 C           0.4196  -23.9745  -42.7311 C.2       9 UNK         0.5000 
     26 O          -0.5637  -24.6471  -43.0366 O.2       9 UNK        -0.5000 
     27 CA          0.3256  -22.9879  -41.5518 C.3       9 UNK         0.1400 
     28 CB          0.6878  -23.6880  -40.2341 C.3       9 UNK        -0.1800 
     29 N           1.1716  -21.8021  -41.7207 N.am      9 UNK        -0.5000 
     30 C           1.0464  -20.9066  -42.7089 C.2       8 UNK         0.5000 
     31 O           0.1881  -20.9714  -43.5947 O.2       8 UNK        -0.5000 
     32 CA          2.0997  -19.7953  -42.7459 C.3       8 UNK         0.1400 
     33 CB          3.3975  -20.2988  -43.4025 C.3       8 UNK        -0.1800 
     34 N           1.5754  -18.6695  -43.5078 N.am      8 UNK        -0.5000 
     35 C           1.9024  -17.3910  -43.3063 C.2       7 UNK         0.5000 
     36 O           2.6927  -17.0162  -42.4362 O.2       7 UNK        -0.5000 
     37 CA          1.2016  -16.3650  -44.2134 C.3       7 UNK         0.1400 
     38 CB         -0.2070  -16.0500  -43.6876 C.3       7 UNK        -0.1800 
     39 N           1.9723  -15.1243  -44.3088 N.am      7 UNK        -0.5000 
     40 C           3.0689  -14.9820  -45.0687 C.2       6 UNK         0.5000 
     41 O           3.4679  -15.8483  -45.8475 O.2       6 UNK        -0.5000 
     42 CA          3.8462  -13.6527  -44.9769 C.3       6 UNK         0.1400 
     43 CB          3.5130  -12.7438  -46.1701 C.3       6 UNK        -0.1800 
     44 N           3.5881  -12.9134  -43.7439 N.am      6 UNK        -0.5000 
     45 C           4.0691  -13.2367  -42.5364 C.2       5 UNK         0.5000 
     46 O           4.8731  -14.1490  -42.3440 O.2       5 UNK        -0.5000 
     47 CA          3.5682  -12.3999  -41.3399 C.3       5 UNK         0.1400 
     48 CB          4.6619  -11.4294  -40.8668 C.3       5 UNK        -0.1800 
     49 N           2.3437  -11.6351  -41.6087 N.am      5 UNK        -0.5000 
     50 C           1.1423  -12.1668  -41.8726 C.2       4 UNK         0.5000 
     51 O           0.9428  -13.3820  -41.9235 O.2       4 UNK        -0.5000 
     52 CA         -0.0146  -11.1711  -42.1052 C.3       4 UNK         0.1400 
     53 CB          0.3908   -9.9861  -43.0116 C.3       4 UNK        -0.1800 
     54 N          -1.2359  -11.8140  -42.6055 N.am      4 UNK        -0.5000 
     55 C          -1.4195  -12.4044  -43.7947 C.2       3 UNK         0.5000 
     56 O          -0.5582  -12.4794  -44.6778 O.2       3 UNK        -0.5000 
     57 CA         -2.8186  -12.9975  -44.0360 C.3       3 UNK         0.1400 
     58 CB         -3.9094  -11.9084  -44.0063 C.3       3 UNK        -0.1800 
     59 N          -2.8309  -13.6637  -45.3314 N.am      3 UNK        -0.5000 
     60 C          -3.6867  -14.6075  -45.7421 C.2       2 UNK         0.5000 
     61 O          -4.5961  -15.0552  -45.0432 O.2       2 UNK        -0.5000 
     62 CA         -3.5042  -15.1319  -47.1813 C.3       2 UNK         0.1400 
     63 CB         -4.5476  -14.5000  -48.1147 C.3       2 UNK        -0.1800 
     64 N          -2.1749  -14.8274  -47.7044 N.am      2 UNK        -0.5000 
     65 C          -1.0614  -15.5149  -47.4376 C.2       1 UNK         0.5000 
     66 O          -1.0595  -16.6114  -46.8782 O.2       1 UNK        -0.5000 
     67 C          -1.6709  -22.5907  -46.5776 C.2       11 UNK         0.5000 
     68 O          -2.4624  -22.7542  -47.5048 O.2       11 UNK        -0.5000 
     69 N          -2.0210  -22.6515  -45.2857 N.am      12 UNK        -0.5000 
     70 CA         -3.3559  -23.0276  -44.8220 C.3       12 UNK         0.1400 
     71 CB         -3.5029  -22.6960  -43.3296 C.3       12 UNK        -0.1800 
     72 C          -3.6619  -24.5106  -45.1026 C.2       12 UNK         0.5000 
     73 O          -4.7420  -24.8199  -45.6046 O.2       12 UNK        -0.5000 
     74 N          -2.6906  -25.3909  -44.8192 N.am      13 UNK        -0.5000 
     75 CA         -2.7628  -26.8332  -45.0639 C.3       13 UNK         0.1400 
     76 CB         -1.5577  -27.5236  -44.4075 C.3       13 UNK        -0.1800 
     77 C          -2.8452  -27.1902  -46.5598 C.2       13 UNK         0.5000 
     78 O          -3.6265  -28.0658  -46.9328 O.2       13 UNK        -0.5000 
     79 N          -2.0621  -26.4891  -47.3915 N.am      14 UNK        -0.5000 
     80 CA         -2.0654  -26.6246  -48.8511 C.3       14 UNK         0.1400 
     81 CB         -0.7744  -26.0017  -49.4073 C.3       14 UNK        -0.1800 
     82 C          -3.2915  -25.9789  -49.5283 C.2       14 UNK         0.5000 
     83 O          -3.5232  -26.2302  -50.7106 O.2       14 UNK        -0.5000 
     84 N          -4.0160  -25.1286  -48.7853 N.am      15 UNK        -0.5000 
     85 CA         -5.1212  -24.2594  -49.2076 C.3       15 UNK         0.1400 
     86 CB         -6.2897  -25.0635  -49.8119 C.3       15 UNK        -0.1800 
     87 C          -4.6806  -23.0927  -50.1164 C.2       15 UNK         0.5000 
     88 O          -5.5321  -22.3560  -50.6120 O.2       15 UNK        -0.5000 
     89 N          -3.3647  -22.8926  -50.2647 N.am      16 UNK        -0.5000 
     90 CA         -2.7180  -21.7980  -50.9898 C.3       16 UNK         0.1400 
     91 CB         -1.2052  -22.0533  -50.9936 C.3       16 UNK        -0.1800 
     92 C          -3.0189  -20.4093  -50.3948 C.2       16 UNK         0.5000 
     93 O          -2.9824  -19.4142  -51.1147 O.2       16 UNK        -0.5000 
     94 N          -3.3503  -20.3694  -49.0964 N.am      17 UNK        -0.5000 
     95 CA         -3.8451  -19.1814  -48.4005 C.3       17 UNK         0.1400 
     96 CB         -3.8824  -19.4679  -46.8915 C.3       17 UNK        -0.1800 
     97 C          -5.2272  -18.7037  -48.9011 C.2       17 UNK         0.5000 
     98 O          -5.5707  -17.5442  -48.6763 O.2       17 UNK        -0.5000 
     99 N          -5.9910  -19.5867  -49.5606 N.am      18 UNK        -0.5000 
    100 CA        -7.2830  -19.2823  -50.1729 C.3       18 UNK         0.1400 
    101 CB        -8.3289  -20.2941  -49.6758 C.3       18 UNK        -0.1800 
    102 C         -7.1826  -19.3099  -51.7072 C.2       18 UNK         0.5000 
    103 O         -7.6428  -18.3747  -52.3635 O.2       18 UNK        -0.5000 
    104 N         -6.5939  -20.3804  -52.2553 N.am      19 UNK        -0.5000 
    105 CA        -6.4208  -20.6024  -53.6862 C.3       19 UNK         0.1400 
    106 CB        -6.2231  -22.1070  -53.9393 C.3       19 UNK        -0.1800 
    107 C         -5.2310  -19.7930  -54.2246 C.2       19 UNK         0.5000 
    108 O         -4.0824  -20.1476  -53.9573 O.2       19 UNK        -0.5000 
    109 N         -5.5207  -18.7504  -55.0147 N.am      20 UNK        -0.5000 
    110 CA        -4.5374  -17.8525  -55.6368 C.3       20 UNK         0.1400 
    111 CB        -5.2867  -16.7071  -56.3351 C.3       20 UNK        -0.1800 
    112 C         -3.5642  -18.5405  -56.6201 C.2       20 UNK         0.5000 
    113 O         -2.5057  -17.9850  -56.9139 O.2       20 UNK        -0.5000 
    114 N         -3.9261  -19.7422  -57.0903 N.am      21 UNK        -0.5000 
    115 CA        -3.0831  -20.6375  -57.8848 C.3       21 UNK         0.1400 
    116 CB        -3.9915  -21.6634  -58.5824 C.3       21 UNK        -0.1800 
    117 C         -1.9858  -21.3526  -57.0622 C.2       21 UNK         0.5000 
    118 O         -1.1546  -22.0412  -57.6554 O.2       21 UNK        -0.5000 
    119 N         -2.0055  -21.1965  -55.7301 N.am      22 UNK        -0.5000 
    120 CA        -1.0784  -21.7952  -54.7529 C.3       22 UNK         0.1400 
    121 C         -1.3195  -23.3154  -54.5031 C.2       22 UNK         0.5000 
    122 N         -2.4807  -23.8628  -54.8419 N.am      22 UNK        -0.7600 
    123 O         -0.4552  -24.0103  -53.9763 O.2       22 UNK        -0.5000 
    124 C124        0.4233  -21.4630  -55.0001 C.3       23 UNK        -0.0398 
    125 S125        0.7564  -19.6808  -55.2240 S.3       23 UNK        -0.2404 
    126 C126        2.0527  -19.3630  -53.9825 C.3       23 UNK        -0.0205 
    127 H127       -0.9737  -10.4895  -47.4529 H         1 UNK         0.0600 
    128 H128        0.4045  -10.4019  -48.5562 H         1 UNK         0.0600 
    129 H129        0.6301  -10.9616  -46.8954 H         1 UNK         0.0600 
    130 H130        0.9013  -13.1115  -46.8154 H         1 UNK         0.3000 
    131 H131        0.9643  -15.2057  -47.0371 H         1 UNK         0.0600 
    132 H132        1.8067  -14.7717  -49.3448 H         1 UNK         0.0800 
    133 H133        1.2431  -16.3669  -49.0137 H         1 UNK         0.0800 
    134 H134       -1.6595  -16.9164  -51.4849 H         1 UNK         0.0800 
    135 H135       -1.4341  -17.1144  -49.7738 H         1 UNK         0.0800 
    136 H136        0.2468  -17.5384  -53.0792 H         1 UNK         0.1150 
    137 H137        2.6458  -20.8304  -51.7549 H         1 UNK         0.1150 
    138 H138        0.2027  -18.6659  -48.9613 H         1 UNK         0.1150 
    139 H139        1.5732  -21.8115  -49.3107 H         1 UNK         0.0800 
    140 H140        3.0808  -20.9450  -49.2959 H         1 UNK         0.0800 
    141 H141       -0.5940  -20.4274  -47.8921 H         1 UNK         0.0800 
    142 H142       -0.2842  -20.2514  -46.1891 H         1 UNK         0.0800 
    143 H143        0.0160  -22.7986  -47.8506 H         1 UNK         0.0600 
    144 H144        1.1178  -22.3085  -45.2301 H         1 UNK         0.3000 
    145 H145        1.5722  -25.7882  -44.4634 H         1 UNK         0.0600 
    146 H146        3.9286  -25.0336  -44.2738 H         1 UNK         0.0600 
    147 H147        3.4797  -25.1820  -45.9653 H         1 UNK         0.0600 
    148 H148        3.5744  -23.5894  -45.2229 H         1 UNK         0.0600 
    149 H149        2.3342  -23.4194  -43.0805 H         1 UNK         0.3000 
    150 H150       -0.7110  -22.6511  -41.4877 H         1 UNK         0.0600 
    151 H151        1.7250  -24.0255  -40.2284 H         1 UNK         0.0600 
    152 H152        0.0568  -24.5630  -40.0710 H         1 UNK         0.0600 
    153 H153        0.5452  -23.0235  -39.3817 H         1 UNK         0.0600 
    154 H154        1.9077  -21.6792  -41.0399 H         1 UNK         0.3000 
    155 H155        2.3027  -19.4854  -41.7185 H         1 UNK         0.0600 
    156 H156        3.2278  -20.6242  -44.4300 H         1 UNK         0.0600 
    157 H157        3.8179  -21.1423  -42.8539 H         1 UNK         0.0600 
    158 H158        4.1573  -19.5172  -43.4230 H         1 UNK         0.0600 
    159 H159        0.8676  -18.9190  -44.1867 H         1 UNK         0.3000 
    160 H160        1.1074  -16.8003  -45.2102 H         1 UNK         0.0600 
    161 H161       -0.1835  -15.6658  -42.6677 H         1 UNK         0.0600 
    162 H162       -0.8337  -16.9425  -43.6883 H         1 UNK         0.0600 
    163 H163       -0.7017  -15.3110  -44.3153 H         1 UNK         0.0600 
    164 H164        1.7304  -14.3988  -43.6436 H         1 UNK         0.3000 
    165 H165        4.9099  -13.8963  -45.0219 H         1 UNK         0.0600 
    166 H166        4.1810  -11.8829  -46.2038 H         1 UNK         0.0600 
    167 H167        3.6216  -13.2745  -47.1172 H         1 UNK         0.0600 
    168 H168        2.4923  -12.3683  -46.1127 H         1 UNK         0.0600 
    169 H169        2.9408  -12.1417  -43.8037 H         1 UNK         0.3000 
    170 H170        3.3547  -13.0976  -40.5274 H         1 UNK         0.0600 
    171 H171        5.5812  -11.9637  -40.6229 H         1 UNK         0.0600 
    172 H172        4.9043  -10.6927  -41.6337 H         1 UNK         0.0600 
    173 H173        4.3533  -10.8930  -39.9694 H         1 UNK         0.0600 
    174 H174        2.4323  -10.6297  -41.5778 H         1 UNK         0.3000 
    175 H175       -0.2707  -10.7673  -41.1247 H         1 UNK         0.0600 
    176 H176        1.1417   -9.3563  -42.5340 H         1 UNK         0.0600 
    177 H177        0.8028  -10.3217  -43.9639 H         1 UNK         0.0600 
    178 H178       -0.4653   -9.3469  -43.2278 H         1 UNK         0.0600 
    179 H179       -1.9993  -11.8404  -41.9447 H         1 UNK         0.3000 
    180 H180       -3.0099  -13.7351  -43.2540 H         1 UNK         0.0600 
    181 H181       -3.7310  -11.1450  -44.7646 H         1 UNK         0.0600 
    182 H182       -3.9491  -11.4082  -43.0384 H         1 UNK         0.0600 
    183 H183       -4.8981  -12.3309  -44.1857 H         1 UNK         0.0600 
    184 H184       -2.0640  -13.3947  -45.9339 H         1 UNK         0.3000 
    185 H185       -3.6506  -16.2132  -47.1693 H         1 UNK         0.0600 
    186 H186       -5.5600  -14.7259  -47.7774 H         1 UNK         0.0600 
    187 H187       -4.4471  -13.4147  -48.1574 H         1 UNK         0.0600 
    188 H188       -4.4516  -14.8870  -49.1294 H         1 UNK         0.0600 
    189 H189       -2.0684  -13.9609  -48.2271 H         1 UNK         0.3000 
    190 H190       -1.3174  -22.4728  -44.5811 H         1 UNK         0.3000 
    191 H191       -4.0853  -22.4280  -45.3706 H         1 UNK         0.0600 
    192 H192       -3.2997  -21.6421  -43.1381 H         1 UNK         0.0600 
    193 H193       -4.5176  -22.9000  -42.9860 H         1 UNK         0.0600 
    194 H194       -2.8260  -23.2854  -42.7120 H         1 UNK         0.0600 
    195 H195       -1.8504  -25.0555  -44.3547 H         1 UNK         0.3000 
    196 H196       -3.6700  -27.2063  -44.5842 H         1 UNK         0.0600 
    197 H197       -1.5946  -28.6032  -44.5582 H         1 UNK         0.0600 
    198 H198       -1.5396  -27.3455  -43.3322 H         1 UNK         0.0600 
    199 H199       -0.6144  -27.1652  -44.8209 H         1 UNK         0.0600 
    200 H200       -1.3865  -25.8389  -46.9995 H         1 UNK         0.3000 
    201 H201       -2.0707  -27.6870  -49.1034 H         1 UNK         0.0600 
    202 H202       -0.7216  -26.1046  -50.4921 H         1 UNK         0.0600 
    203 H203        0.1083  -26.4891  -48.9931 H         1 UNK         0.0600 
    204 H204       -0.7090  -24.9380  -49.1752 H         1 UNK         0.0600 
    205 H205       -3.7225  -24.9958  -47.8263 H         1 UNK         0.3000 
    206 H206       -5.4878  -23.7940  -48.2916 H         1 UNK         0.0600 
    207 H207       -6.5823  -25.8855  -49.1587 H         1 UNK         0.0600 
    208 H208       -7.1670  -24.4302  -49.9489 H         1 UNK         0.0600 
    209 H209       -6.0379  -25.4797  -50.7874 H         1 UNK         0.0600 
    210 H210       -2.7539  -23.4989  -49.7374 H         1 UNK         0.3000 
    211 H211       -3.0847  -21.8119  -52.0176 H         1 UNK         0.0600 
    212 H212       -0.7970  -22.0378  -49.9840 H         1 UNK         0.0600 
    213 H213       -0.6839  -21.2881  -51.5681 H         1 UNK         0.0600 
    214 H214       -0.9637  -23.0192  -51.4364 H         1 UNK         0.0600 
    215 H215       -3.3131  -21.2343  -48.5677 H         1 UNK         0.3000 
    216 H216       -3.1374  -18.3686  -48.5739 H         1 UNK         0.0600 
    217 H217       -4.2455  -18.6018  -46.3367 H         1 UNK         0.0600 
    218 H218       -2.8888  -19.6996  -46.5085 H         1 UNK         0.0600 
    219 H219       -4.5389  -20.3068  -46.6585 H         1 UNK         0.0600 
    220 H220       -5.6235  -20.5141  -49.7372 H         1 UNK         0.3000 
    221 H221       -7.6221  -18.2853  -49.8841 H         1 UNK         0.0600 
    222 H222       -8.0518  -21.3204  -49.9198 H         1 UNK         0.0600 
    223 H223       -8.4513  -20.2306  -48.5945 H         1 UNK         0.0600 
    224 H224       -9.3036  -20.1006  -50.1255 H         1 UNK         0.0600 
    225 H225       -6.2216  -21.1080  -51.6476 H         1 UNK         0.3000 
    226 H226       -7.3303  -20.2935  -54.2059 H         1 UNK         0.0600 
    227 H227       -6.1022  -22.3122  -55.0035 H         1 UNK         0.0600 
    228 H228       -5.3400  -22.4924  -53.4275 H         1 UNK         0.0600 
    229 H229       -7.0830  -22.6801  -53.5922 H         1 UNK         0.0600 
    230 H230       -6.4918  -18.5215  -55.1729 H         1 UNK         0.3000 
    231 H231       -3.9311  -17.4261  -54.8349 H         1 UNK         0.0600 
    232 H232       -5.9329  -17.0771  -57.1321 H         1 UNK         0.0600 
    233 H233       -4.5893  -15.9967  -56.7811 H         1 UNK         0.0600 
    234 H234       -5.9055  -16.1518  -55.6299 H         1 UNK         0.0600 
    235 H235       -4.8221  -20.1068  -56.8038 H         1 UNK         0.3000 
    236 H236       -2.5790  -20.0479  -58.6532 H         1 UNK         0.0600 
    237 H237       -4.7324  -21.1707  -59.2124 H         1 UNK         0.0600 
    238 H238       -3.4128  -22.3276  -59.2257 H         1 UNK         0.0600 
    239 H239       -4.5230  -22.2860  -57.8616 H         1 UNK         0.0600 
    240 H240       -2.7450  -20.6381  -55.3152 H         1 UNK         0.3000 
    241 H241       -1.3461  -21.3191  -53.8109 H         1 UNK         0.0600 
    242 H242       -3.2019  -23.3087  -55.2727 H         1 UNK         0.3800 
    243 H243       -2.6329  -24.8439  -54.6703 H         1 UNK         0.3800 
    244 H244        1.0221  -21.8253  -54.1631 H         1 UNK         0.0800 
    245 H245        0.7936  -21.9913  -55.8794 H         1 UNK         0.0800 
    246 H246        2.8046  -20.1523  -54.0295 H         1 UNK         0.0800 
    247 H247        2.5676  -18.4399  -54.2519 H         1 UNK         0.0800 
@<TRIPOS>BOND
     1    1    2 1    
     2    1  127 1    
     3    1  128 1    
     4    1  129 1    
     5    2    3 2    
     6    2    4 am   BACKBONE|DICT|INTERRES
     7    4    5 1    
     8    4  130 1    
     9    5    6 1    
    10    5   65 1    
    11    5  131 1    
    12    6    7 1    
    13    6  132 1    
    14    6  133 1    
    15    7    8 1    
    16    8    9 1    
    17    8  134 1    
    18    8  135 1    
    19    9   10 ar   
    20    9   14 ar   
    21   10   11 ar   
    22   10  136 1    
    23   11   12 ar   
    24   11  126 1    
    25   12   13 ar   
    26   12  137 1    
    27   13   14 ar   
    28   13   15 1    
    29   14  138 1    
    30   15   16 1    
    31   15  139 1    
    32   15  140 1    
    33   16   17 1    
    34   17   18 1    
    35   17  141 1    
    36   17  142 1    
    37   18   19 1    
    38   18   67 1    
    39   18  143 1    
    40   19   20 am   BACKBONE|DICT|INTERRES
    41   19  144 1    
    42   20   21 2    
    43   20   22 1    
    44   22   23 1    
    45   22   24 1    
    46   22  145 1    
    47   23  146 1    
    48   23  147 1    
    49   23  148 1    
    50   24   25 am   BACKBONE|DICT|INTERRES
    51   24  149 1    
    52   25   26 2    
    53   25   27 1    
    54   27   28 1    
    55   27   29 1    
    56   27  150 1    
    57   28  151 1    
    58   28  152 1    
    59   28  153 1    
    60   29   30 am   BACKBONE|DICT|INTERRES
    61   29  154 1    
    62   30   31 2    
    63   30   32 1    
    64   32   33 1    
    65   32   34 1    
    66   32  155 1    
    67   33  156 1    
    68   33  157 1    
    69   33  158 1    
    70   34   35 am   BACKBONE|DICT|INTERRES
    71   34  159 1    
    72   35   36 2    
    73   35   37 1    
    74   37   38 1    
    75   37   39 1    
    76   37  160 1    
    77   38  161 1    
    78   38  162 1    
    79   38  163 1    
    80   39   40 am   BACKBONE|DICT|INTERRES
    81   39  164 1    
    82   40   41 2    
    83   40   42 1    
    84   42   43 1    
    85   42   44 1    
    86   42  165 1    
    87   43  166 1    
    88   43  167 1    
    89   43  168 1    
    90   44   45 am   BACKBONE|DICT|INTERRES
    91   44  169 1    
    92   45   46 2    
    93   45   47 1    
    94   47   48 1    
    95   47   49 1    
    96   47  170 1    
    97   48  171 1    
    98   48  172 1    
    99   48  173 1    
   100   49   50 am   BACKBONE|DICT|INTERRES
   101   49  174 1    
   102   50   51 2    
   103   50   52 1    
   104   52   53 1    
   105   52   54 1    
   106   52  175 1    
   107   53  176 1    
   108   53  177 1    
   109   53  178 1    
   110   54   55 am   BACKBONE|DICT|INTERRES
   111   54  179 1    
   112   55   56 2    
   113   55   57 1    
   114   57   58 1    
   115   57   59 1    
   116   57  180 1    
   117   58  181 1    
   118   58  182 1    
   119   58  183 1    
   120   59   60 am   BACKBONE|DICT|INTERRES
   121   59  184 1    
   122   60   61 2    
   123   60   62 1    
   124   62   63 1    
   125   62   64 1    
   126   62  185 1    
   127   63  186 1    
   128   63  187 1    
   129   63  188 1    
   130   64   65 am   BACKBONE|DICT|INTERRES
   131   64  189 1    
   132   65   66 2    
   133   67   68 2    
   134   67   69 am   BACKBONE|DICT|INTERRES
   135   69   70 1    
   136   69  190 1    
   137   70   71 1    
   138   70   72 1    
   139   70  191 1    
   140   71  192 1    
   141   71  193 1    
   142   71  194 1    
   143   72   73 2    
   144   72   74 am   BACKBONE|DICT|INTERRES
   145   74   75 1    
   146   74  195 1    
   147   75   76 1    
   148   75   77 1    
   149   75  196 1    
   150   76  197 1    
   151   76  198 1    
   152   76  199 1    
   153   77   78 2    
   154   77   79 am   BACKBONE|DICT|INTERRES
   155   79   80 1    
   156   79  200 1    
   157   80   81 1    
   158   80   82 1    
   159   80  201 1    
   160   81  202 1    
   161   81  203 1    
   162   81  204 1    
   163   82   83 2    
   164   82   84 am   BACKBONE|DICT|INTERRES
   165   84   85 1    
   166   84  205 1    
   167   85   86 1    
   168   85   87 1    
   169   85  206 1    
   170   86  207 1    
   171   86  208 1    
   172   86  209 1    
   173   87   88 2    
   174   87   89 am   BACKBONE|DICT|INTERRES
   175   89   90 1    
   176   89  210 1    
   177   90   91 1    
   178   90   92 1    
   179   90  211 1    
   180   91  212 1    
   181   91  213 1    
   182   91  214 1    
   183   92   93 2    
   184   92   94 am   BACKBONE|DICT|INTERRES
   185   94   95 1    
   186   94  215 1    
   187   95   96 1    
   188   95   97 1    
   189   95  216 1    
   190   96  217 1    
   191   96  218 1    
   192   96  219 1    
   193   97   98 2    
   194   97   99 am   BACKBONE|DICT|INTERRES
   195   99  100 1    
   196   99  220 1    
   197  100  101 1    
   198  100  102 1    
   199  100  221 1    
   200  101  222 1    
   201  101  223 1    
   202  101  224 1    
   203  102  103 2    
   204  102  104 am   BACKBONE|DICT|INTERRES
   205  104  105 1    
   206  104  225 1    
   207  105  106 1    
   208  105  107 1    
   209  105  226 1    
   210  106  227 1    
   211  106  228 1    
   212  106  229 1    
   213  107  108 2    
   214  107  109 am   BACKBONE|DICT|INTERRES
   215  109  110 1    
   216  109  230 1    
   217  110  111 1    
   218  110  112 1    
   219  110  231 1    
   220  111  232 1    
   221  111  233 1    
   222  111  234 1    
   223  112  113 2    
   224  112  114 am   BACKBONE|DICT|INTERRES
   225  114  115 1    
   226  114  235 1    
   227  115  116 1    
   228  115  117 1    
   229  115  236 1    
   230  116  237 1    
   231  116  238 1    
   232  116  239 1    
   233  117  118 2    
   234  117  119 am   BACKBONE|DICT|INTERRES
   235  119  120 1    
   236  119  240 1    
   237  120  121 1    
   238  120  124 1    
   239  120  241 1    
   240  121  122 am   BACKBONE|DICT|INTERRES
   241  121  123 2    
   242  122  242 1    
   243  122  243 1    
   244  124  125 1    
   245  124  244 1    
   246  124  245 1    
   247  125  126 1    
   248  126  246 1    
   249  126  247 1    
@<TRIPOS>SUBSTRUCTURE
     1 UNK         1 GROUP             0       ****    0 ROOT    
