@<TRIPOS>MOLECULE
3R540
247   249    1
SMALL
USER_CHARGES


@<TRIPOS>ATOM
      1 CA          3.3488  -15.2325  -44.8849 C.3       0 UNK        -0.1800 
      2 C           2.1397  -14.4181  -45.3200 C.2       0 UNK         0.5000 
      3 O           1.7900  -13.4354  -44.6652 O.2       0 UNK        -0.5000 
      4 N           1.5056  -14.8007  -46.4367 N.am      1 UNK        -0.5000 
      5 CA          0.2912  -14.1728  -46.9795 C.3       1 UNK         0.1400 
      6 C6         -0.3426  -15.0093  -48.1136 C.3       23 UNK        -0.0398 
      7 S7         -1.0173  -16.5734  -47.4702 S.3       23 UNK        -0.2404 
      8 C8         -2.0018  -17.1359  -48.8930 C.3       23 UNK        -0.0205 
      9 C9         -1.1272  -17.7172  -49.9923 C.ar      23 UNK        -0.0193 
     10 C10        -0.9767  -17.0482  -51.2103 C.ar      23 UNK        -0.1150 
     11 C11        -0.2217  -17.6167  -52.2407 C.ar      23 UNK        -0.0193 
     12 C12         0.4064  -18.8485  -52.0357 C.ar      23 UNK        -0.1150 
     13 C13         0.2591  -19.5294  -50.8253 C.ar      23 UNK        -0.0193 
     14 C14        -0.5077  -18.9560  -49.8076 C.ar      23 UNK        -0.1150 
     15 C15         0.8302  -20.9302  -50.6709 C.3       23 UNK        -0.0205 
     16 S16         1.7586  -21.1905  -49.1283 S.3       23 UNK        -0.2404 
     17 C17         1.5629  -23.0045  -48.9588 C.3       23 UNK        -0.0398 
     18 CA          0.6143  -23.4420  -47.8165 C.3       11 UNK         0.1400 
     19 N           1.1657  -23.0687  -46.5106 N.am      11 UNK        -0.5000 
     20 C           0.7106  -23.4558  -45.3146 C.2       10 UNK         0.5000 
     21 O          -0.2313  -24.2355  -45.1765 O.2       10 UNK        -0.5000 
     22 CA          1.3503  -22.8088  -44.0711 C.3       10 UNK         0.1400 
     23 CB          2.5787  -23.6041  -43.5946 C.3       10 UNK        -0.1800 
     24 N           1.6565  -21.3783  -44.2226 N.am      10 UNK        -0.5000 
     25 C           2.5696  -20.7797  -45.0047 C.2       9 UNK         0.5000 
     26 O           3.3103  -21.3777  -45.7850 O.2       9 UNK        -0.5000 
     27 CA          2.6597  -19.2473  -44.8978 C.3       9 UNK         0.1400 
     28 CB          1.5417  -18.5897  -45.7226 C.3       9 UNK        -0.1800 
     29 N           2.5857  -18.7852  -43.5115 N.am      9 UNK        -0.5000 
     30 C           3.4956  -19.0596  -42.5637 C.2       8 UNK         0.5000 
     31 O           4.5497  -19.6600  -42.7757 O.2       8 UNK        -0.5000 
     32 CA          3.1608  -18.6094  -41.1319 C.3       8 UNK         0.1400 
     33 CB          3.6288  -17.1666  -40.8889 C.3       8 UNK        -0.1800 
     34 N           1.7270  -18.7190  -40.8594 N.am      8 UNK        -0.5000 
     35 C           1.1113  -19.8613  -40.5204 C.2       7 UNK         0.5000 
     36 O           1.7013  -20.9252  -40.3312 O.2       7 UNK        -0.5000 
     37 CA         -0.4232  -19.8173  -40.3779 C.3       7 UNK         0.1400 
     38 CB         -0.8192  -19.5054  -38.9270 C.3       7 UNK        -0.1800 
     39 N          -1.0598  -18.8438  -41.2665 N.am      7 UNK        -0.5000 
     40 C          -1.1176  -18.9559  -42.6005 C.2       6 UNK         0.5000 
     41 O          -0.6617  -19.9151  -43.2241 O.2       6 UNK        -0.5000 
     42 CA         -1.7432  -17.7705  -43.3654 C.3       6 UNK         0.1400 
     43 CB         -3.2656  -17.9440  -43.4750 C.3       6 UNK        -0.1800 
     44 N          -1.4557  -16.4591  -42.7719 N.am      6 UNK        -0.5000 
     45 C          -0.2324  -15.9682  -42.5365 C.2       5 UNK         0.5000 
     46 O           0.8043  -16.5787  -42.8009 O.2       5 UNK        -0.5000 
     47 CA         -0.1722  -14.5702  -41.9004 C.3       5 UNK         0.1400 
     48 CB          1.2111  -14.2448  -41.3103 C.3       5 UNK        -0.1800 
     49 N          -0.5051  -13.5588  -42.8961 N.am      5 UNK        -0.5000 
     50 C          -1.7299  -13.0671  -43.1214 C.2       4 UNK         0.5000 
     51 O          -2.7327  -13.4706  -42.5295 O.2       4 UNK        -0.5000 
     52 CA         -1.8622  -11.9579  -44.1910 C.3       4 UNK         0.1400 
     53 CB         -3.0038  -10.9676  -43.8817 C.3       4 UNK        -0.1800 
     54 N          -0.6093  -11.2426  -44.4678 N.am      4 UNK        -0.5000 
     55 C           0.1207  -10.4924  -43.6249 C.2       3 UNK         0.5000 
     56 O          -0.2240  -10.2322  -42.4716 O.2       3 UNK        -0.5000 
     57 CA          1.4782   -9.9684  -44.1431 C.3       3 UNK         0.1400 
     58 CB          2.6016  -10.2540  -43.1309 C.3       3 UNK        -0.1800 
     59 N           1.8423  -10.5921  -45.4164 N.am      3 UNK        -0.5000 
     60 C           1.8630   -9.9875  -46.6121 C.2       2 UNK         0.5000 
     61 O           1.6545   -8.7851  -46.7757 O.2       2 UNK        -0.5000 
     62 CA          2.1337  -10.8836  -47.8419 C.3       2 UNK         0.1400 
     63 CB          3.6198  -10.8314  -48.2271 C.3       2 UNK        -0.1800 
     64 N           1.7433  -12.2832  -47.6412 N.am      2 UNK        -0.5000 
     65 C           0.4905  -12.7048  -47.4147 C.2       1 UNK         0.5000 
     66 O          -0.4887  -11.9606  -47.4596 O.2       1 UNK        -0.5000 
     67 C          -0.8402  -22.9441  -48.0198 C.2       11 UNK         0.5000 
     68 O          -1.5913  -23.5224  -48.8106 O.2       11 UNK        -0.5000 
     69 N          -1.2079  -21.8938  -47.2717 N.am      12 UNK        -0.5000 
     70 CA         -2.5571  -21.3532  -47.1540 C.3       12 UNK         0.1400 
     71 CB         -2.4821  -20.0029  -46.4315 C.3       12 UNK        -0.1800 
     72 C          -3.5001  -22.2997  -46.3911 C.2       12 UNK         0.5000 
     73 O          -4.6596  -22.4470  -46.7706 O.2       12 UNK        -0.5000 
     74 N          -2.9864  -22.9356  -45.3304 N.am      13 UNK        -0.5000 
     75 CA         -3.7240  -23.9148  -44.5340 C.3       13 UNK         0.1400 
     76 CB         -3.0655  -24.0462  -43.1517 C.3       13 UNK        -0.1800 
     77 C          -3.8022  -25.2796  -45.2404 C.2       13 UNK         0.5000 
     78 O          -4.8010  -25.9836  -45.0891 O.2       13 UNK        -0.5000 
     79 N          -2.7503  -25.6218  -45.9980 N.am      14 UNK        -0.5000 
     80 CA         -2.6146  -26.8809  -46.7265 C.3       14 UNK         0.1400 
     81 CB         -1.1870  -26.9984  -47.2815 C.3       14 UNK        -0.1800 
     82 C          -3.6451  -27.0575  -47.8564 C.2       14 UNK         0.5000 
     83 O          -4.2318  -28.1353  -47.9652 O.2       14 UNK        -0.5000 
     84 N          -3.8392  -26.0183  -48.6818 N.am      15 UNK        -0.5000 
     85 CA         -4.6828  -26.0847  -49.8776 C.3       15 UNK         0.1400 
     86 CB         -3.9602  -26.8682  -50.9962 C.3       15 UNK        -0.1800 
     87 C          -5.1276  -24.6851  -50.3307 C.2       15 UNK         0.5000 
     88 O          -4.9598  -24.3411  -51.5026 O.2       15 UNK        -0.5000 
     89 N          -5.6591  -23.8837  -49.3963 N.am      16 UNK        -0.5000 
     90 CA         -6.2108  -22.5228  -49.5508 C.3       16 UNK         0.1400 
     91 CB         -7.3907  -22.5052  -50.5424 C.3       16 UNK        -0.1800 
     92 C          -5.1745  -21.4374  -49.9125 C.2       16 UNK         0.5000 
     93 O          -5.1935  -20.3556  -49.3258 O.2       16 UNK        -0.5000 
     94 N          -4.2849  -21.7658  -50.8497 N.am      17 UNK        -0.5000 
     95 CA         -3.1382  -21.0140  -51.3385 C.3       17 UNK         0.1400 
     96 CB         -3.5593  -19.6545  -51.9328 C.3       17 UNK        -0.1800 
     97 C          -2.4302  -21.9143  -52.3617 C.2       17 UNK         0.5000 
     98 O          -2.3866  -21.5823  -53.5466 O.2       17 UNK        -0.5000 
     99 N          -1.9673  -23.0885  -51.8977 N.am      18 UNK        -0.5000 
    100 CA        -1.2754  -24.1348  -52.6722 C.3       18 UNK         0.1400 
    101 CB         0.1541  -23.6749  -53.0277 C.3       18 UNK        -0.1800 
    102 C         -2.0483  -24.6291  -53.9195 C.2       18 UNK         0.5000 
    103 O         -1.4302  -24.9968  -54.9196 O.2       18 UNK        -0.5000 
    104 N         -3.3874  -24.5867  -53.8516 N.am      19 UNK        -0.5000 
    105 CA        -4.3576  -24.8388  -54.9238 C.3       19 UNK         0.1400 
    106 CB        -4.2843  -26.3041  -55.4004 C.3       19 UNK        -0.1800 
    107 C         -4.3005  -23.8348  -56.1013 C.2       19 UNK         0.5000 
    108 O         -4.9942  -24.0429  -57.0980 O.2       19 UNK        -0.5000 
    109 N         -3.5111  -22.7577  -55.9760 N.am      20 UNK        -0.5000 
    110 CA        -3.3718  -21.6993  -56.9784 C.3       20 UNK         0.1400 
    111 CB        -1.9449  -21.1327  -56.9115 C.3       20 UNK        -0.1800 
    112 C         -4.4072  -20.5757  -56.7881 C.2       20 UNK         0.5000 
    113 O         -4.6658  -19.8327  -57.7353 O.2       20 UNK        -0.5000 
    114 N         -4.9762  -20.4748  -55.5757 N.am      21 UNK        -0.5000 
    115 CA        -6.0055  -19.5167  -55.1481 C.3       21 UNK         0.1400 
    116 CB        -7.3185  -19.7377  -55.9282 C.3       21 UNK        -0.1800 
    117 C         -5.5390  -18.0424  -55.1651 C.2       21 UNK         0.5000 
    118 O         -6.3681  -17.1372  -55.2700 O.2       21 UNK        -0.5000 
    119 N         -4.2237  -17.8239  -55.0430 N.am      22 UNK        -0.5000 
    120 CA        -3.5725  -16.5028  -55.0115 C.3       22 UNK         0.1400 
    121 C         -3.6424  -15.7577  -53.6443 C.2       22 UNK         0.5000 
    122 N         -4.2485  -16.3174  -52.6049 N.am      22 UNK        -0.7600 
    123 O         -3.1540  -14.6369  -53.5288 O.2       22 UNK        -0.5000 
    124 C124       -2.1309  -16.5609  -55.5858 C.3       23 UNK        -0.0398 
    125 S125       -1.0755  -17.8555  -54.8458 S.3       23 UNK        -0.2404 
    126 C126       -0.1224  -16.9336  -53.5949 C.3       23 UNK        -0.0205 
    127 H127        3.1382  -15.7399  -43.9445 H         1 UNK         0.0600 
    128 H128        3.6186  -15.9859  -45.6250 H         1 UNK         0.0600 
    129 H129        4.2075  -14.5784  -44.7354 H         1 UNK         0.0600 
    130 H130        1.8326  -15.6138  -46.9384 H         1 UNK         0.3000 
    131 H131       -0.4293  -14.1349  -46.1594 H         1 UNK         0.0600 
    132 H132        0.3842  -15.2225  -48.8993 H         1 UNK         0.0800 
    133 H133       -1.1618  -14.4638  -48.5862 H         1 UNK         0.0800 
    134 H134       -2.6097  -16.3123  -49.2701 H         1 UNK         0.0800 
    135 H135       -2.7075  -17.8989  -48.5624 H         1 UNK         0.0800 
    136 H136       -1.4733  -16.1012  -51.3685 H         1 UNK         0.1150 
    137 H137        0.9686  -19.2975  -52.8425 H         1 UNK         0.1150 
    138 H138       -0.6422  -19.4885  -48.8783 H         1 UNK         0.1150 
    139 H139       -0.0082  -21.6221  -50.6989 H         1 UNK         0.0800 
    140 H140        1.4761  -21.1829  -51.5130 H         1 UNK         0.0800 
    141 H141        2.5540  -23.4261  -48.7852 H         1 UNK         0.0800 
    142 H142        1.2339  -23.4419  -49.9010 H         1 UNK         0.0800 
    143 H143        0.5726  -24.5317  -47.8337 H         1 UNK         0.0600 
    144 H144        1.9601  -22.4329  -46.5204 H         1 UNK         0.3000 
    145 H145        0.6023  -22.8600  -43.2781 H         1 UNK         0.0600 
    146 H146        2.9944  -23.1740  -42.6831 H         1 UNK         0.0600 
    147 H147        2.3094  -24.6377  -43.3739 H         1 UNK         0.0600 
    148 H148        3.3687  -23.6277  -44.3455 H         1 UNK         0.0600 
    149 H149        1.0434  -20.7670  -43.6900 H         1 UNK         0.3000 
    150 H150        3.6217  -18.9307  -45.3059 H         1 UNK         0.0600 
    151 H151        1.6618  -18.8055  -46.7852 H         1 UNK         0.0600 
    152 H152        1.5449  -17.5078  -45.6055 H         1 UNK         0.0600 
    153 H153        0.5547  -18.9468  -45.4303 H         1 UNK         0.0600 
    154 H154        1.7865  -18.2122  -43.2598 H         1 UNK         0.3000 
    155 H155        3.7037  -19.2566  -40.4397 H         1 UNK         0.0600 
    156 H156        3.1730  -16.4689  -41.5900 H         1 UNK         0.0600 
    157 H157        4.7098  -17.0854  -41.0081 H         1 UNK         0.0600 
    158 H158        3.3869  -16.8364  -39.8787 H         1 UNK         0.0600 
    159 H159        1.1677  -17.9022  -41.0627 H         1 UNK         0.3000 
    160 H160       -0.8062  -20.8083  -40.6312 H         1 UNK         0.0600 
    161 H161       -1.9006  -19.5474  -38.7953 H         1 UNK         0.0600 
    162 H162       -0.4809  -18.5147  -38.6208 H         1 UNK         0.0600 
    163 H163       -0.3811  -20.2292  -38.2385 H         1 UNK         0.0600 
    164 H164       -1.4588  -18.0236  -40.8344 H         1 UNK         0.3000 
    165 H165       -1.3240  -17.7745  -44.3734 H         1 UNK         0.0600 
    166 H166       -3.5294  -18.9299  -43.8581 H         1 UNK         0.0600 
    167 H167       -3.7530  -17.8336  -42.5056 H         1 UNK         0.0600 
    168 H168       -3.6962  -17.2071  -44.1533 H         1 UNK         0.0600 
    169 H169       -2.2526  -15.8757  -42.5534 H         1 UNK         0.3000 
    170 H170       -0.8927  -14.5416  -41.0804 H         1 UNK         0.0600 
    171 H171        1.4815  -14.9617  -40.5345 H         1 UNK         0.0600 
    172 H172        1.2189  -13.2549  -40.8538 H         1 UNK         0.0600 
    173 H173        1.9945  -14.2652  -42.0683 H         1 UNK         0.0600 
    174 H174        0.2672  -13.2451  -43.4768 H         1 UNK         0.3000 
    175 H175       -2.1225  -12.4716  -45.1172 H         1 UNK         0.0600 
    176 H176       -3.0812  -10.2020  -44.6536 H         1 UNK         0.0600 
    177 H177       -3.9658  -11.4796  -43.8384 H         1 UNK         0.0600 
    178 H178       -2.8588  -10.4667  -42.9244 H         1 UNK         0.0600 
    179 H179       -0.2557  -11.3571  -45.4091 H         1 UNK         0.3000 
    180 H180        1.3837   -8.8869  -44.2569 H         1 UNK         0.0600 
    181 H181        2.7022  -11.3225  -42.9347 H         1 UNK         0.0600 
    182 H182        2.4093   -9.7607  -42.1774 H         1 UNK         0.0600 
    183 H183        3.5617   -9.8885  -43.4952 H         1 UNK         0.0600 
    184 H184        2.0092  -11.5928  -45.3684 H         1 UNK         0.3000 
    185 H185        1.5481  -10.4867  -48.6738 H         1 UNK         0.0600 
    186 H186        4.2544  -11.2364  -47.4377 H         1 UNK         0.0600 
    187 H187        3.8120  -11.3984  -49.1381 H         1 UNK         0.0600 
    188 H188        3.9398   -9.8049  -48.4113 H         1 UNK         0.0600 
    189 H189        2.4922  -12.9569  -47.5732 H         1 UNK         0.3000 
    190 H190       -0.5056  -21.4811  -46.6764 H         1 UNK         0.3000 
    191 H191       -2.9461  -21.1945  -48.1581 H         1 UNK         0.0600 
    192 H192       -1.7592  -19.3387  -46.8980 H         1 UNK         0.0600 
    193 H193       -2.1817  -20.1273  -45.3923 H         1 UNK         0.0600 
    194 H194       -3.4494  -19.4991  -46.4416 H         1 UNK         0.0600 
    195 H195       -2.0110  -22.8101  -45.1014 H         1 UNK         0.3000 
    196 H196       -4.7444  -23.5539  -44.3870 H         1 UNK         0.0600 
    197 H197       -3.6287  -24.7317  -42.5173 H         1 UNK         0.0600 
    198 H198       -3.0289  -23.0846  -42.6392 H         1 UNK         0.0600 
    199 H199       -2.0467  -24.4282  -43.2205 H         1 UNK         0.0600 
    200 H200       -1.9411  -25.0113  -45.9875 H         1 UNK         0.3000 
    201 H201       -2.7641  -27.6907  -46.0093 H         1 UNK         0.0600 
    202 H202       -0.4422  -26.8779  -46.4944 H         1 UNK         0.0600 
    203 H203       -0.9923  -26.2501  -48.0495 H         1 UNK         0.0600 
    204 H204       -1.0267  -27.9775  -47.7346 H         1 UNK         0.0600 
    205 H205       -3.3193  -25.1611  -48.5359 H         1 UNK         0.3000 
    206 H206       -5.6022  -26.6194  -49.6305 H         1 UNK         0.0600 
    207 H207       -3.7576  -27.8968  -50.6986 H         1 UNK         0.0600 
    208 H208       -4.5657  -26.9151  -51.9023 H         1 UNK         0.0600 
    209 H209       -3.0095  -26.4048  -51.2571 H         1 UNK         0.0600 
    210 H210       -5.6861  -24.2329  -48.4477 H         1 UNK         0.3000 
    211 H211       -6.6127  -22.2549  -48.5727 H         1 UNK         0.0600 
    212 H212       -7.0766  -22.7375  -51.5603 H         1 UNK         0.0600 
    213 H213       -7.8614  -21.5216  -50.5662 H         1 UNK         0.0600 
    214 H214       -8.1572  -23.2248  -50.2552 H         1 UNK         0.0600 
    215 H215       -4.4009  -22.6923  -51.2573 H         1 UNK         0.3000 
    216 H216       -2.4516  -20.8452  -50.5093 H         1 UNK         0.0600 
    217 H217       -2.7212  -19.1675  -52.4319 H         1 UNK         0.0600 
    218 H218       -3.9046  -18.9707  -51.1582 H         1 UNK         0.0600 
    219 H219       -4.3571  -19.7706  -52.6630 H         1 UNK         0.0600 
    220 H220       -2.0676  -23.2828  -50.9070 H         1 UNK         0.3000 
    221 H221       -1.1868  -24.9983  -52.0122 H         1 UNK         0.0600 
    222 H222        0.1470  -22.7937  -53.6701 H         1 UNK         0.0600 
    223 H223        0.7265  -23.4368  -52.1351 H         1 UNK         0.0600 
    224 H224        0.7057  -24.4574  -53.5500 H         1 UNK         0.0600 
    225 H225       -3.8101  -24.3209  -52.9661 H         1 UNK         0.3000 
    226 H226       -5.3370  -24.6965  -54.4650 H         1 UNK         0.0600 
    227 H227       -4.3420  -26.9953  -54.5596 H         1 UNK         0.0600 
    228 H228       -5.1127  -26.5400  -56.0692 H         1 UNK         0.0600 
    229 H229       -3.3613  -26.5099  -55.9426 H         1 UNK         0.0600 
    230 H230       -2.9852  -22.6269  -55.1170 H         1 UNK         0.3000 
    231 H231       -3.5190  -22.1200  -57.9752 H         1 UNK         0.0600 
    232 H232       -1.2028  -21.9135  -57.0790 H         1 UNK         0.0600 
    233 H233       -1.7354  -20.6757  -55.9443 H         1 UNK         0.0600 
    234 H234       -1.7913  -20.3675  -57.6734 H         1 UNK         0.0600 
    235 H235       -4.6594  -21.1246  -54.8700 H         1 UNK         0.3000 
    236 H236       -6.2164  -19.7488  -54.1038 H         1 UNK         0.0600 
    237 H237       -8.1314  -19.1482  -55.5025 H         1 UNK         0.0600 
    238 H238       -7.2223  -19.4502  -56.9754 H         1 UNK         0.0600 
    239 H239       -7.6265  -20.7827  -55.8938 H         1 UNK         0.0600 
    240 H240       -3.6037  -18.6161  -54.9542 H         1 UNK         0.3000 
    241 H241       -4.1355  -15.8591  -55.6899 H         1 UNK         0.0600 
    242 H242       -4.3045  -15.8121  -51.7359 H         1 UNK         0.3800 
    243 H243       -4.6681  -17.2271  -52.6874 H         1 UNK         0.3800 
    244 H244       -2.1924  -16.7811  -56.6523 H         1 UNK         0.0800 
    245 H245       -1.6362  -15.5900  -55.5278 H         1 UNK         0.0800 
    246 H246       -0.4712  -15.9024  -53.5256 H         1 UNK         0.0800 
    247 H247        0.9224  -16.8848  -53.9046 H         1 UNK         0.0800 
@<TRIPOS>BOND
     1    1    2 1    
     2    1  127 1    
     3    1  128 1    
     4    1  129 1    
     5    2    3 2    
     6    2    4 am   BACKBONE|DICT|INTERRES
     7    4    5 1    
     8    4  130 1    
     9    5    6 1    
    10    5   65 1    
    11    5  131 1    
    12    6    7 1    
    13    6  132 1    
    14    6  133 1    
    15    7    8 1    
    16    8    9 1    
    17    8  134 1    
    18    8  135 1    
    19    9   10 ar   
    20    9   14 ar   
    21   10   11 ar   
    22   10  136 1    
    23   11   12 ar   
    24   11  126 1    
    25   12   13 ar   
    26   12  137 1    
    27   13   14 ar   
    28   13   15 1    
    29   14  138 1    
    30   15   16 1    
    31   15  139 1    
    32   15  140 1    
    33   16   17 1    
    34   17   18 1    
    35   17  141 1    
    36   17  142 1    
    37   18   19 1    
    38   18   67 1    
    39   18  143 1    
    40   19   20 am   BACKBONE|DICT|INTERRES
    41   19  144 1    
    42   20   21 2    
    43   20   22 1    
    44   22   23 1    
    45   22   24 1    
    46   22  145 1    
    47   23  146 1    
    48   23  147 1    
    49   23  148 1    
    50   24   25 am   BACKBONE|DICT|INTERRES
    51   24  149 1    
    52   25   26 2    
    53   25   27 1    
    54   27   28 1    
    55   27   29 1    
    56   27  150 1    
    57   28  151 1    
    58   28  152 1    
    59   28  153 1    
    60   29   30 am   BACKBONE|DICT|INTERRES
    61   29  154 1    
    62   30   31 2    
    63   30   32 1    
    64   32   33 1    
    65   32   34 1    
    66   32  155 1    
    67   33  156 1    
    68   33  157 1    
    69   33  158 1    
    70   34   35 am   BACKBONE|DICT|INTERRES
    71   34  159 1    
    72   35   36 2    
    73   35   37 1    
    74   37   38 1    
    75   37   39 1    
    76   37  160 1    
    77   38  161 1    
    78   38  162 1    
    79   38  163 1    
    80   39   40 am   BACKBONE|DICT|INTERRES
    81   39  164 1    
    82   40   41 2    
    83   40   42 1    
    84   42   43 1    
    85   42   44 1    
    86   42  165 1    
    87   43  166 1    
    88   43  167 1    
    89   43  168 1    
    90   44   45 am   BACKBONE|DICT|INTERRES
    91   44  169 1    
    92   45   46 2    
    93   45   47 1    
    94   47   48 1    
    95   47   49 1    
    96   47  170 1    
    97   48  171 1    
    98   48  172 1    
    99   48  173 1    
   100   49   50 am   BACKBONE|DICT|INTERRES
   101   49  174 1    
   102   50   51 2    
   103   50   52 1    
   104   52   53 1    
   105   52   54 1    
   106   52  175 1    
   107   53  176 1    
   108   53  177 1    
   109   53  178 1    
   110   54   55 am   BACKBONE|DICT|INTERRES
   111   54  179 1    
   112   55   56 2    
   113   55   57 1    
   114   57   58 1    
   115   57   59 1    
   116   57  180 1    
   117   58  181 1    
   118   58  182 1    
   119   58  183 1    
   120   59   60 am   BACKBONE|DICT|INTERRES
   121   59  184 1    
   122   60   61 2    
   123   60   62 1    
   124   62   63 1    
   125   62   64 1    
   126   62  185 1    
   127   63  186 1    
   128   63  187 1    
   129   63  188 1    
   130   64   65 am   BACKBONE|DICT|INTERRES
   131   64  189 1    
   132   65   66 2    
   133   67   68 2    
   134   67   69 am   BACKBONE|DICT|INTERRES
   135   69   70 1    
   136   69  190 1    
   137   70   71 1    
   138   70   72 1    
   139   70  191 1    
   140   71  192 1    
   141   71  193 1    
   142   71  194 1    
   143   72   73 2    
   144   72   74 am   BACKBONE|DICT|INTERRES
   145   74   75 1    
   146   74  195 1    
   147   75   76 1    
   148   75   77 1    
   149   75  196 1    
   150   76  197 1    
   151   76  198 1    
   152   76  199 1    
   153   77   78 2    
   154   77   79 am   BACKBONE|DICT|INTERRES
   155   79   80 1    
   156   79  200 1    
   157   80   81 1    
   158   80   82 1    
   159   80  201 1    
   160   81  202 1    
   161   81  203 1    
   162   81  204 1    
   163   82   83 2    
   164   82   84 am   BACKBONE|DICT|INTERRES
   165   84   85 1    
   166   84  205 1    
   167   85   86 1    
   168   85   87 1    
   169   85  206 1    
   170   86  207 1    
   171   86  208 1    
   172   86  209 1    
   173   87   88 2    
   174   87   89 am   BACKBONE|DICT|INTERRES
   175   89   90 1    
   176   89  210 1    
   177   90   91 1    
   178   90   92 1    
   179   90  211 1    
   180   91  212 1    
   181   91  213 1    
   182   91  214 1    
   183   92   93 2    
   184   92   94 am   BACKBONE|DICT|INTERRES
   185   94   95 1    
   186   94  215 1    
   187   95   96 1    
   188   95   97 1    
   189   95  216 1    
   190   96  217 1    
   191   96  218 1    
   192   96  219 1    
   193   97   98 2    
   194   97   99 am   BACKBONE|DICT|INTERRES
   195   99  100 1    
   196   99  220 1    
   197  100  101 1    
   198  100  102 1    
   199  100  221 1    
   200  101  222 1    
   201  101  223 1    
   202  101  224 1    
   203  102  103 2    
   204  102  104 am   BACKBONE|DICT|INTERRES
   205  104  105 1    
   206  104  225 1    
   207  105  106 1    
   208  105  107 1    
   209  105  226 1    
   210  106  227 1    
   211  106  228 1    
   212  106  229 1    
   213  107  108 2    
   214  107  109 am   BACKBONE|DICT|INTERRES
   215  109  110 1    
   216  109  230 1    
   217  110  111 1    
   218  110  112 1    
   219  110  231 1    
   220  111  232 1    
   221  111  233 1    
   222  111  234 1    
   223  112  113 2    
   224  112  114 am   BACKBONE|DICT|INTERRES
   225  114  115 1    
   226  114  235 1    
   227  115  116 1    
   228  115  117 1    
   229  115  236 1    
   230  116  237 1    
   231  116  238 1    
   232  116  239 1    
   233  117  118 2    
   234  117  119 am   BACKBONE|DICT|INTERRES
   235  119  120 1    
   236  119  240 1    
   237  120  121 1    
   238  120  124 1    
   239  120  241 1    
   240  121  122 am   BACKBONE|DICT|INTERRES
   241  121  123 2    
   242  122  242 1    
   243  122  243 1    
   244  124  125 1    
   245  124  244 1    
   246  124  245 1    
   247  125  126 1    
   248  126  246 1    
   249  126  247 1    
@<TRIPOS>SUBSTRUCTURE
     1 UNK         1 GROUP             0       ****    0 ROOT    
