@<TRIPOS>MOLECULE
3R540
247   249    1
SMALL
USER_CHARGES


@<TRIPOS>ATOM
      1 CA         -2.4407  -13.8522  -53.3440 C.3       0 UNK        -0.1800 
      2 C          -2.2705  -13.9383  -51.8339 C.2       0 UNK         0.5000 
      3 O          -1.1800  -14.2573  -51.3640 O.2       0 UNK        -0.5000 
      4 N          -3.3451  -13.6567  -51.0832 N.am      1 UNK        -0.5000 
      5 CA         -3.4108  -13.6812  -49.6148 C.3       1 UNK         0.1400 
      6 C6         -4.8511  -13.3561  -49.1396 C.3       23 UNK        -0.0398 
      7 S7         -5.1261  -13.5269  -47.3425 S.3       23 UNK        -0.2404 
      8 C8         -6.0049  -15.1166  -47.2504 C.3       23 UNK        -0.0205 
      9 C9         -5.0728  -16.2885  -47.5101 C.ar      23 UNK        -0.0193 
     10 C10        -5.1096  -16.9743  -48.7291 C.ar      23 UNK        -0.1150 
     11 C11        -4.2654  -18.0668  -48.9490 C.ar      23 UNK        -0.0193 
     12 C12        -3.3686  -18.4552  -47.9531 C.ar      23 UNK        -0.1150 
     13 C13        -3.3365  -17.7893  -46.7257 C.ar      23 UNK        -0.0193 
     14 C14        -4.1867  -16.7029  -46.5117 C.ar      23 UNK        -0.1150 
     15 C15        -2.3956  -18.2565  -45.6282 C.3       23 UNK        -0.0205 
     16 S16        -3.2441  -19.2492  -44.3512 S.3       23 UNK        -0.2404 
     17 C17        -4.0558  -20.5889  -45.2996 C.3       23 UNK        -0.0398 
     18 CA         -3.0627  -21.5519  -46.0058 C.3       11 UNK         0.1400 
     19 N          -2.1307  -22.1935  -45.0792 N.am      11 UNK        -0.5000 
     20 C          -2.3551  -23.2380  -44.2688 C.2       10 UNK         0.5000 
     21 O          -3.4064  -23.8797  -44.2453 O.2       10 UNK        -0.5000 
     22 CA         -1.2083  -23.6193  -43.3078 C.3       10 UNK         0.1400 
     23 CB         -0.3057  -24.6852  -43.9450 C.3       10 UNK        -0.1800 
     24 N          -0.3846  -22.4683  -42.9277 N.am      10 UNK        -0.5000 
     25 C          -0.8271  -21.4293  -42.2075 C.2       9 UNK         0.5000 
     26 O          -1.9088  -21.4324  -41.6180 O.2       9 UNK        -0.5000 
     27 CA          0.0582  -20.1663  -42.1358 C.3       9 UNK         0.1400 
     28 CB          0.5987  -19.9795  -40.7103 C.3       9 UNK        -0.1800 
     29 N           1.1785  -20.0688  -43.0851 N.am      9 UNK        -0.5000 
     30 C           1.1083  -20.1097  -44.4258 C.2       8 UNK         0.5000 
     31 O           0.1010  -20.4515  -45.0417 O.2       8 UNK        -0.5000 
     32 CA          2.3587  -19.7048  -45.2295 C.3       8 UNK         0.1400 
     33 CB          2.0084  -18.6326  -46.2769 C.3       8 UNK        -0.1800 
     34 N           3.4179  -19.1728  -44.3734 N.am      8 UNK        -0.5000 
     35 C           4.5889  -19.7719  -44.1199 C.2       7 UNK         0.5000 
     36 O           4.9007  -20.8770  -44.5646 O.2       7 UNK        -0.5000 
     37 CA          5.5910  -19.0133  -43.2235 C.3       7 UNK         0.1400 
     38 CB          6.6865  -18.3609  -44.0810 C.3       7 UNK        -0.1800 
     39 N           4.9719  -17.9805  -42.3900 N.am      7 UNK        -0.5000 
     40 C           4.1510  -18.2197  -41.3591 C.2       6 UNK         0.5000 
     41 O           3.8604  -19.3503  -40.9696 O.2       6 UNK        -0.5000 
     42 CA          3.5156  -16.9927  -40.6758 C.3       6 UNK         0.1400 
     43 CB          4.3615  -16.5577  -39.4697 C.3       6 UNK        -0.1800 
     44 N           3.3098  -15.8376  -41.5574 N.am      6 UNK        -0.5000 
     45 C           2.5829  -15.8249  -42.6841 C.2       5 UNK         0.5000 
     46 O           2.0704  -16.8279  -43.1855 O.2       5 UNK        -0.5000 
     47 CA          2.4753  -14.4618  -43.3937 C.3       5 UNK         0.1400 
     48 CB          3.6725  -14.2646  -44.3369 C.3       5 UNK        -0.1800 
     49 N           1.2429  -14.2775  -44.1630 N.am      5 UNK        -0.5000 
     50 C          -0.0084  -14.3345  -43.6841 C.2       4 UNK         0.5000 
     51 O          -0.2915  -14.6164  -42.5177 O.2       4 UNK        -0.5000 
     52 CA         -1.1123  -13.9224  -44.6841 C.3       4 UNK         0.1400 
     53 CB         -2.5356  -14.0139  -44.0966 C.3       4 UNK        -0.1800 
     54 N          -0.8626  -12.5865  -45.2456 N.am      4 UNK        -0.5000 
     55 C          -0.6963  -11.4384  -44.5642 C.2       3 UNK         0.5000 
     56 O          -0.8363  -11.3390  -43.3446 O.2       3 UNK        -0.5000 
     57 CA         -0.2639  -10.1854  -45.3538 C.3       3 UNK         0.1400 
     58 CB          1.1851   -9.8101  -45.0003 C.3       3 UNK        -0.1800 
     59 N          -0.3544  -10.3460  -46.8044 N.am      3 UNK        -0.5000 
     60 C          -1.4679  -10.1754  -47.5263 C.2       2 UNK         0.5000 
     61 O          -2.5487   -9.8320  -47.0440 O.2       2 UNK        -0.5000 
     62 CA         -1.3717  -10.4435  -49.0448 C.3       2 UNK         0.1400 
     63 CB          0.0576  -10.7449  -49.5511 C.3       2 UNK        -0.1800 
     64 N          -2.2854  -11.5080  -49.4666 N.am      2 UNK        -0.5000 
     65 C          -2.3597  -12.7519  -48.9655 C.2       1 UNK         0.5000 
     66 O          -1.6301  -13.1825  -48.0691 O.2       1 UNK        -0.5000 
     67 C          -3.7245  -22.5794  -46.9485 C.2       11 UNK         0.5000 
     68 O          -3.0149  -23.2070  -47.7346 O.2       11 UNK        -0.5000 
     69 N          -5.0451  -22.7775  -46.8393 N.am      12 UNK        -0.5000 
     70 CA         -5.8281  -23.7074  -47.6561 C.3       12 UNK         0.1400 
     71 CB         -7.3154  -23.5365  -47.3135 C.3       12 UNK        -0.1800 
     72 C          -5.4106  -25.1889  -47.5372 C.2       12 UNK         0.5000 
     73 O          -5.6779  -25.9534  -48.4643 O.2       12 UNK        -0.5000 
     74 N          -4.7518  -25.5726  -46.4319 N.am      13 UNK        -0.5000 
     75 CA         -4.2038  -26.9187  -46.2407 C.3       13 UNK         0.1400 
     76 CB         -3.9277  -27.1597  -44.7490 C.3       13 UNK        -0.1800 
     77 C          -2.9321  -27.1645  -47.0768 C.2       13 UNK         0.5000 
     78 O          -2.6914  -28.3001  -47.4878 O.2       13 UNK        -0.5000 
     79 N          -2.1536  -26.1022  -47.3248 N.am      14 UNK        -0.5000 
     80 CA         -0.9909  -26.1139  -48.2155 C.3       14 UNK         0.1400 
     81 CB          0.0572  -25.1291  -47.6796 C.3       14 UNK        -0.1800 
     82 C          -1.3777  -25.7756  -49.6675 C.2       14 UNK         0.5000 
     83 O          -0.6793  -26.1909  -50.5930 O.2       14 UNK        -0.5000 
     84 N          -2.4862  -25.0423  -49.8389 N.am      15 UNK        -0.5000 
     85 CA         -3.0810  -24.6063  -51.0998 C.3       15 UNK         0.1400 
     86 CB         -3.5847  -25.8183  -51.9164 C.3       15 UNK        -0.1800 
     87 C          -2.1248  -23.6663  -51.8574 C.2       15 UNK         0.5000 
     88 O          -1.6778  -22.6736  -51.2786 O.2       15 UNK        -0.5000 
     89 N          -1.7976  -23.9990  -53.1129 N.am      16 UNK        -0.5000 
     90 CA         -0.9080  -23.2340  -53.9900 C.3       16 UNK         0.1400 
     91 CB         -0.8529  -23.9166  -55.3643 C.3       16 UNK        -0.1800 
     92 C           0.5147  -23.0198  -53.4321 C.2       16 UNK         0.5000 
     93 O           1.1725  -22.0552  -53.8229 O.2       16 UNK        -0.5000 
     94 N           0.9570  -23.9003  -52.5212 N.am      17 UNK        -0.5000 
     95 CA          2.2335  -23.7880  -51.8162 C.3       17 UNK         0.1400 
     96 CB          2.5973  -25.1448  -51.1954 C.3       17 UNK        -0.1800 
     97 C           2.2490  -22.6713  -50.7522 C.2       17 UNK         0.5000 
     98 O           3.3307  -22.1724  -50.4392 O.2       17 UNK        -0.5000 
     99 N           1.0758  -22.2811  -50.2277 N.am      18 UNK        -0.5000 
    100 CA         0.9302  -21.0984  -49.3775 C.3       18 UNK         0.1400 
    101 CB        -0.2891  -21.2334  -48.4537 C.3       18 UNK        -0.1800 
    102 C          0.8282  -19.8370  -50.2456 C.2       18 UNK         0.5000 
    103 O          1.6287  -18.9170  -50.0761 O.2       18 UNK        -0.5000 
    104 N         -0.1254  -19.8393  -51.1844 N.am      19 UNK        -0.5000 
    105 CA        -0.3086  -18.7987  -52.1885 C.3       19 UNK         0.1400 
    106 CB        -0.9083  -17.5261  -51.5661 C.3       19 UNK        -0.1800 
    107 C         -1.2202  -19.3327  -53.2951 C.2       19 UNK         0.5000 
    108 O         -2.1683  -20.0648  -53.0027 O.2       19 UNK        -0.5000 
    109 N         -0.9472  -18.9185  -54.5398 N.am      20 UNK        -0.5000 
    110 CA        -1.6397  -19.3495  -55.7605 C.3       20 UNK         0.1400 
    111 CB        -0.9767  -18.6809  -56.9737 C.3       20 UNK        -0.1800 
    112 C         -3.1588  -19.0892  -55.7675 C.2       20 UNK         0.5000 
    113 O         -3.8933  -19.8249  -56.4274 O.2       20 UNK        -0.5000 
    114 N         -3.6091  -18.0922  -54.9920 N.am      21 UNK        -0.5000 
    115 CA        -5.0184  -17.7766  -54.7425 C.3       21 UNK         0.1400 
    116 CB        -5.0975  -16.5034  -53.8849 C.3       21 UNK        -0.1800 
    117 C         -5.8149  -18.9260  -54.0866 C.2       21 UNK         0.5000 
    118 O         -7.0326  -18.9860  -54.2614 O.2       21 UNK        -0.5000 
    119 N         -5.1187  -19.8213  -53.3743 N.am      22 UNK        -0.5000 
    120 CA        -5.6666  -21.0613  -52.8061 C.3       22 UNK         0.1400 
    121 C         -5.4482  -22.3024  -53.7229 C.2       22 UNK         0.5000 
    122 N         -4.9044  -22.1738  -54.9280 N.am      22 UNK        -0.7600 
    123 O         -5.7961  -23.4148  -53.3388 O.2       22 UNK        -0.5000 
    124 C124       -5.1228  -21.3159  -51.3781 C.3       23 UNK        -0.0398 
    125 S125       -5.6814  -20.0821  -50.1601 S.3       23 UNK        -0.2404 
    126 C126       -4.3383  -18.8602  -50.2409 C.3       23 UNK        -0.0205 
    127 H127       -2.2490  -14.8237  -53.7992 H         1 UNK         0.0600 
    128 H128       -1.7332  -13.1349  -53.7600 H         1 UNK         0.0600 
    129 H129       -3.4464  -13.5368  -53.6227 H         1 UNK         0.0600 
    130 H130       -4.2024  -13.3992  -51.5506 H         1 UNK         0.3000 
    131 H131       -3.1737  -14.7015  -49.3056 H         1 UNK         0.0600 
    132 H132       -5.1208  -12.3363  -49.4190 H         1 UNK         0.0800 
    133 H133       -5.5622  -13.9976  -49.6615 H         1 UNK         0.0800 
    134 H134       -6.4390  -15.2191  -46.2547 H         1 UNK         0.0800 
    135 H135       -6.8443  -15.1200  -47.9475 H         1 UNK         0.0800 
    136 H136       -5.8068  -16.6740  -49.4985 H         1 UNK         0.1150 
    137 H137       -2.7140  -19.2944  -48.1319 H         1 UNK         0.1150 
    138 H138       -4.1667  -16.1849  -45.5633 H         1 UNK         0.1150 
    139 H139       -1.5733  -18.8279  -46.0565 H         1 UNK         0.0800 
    140 H140       -1.9368  -17.3904  -45.1493 H         1 UNK         0.0800 
    141 H141       -4.6835  -21.1423  -44.5995 H         1 UNK         0.0800 
    142 H142       -4.7332  -20.1285  -46.0208 H         1 UNK         0.0800 
    143 H143       -2.4346  -20.9491  -46.6557 H         1 UNK         0.0600 
    144 H144       -1.2359  -21.7151  -45.0024 H         1 UNK         0.3000 
    145 H145       -1.6574  -24.0391  -42.4055 H         1 UNK         0.0600 
    146 H146        0.4240  -25.0618  -43.2281 H         1 UNK         0.0600 
    147 H147       -0.8856  -25.5389  -44.2976 H         1 UNK         0.0600 
    148 H148        0.2409  -24.2818  -44.7972 H         1 UNK         0.0600 
    149 H149        0.5136  -22.3795  -43.3790 H         1 UNK         0.3000 
    150 H150       -0.6034  -19.3254  -42.3534 H         1 UNK         0.0600 
    151 H151       -0.1965  -20.0584  -39.9677 H         1 UNK         0.0600 
    152 H152        1.0459  -18.9950  -40.5905 H         1 UNK         0.0600 
    153 H153        1.3535  -20.7278  -40.4658 H         1 UNK         0.0600 
    154 H154        2.0678  -19.8121  -42.6801 H         1 UNK         0.3000 
    155 H155        2.6989  -20.5972  -45.7581 H         1 UNK         0.0600 
    156 H156        2.8820  -18.3609  -46.8696 H         1 UNK         0.0600 
    157 H157        1.6246  -17.7247  -45.8098 H         1 UNK         0.0600 
    158 H158        1.2485  -18.9877  -46.9722 H         1 UNK         0.0600 
    159 H159        3.2117  -18.2790  -43.9372 H         1 UNK         0.3000 
    160 H160        6.0617  -19.7464  -42.5651 H         1 UNK         0.0600 
    161 H161        6.2754  -17.6049  -44.7514 H         1 UNK         0.0600 
    162 H162        7.1960  -19.1034  -44.6967 H         1 UNK         0.0600 
    163 H163        7.4434  -17.8833  -43.4586 H         1 UNK         0.0600 
    164 H164        5.1539  -17.0210  -42.6444 H         1 UNK         0.3000 
    165 H165        2.5347  -17.2932  -40.3064 H         1 UNK         0.0600 
    166 H166        5.3468  -16.2037  -39.7758 H         1 UNK         0.0600 
    167 H167        3.8741  -15.7572  -38.9127 H         1 UNK         0.0600 
    168 H168        4.5113  -17.3873  -38.7773 H         1 UNK         0.0600 
    169 H169        3.7167  -14.9693  -41.2403 H         1 UNK         0.3000 
    170 H170        2.4979  -13.6787  -42.6333 H         1 UNK         0.0600 
    171 H171        4.6177  -14.3516  -43.7993 H         1 UNK         0.0600 
    172 H172        3.6803  -15.0080  -45.1354 H         1 UNK         0.0600 
    173 H173        3.6549  -13.2766  -44.7975 H         1 UNK         0.0600 
    174 H174        1.3639  -14.0390  -45.1358 H         1 UNK         0.3000 
    175 H175       -1.0582  -14.6257  -45.5167 H         1 UNK         0.0600 
    176 H176       -3.2848  -13.7576  -44.8454 H         1 UNK         0.0600 
    177 H177       -2.7505  -15.0269  -43.7548 H         1 UNK         0.0600 
    178 H178       -2.6703  -13.3458  -43.2457 H         1 UNK         0.0600 
    179 H179       -0.7990  -12.5564  -46.2577 H         1 UNK         0.3000 
    180 H180       -0.9121   -9.3631  -45.0435 H         1 UNK         0.0600 
    181 H181        1.4921   -8.8966  -45.5100 H         1 UNK         0.0600 
    182 H182        1.2949   -9.6339  -43.9294 H         1 UNK         0.0600 
    183 H183        1.8845  -10.6007  -45.2753 H         1 UNK         0.0600 
    184 H184        0.4862  -10.6411  -47.2795 H         1 UNK         0.3000 
    185 H185       -1.7094   -9.5297  -49.5356 H         1 UNK         0.0600 
    186 H186        0.0654  -10.8652  -50.6346 H         1 UNK         0.0600 
    187 H187        0.7420   -9.9283  -49.3177 H         1 UNK         0.0600 
    188 H188        0.4642  -11.6607  -49.1204 H         1 UNK         0.0600 
    189 H189       -2.9325  -11.2573  -50.2000 H         1 UNK         0.3000 
    190 H190       -5.5609  -22.2638  -46.1409 H         1 UNK         0.3000 
    191 H191       -5.6864  -23.4196  -48.6998 H         1 UNK         0.0600 
    192 H192       -7.9363  -24.1921  -47.9257 H         1 UNK         0.0600 
    193 H193       -7.6476  -22.5144  -47.4970 H         1 UNK         0.0600 
    194 H194       -7.5168  -23.7750  -46.2685 H         1 UNK         0.0600 
    195 H195       -4.5454  -24.8891  -45.7108 H         1 UNK         0.3000 
    196 H196       -4.9553  -27.6439  -46.5604 H         1 UNK         0.0600 
    197 H197       -3.6064  -28.1874  -44.5754 H         1 UNK         0.0600 
    198 H198       -4.8221  -26.9926  -44.1487 H         1 UNK         0.0600 
    199 H199       -3.1422  -26.5063  -44.3707 H         1 UNK         0.0600 
    200 H200       -2.4534  -25.1947  -46.9926 H         1 UNK         0.3000 
    201 H201       -0.5394  -27.1082  -48.2267 H         1 UNK         0.0600 
    202 H202        0.5238  -25.5190  -46.7759 H         1 UNK         0.0600 
    203 H203       -0.3905  -24.1671  -47.4382 H         1 UNK         0.0600 
    204 H204        0.8542  -24.9523  -48.4015 H         1 UNK         0.0600 
    205 H205       -2.8858  -24.6154  -49.0093 H         1 UNK         0.3000 
    206 H206       -3.9505  -24.0086  -50.8307 H         1 UNK         0.0600 
    207 H207       -4.2813  -26.4151  -51.3272 H         1 UNK         0.0600 
    208 H208       -4.1200  -25.4982  -52.8106 H         1 UNK         0.0600 
    209 H209       -2.7740  -26.4760  -52.2310 H         1 UNK         0.0600 
    210 H210       -2.1936  -24.8425  -53.5010 H         1 UNK         0.3000 
    211 H211       -1.3562  -22.2501  -54.1248 H         1 UNK         0.0600 
    212 H212       -0.4471  -24.9266  -55.2953 H         1 UNK         0.0600 
    213 H213       -0.2222  -23.3549  -56.0549 H         1 UNK         0.0600 
    214 H214       -1.8444  -23.9807  -55.8129 H         1 UNK         0.0600 
    215 H215        0.3483  -24.6585  -52.2411 H         1 UNK         0.3000 
    216 H216        3.0037  -23.5436  -52.5510 H         1 UNK         0.0600 
    217 H217        3.5694  -25.1004  -50.7028 H         1 UNK         0.0600 
    218 H218        2.6541  -25.9240  -51.9556 H         1 UNK         0.0600 
    219 H219        1.8680  -25.4579  -50.4501 H         1 UNK         0.0600 
    220 H220        0.2162  -22.6926  -50.5753 H         1 UNK         0.3000 
    221 H221        1.8106  -20.9942  -48.7393 H         1 UNK         0.0600 
    222 H222       -1.1948  -21.5011  -48.9969 H         1 UNK         0.0600 
    223 H223       -0.1171  -21.9852  -47.6867 H         1 UNK         0.0600 
    224 H224       -0.4859  -20.2963  -47.9333 H         1 UNK         0.0600 
    225 H225       -0.7425  -20.6406  -51.2820 H         1 UNK         0.3000 
    226 H226        0.6645  -18.5634  -52.6249 H         1 UNK         0.0600 
    227 H227       -0.2268  -17.0688  -50.8489 H         1 UNK         0.0600 
    228 H228       -1.1096  -16.7806  -52.3353 H         1 UNK         0.0600 
    229 H229       -1.8461  -17.7253  -51.0505 H         1 UNK         0.0600 
    230 H230       -0.1610  -18.3002  -54.6793 H         1 UNK         0.3000 
    231 H231       -1.5001  -20.4287  -55.8488 H         1 UNK         0.0600 
    232 H232       -1.4496  -18.9997  -57.9037 H         1 UNK         0.0600 
    233 H233        0.0789  -18.9446  -57.0423 H         1 UNK         0.0600 
    234 H234       -1.0502  -17.5938  -56.9238 H         1 UNK         0.0600 
    235 H235       -2.9283  -17.5486  -54.4840 H         1 UNK         0.3000 
    236 H236       -5.4870  -17.5698  -55.7068 H         1 UNK         0.0600 
    237 H237       -4.5628  -16.6158  -52.9413 H         1 UNK         0.0600 
    238 H238       -4.6728  -15.6503  -54.4132 H         1 UNK         0.0600 
    239 H239       -6.1324  -16.2523  -53.6485 H         1 UNK         0.0600 
    240 H240       -4.1106  -19.7243  -53.3038 H         1 UNK         0.3000 
    241 H241       -6.7503  -20.9647  -52.7211 H         1 UNK         0.0600 
    242 H242       -4.7937  -22.9941  -55.5011 H         1 UNK         0.3800 
    243 H243       -4.6402  -21.2688  -55.3007 H         1 UNK         0.3800 
    244 H244       -4.0341  -21.3707  -51.3813 H         1 UNK         0.0800 
    245 H245       -5.4758  -22.2776  -51.0050 H         1 UNK         0.0800 
    246 H246       -3.3895  -19.3680  -50.4203 H         1 UNK         0.0800 
    247 H247       -4.5004  -18.1912  -51.0859 H         1 UNK         0.0800 
@<TRIPOS>BOND
     1    1    2 1    
     2    1  127 1    
     3    1  128 1    
     4    1  129 1    
     5    2    3 2    
     6    2    4 am   BACKBONE|DICT|INTERRES
     7    4    5 1    
     8    4  130 1    
     9    5    6 1    
    10    5   65 1    
    11    5  131 1    
    12    6    7 1    
    13    6  132 1    
    14    6  133 1    
    15    7    8 1    
    16    8    9 1    
    17    8  134 1    
    18    8  135 1    
    19    9   10 ar   
    20    9   14 ar   
    21   10   11 ar   
    22   10  136 1    
    23   11   12 ar   
    24   11  126 1    
    25   12   13 ar   
    26   12  137 1    
    27   13   14 ar   
    28   13   15 1    
    29   14  138 1    
    30   15   16 1    
    31   15  139 1    
    32   15  140 1    
    33   16   17 1    
    34   17   18 1    
    35   17  141 1    
    36   17  142 1    
    37   18   19 1    
    38   18   67 1    
    39   18  143 1    
    40   19   20 am   BACKBONE|DICT|INTERRES
    41   19  144 1    
    42   20   21 2    
    43   20   22 1    
    44   22   23 1    
    45   22   24 1    
    46   22  145 1    
    47   23  146 1    
    48   23  147 1    
    49   23  148 1    
    50   24   25 am   BACKBONE|DICT|INTERRES
    51   24  149 1    
    52   25   26 2    
    53   25   27 1    
    54   27   28 1    
    55   27   29 1    
    56   27  150 1    
    57   28  151 1    
    58   28  152 1    
    59   28  153 1    
    60   29   30 am   BACKBONE|DICT|INTERRES
    61   29  154 1    
    62   30   31 2    
    63   30   32 1    
    64   32   33 1    
    65   32   34 1    
    66   32  155 1    
    67   33  156 1    
    68   33  157 1    
    69   33  158 1    
    70   34   35 am   BACKBONE|DICT|INTERRES
    71   34  159 1    
    72   35   36 2    
    73   35   37 1    
    74   37   38 1    
    75   37   39 1    
    76   37  160 1    
    77   38  161 1    
    78   38  162 1    
    79   38  163 1    
    80   39   40 am   BACKBONE|DICT|INTERRES
    81   39  164 1    
    82   40   41 2    
    83   40   42 1    
    84   42   43 1    
    85   42   44 1    
    86   42  165 1    
    87   43  166 1    
    88   43  167 1    
    89   43  168 1    
    90   44   45 am   BACKBONE|DICT|INTERRES
    91   44  169 1    
    92   45   46 2    
    93   45   47 1    
    94   47   48 1    
    95   47   49 1    
    96   47  170 1    
    97   48  171 1    
    98   48  172 1    
    99   48  173 1    
   100   49   50 am   BACKBONE|DICT|INTERRES
   101   49  174 1    
   102   50   51 2    
   103   50   52 1    
   104   52   53 1    
   105   52   54 1    
   106   52  175 1    
   107   53  176 1    
   108   53  177 1    
   109   53  178 1    
   110   54   55 am   BACKBONE|DICT|INTERRES
   111   54  179 1    
   112   55   56 2    
   113   55   57 1    
   114   57   58 1    
   115   57   59 1    
   116   57  180 1    
   117   58  181 1    
   118   58  182 1    
   119   58  183 1    
   120   59   60 am   BACKBONE|DICT|INTERRES
   121   59  184 1    
   122   60   61 2    
   123   60   62 1    
   124   62   63 1    
   125   62   64 1    
   126   62  185 1    
   127   63  186 1    
   128   63  187 1    
   129   63  188 1    
   130   64   65 am   BACKBONE|DICT|INTERRES
   131   64  189 1    
   132   65   66 2    
   133   67   68 2    
   134   67   69 am   BACKBONE|DICT|INTERRES
   135   69   70 1    
   136   69  190 1    
   137   70   71 1    
   138   70   72 1    
   139   70  191 1    
   140   71  192 1    
   141   71  193 1    
   142   71  194 1    
   143   72   73 2    
   144   72   74 am   BACKBONE|DICT|INTERRES
   145   74   75 1    
   146   74  195 1    
   147   75   76 1    
   148   75   77 1    
   149   75  196 1    
   150   76  197 1    
   151   76  198 1    
   152   76  199 1    
   153   77   78 2    
   154   77   79 am   BACKBONE|DICT|INTERRES
   155   79   80 1    
   156   79  200 1    
   157   80   81 1    
   158   80   82 1    
   159   80  201 1    
   160   81  202 1    
   161   81  203 1    
   162   81  204 1    
   163   82   83 2    
   164   82   84 am   BACKBONE|DICT|INTERRES
   165   84   85 1    
   166   84  205 1    
   167   85   86 1    
   168   85   87 1    
   169   85  206 1    
   170   86  207 1    
   171   86  208 1    
   172   86  209 1    
   173   87   88 2    
   174   87   89 am   BACKBONE|DICT|INTERRES
   175   89   90 1    
   176   89  210 1    
   177   90   91 1    
   178   90   92 1    
   179   90  211 1    
   180   91  212 1    
   181   91  213 1    
   182   91  214 1    
   183   92   93 2    
   184   92   94 am   BACKBONE|DICT|INTERRES
   185   94   95 1    
   186   94  215 1    
   187   95   96 1    
   188   95   97 1    
   189   95  216 1    
   190   96  217 1    
   191   96  218 1    
   192   96  219 1    
   193   97   98 2    
   194   97   99 am   BACKBONE|DICT|INTERRES
   195   99  100 1    
   196   99  220 1    
   197  100  101 1    
   198  100  102 1    
   199  100  221 1    
   200  101  222 1    
   201  101  223 1    
   202  101  224 1    
   203  102  103 2    
   204  102  104 am   BACKBONE|DICT|INTERRES
   205  104  105 1    
   206  104  225 1    
   207  105  106 1    
   208  105  107 1    
   209  105  226 1    
   210  106  227 1    
   211  106  228 1    
   212  106  229 1    
   213  107  108 2    
   214  107  109 am   BACKBONE|DICT|INTERRES
   215  109  110 1    
   216  109  230 1    
   217  110  111 1    
   218  110  112 1    
   219  110  231 1    
   220  111  232 1    
   221  111  233 1    
   222  111  234 1    
   223  112  113 2    
   224  112  114 am   BACKBONE|DICT|INTERRES
   225  114  115 1    
   226  114  235 1    
   227  115  116 1    
   228  115  117 1    
   229  115  236 1    
   230  116  237 1    
   231  116  238 1    
   232  116  239 1    
   233  117  118 2    
   234  117  119 am   BACKBONE|DICT|INTERRES
   235  119  120 1    
   236  119  240 1    
   237  120  121 1    
   238  120  124 1    
   239  120  241 1    
   240  121  122 am   BACKBONE|DICT|INTERRES
   241  121  123 2    
   242  122  242 1    
   243  122  243 1    
   244  124  125 1    
   245  124  244 1    
   246  124  245 1    
   247  125  126 1    
   248  126  246 1    
   249  126  247 1    
@<TRIPOS>SUBSTRUCTURE
     1 UNK         1 GROUP             0       ****    0 ROOT    
