@<TRIPOS>MOLECULE
3R540
247   249    1
SMALL
USER_CHARGES


@<TRIPOS>ATOM
      1 CA          7.5805  -16.4112  -45.6607 C.3       0 UNK        -0.1800 
      2 C           6.8377  -16.1639  -46.9661 C.2       0 UNK         0.5000 
      3 O           7.2036  -16.7247  -47.9990 O.2       0 UNK        -0.5000 
      4 N           5.7954  -15.3308  -46.9231 N.am      1 UNK        -0.5000 
      5 CA          4.9228  -15.0031  -48.0444 C.3       1 UNK         0.1400 
      6 C6          5.5401  -13.9030  -48.9427 C.3       23 UNK        -0.0398 
      7 S7          4.5862  -13.5343  -50.4533 S.3       23 UNK        -0.2404 
      8 C8          4.8453  -15.0461  -51.4348 C.3       23 UNK        -0.0205 
      9 C9          3.5657  -15.8610  -51.5685 C.ar      23 UNK        -0.0193 
     10 C10         2.5274  -15.3813  -52.3709 C.ar      23 UNK        -0.1150 
     11 C11         1.3787  -16.1456  -52.5802 C.ar      23 UNK        -0.0193 
     12 C12         1.2705  -17.3972  -51.9706 C.ar      23 UNK        -0.1150 
     13 C13         2.2889  -17.8917  -51.1458 C.ar      23 UNK        -0.0193 
     14 C14         3.4356  -17.1112  -50.9512 C.ar      23 UNK        -0.1150 
     15 C15         2.2256  -19.2940  -50.5313 C.3       23 UNK        -0.0205 
     16 S16         0.5425  -19.9998  -50.3545 S.3       23 UNK        -0.2404 
     17 C17         0.2466  -19.9505  -48.5544 C.3       23 UNK        -0.0398 
     18 CA          0.1550  -21.3740  -47.9424 C.3       11 UNK         0.1400 
     19 N           0.5153  -21.3914  -46.5224 N.am      11 UNK        -0.5000 
     20 C           0.6750  -22.4946  -45.7773 C.2       10 UNK         0.5000 
     21 O           0.5937  -23.6384  -46.2249 O.2       10 UNK        -0.5000 
     22 CA          0.9139  -22.2856  -44.2690 C.3       10 UNK         0.1400 
     23 CB          2.3884  -21.9680  -43.9802 C.3       10 UNK        -0.1800 
     24 N           0.0588  -21.2366  -43.7080 N.am      10 UNK        -0.5000 
     25 C          -1.2771  -21.3225  -43.6270 C.2       9 UNK         0.5000 
     26 O          -1.9151  -22.3225  -43.9546 O.2       9 UNK        -0.5000 
     27 CA         -2.0341  -20.0672  -43.1546 C.3       9 UNK         0.1400 
     28 CB         -2.0418  -19.9704  -41.6221 C.3       9 UNK        -0.1800 
     29 N          -1.4915  -18.8345  -43.7263 N.am      9 UNK        -0.5000 
     30 C          -1.4858  -18.5438  -45.0354 C.2       8 UNK         0.5000 
     31 O          -1.9893  -19.2598  -45.8988 O.2       8 UNK        -0.5000 
     32 CA         -0.7390  -17.2694  -45.4605 C.3       8 UNK         0.1400 
     33 CB         -1.6207  -16.0327  -45.2376 C.3       8 UNK        -0.1800 
     34 N           0.5359  -17.1169  -44.7566 N.am      8 UNK        -0.5000 
     35 C           1.5605  -17.9772  -44.8484 C.2       7 UNK         0.5000 
     36 O           1.5650  -18.9435  -45.6068 O.2       7 UNK        -0.5000 
     37 CA          2.7543  -17.7696  -43.9023 C.3       7 UNK         0.1400 
     38 CB          3.7918  -16.8255  -44.5114 C.3       7 UNK        -0.1800 
     39 N           2.3391  -17.2593  -42.5998 N.am      7 UNK        -0.5000 
     40 C           1.7284  -17.9999  -41.6671 C.2       6 UNK         0.5000 
     41 O           1.4911  -19.2016  -41.7952 O.2       6 UNK        -0.5000 
     42 CA          1.2730  -17.2541  -40.4000 C.3       6 UNK         0.1400 
     43 CB          2.4344  -17.1138  -39.4046 C.3       6 UNK        -0.1800 
     44 N           0.7250  -15.9282  -40.7000 N.am      6 UNK        -0.5000 
     45 C          -0.4229  -15.7271  -41.3615 C.2       5 UNK         0.5000 
     46 O          -1.1383  -16.6401  -41.7741 O.2       5 UNK        -0.5000 
     47 CA         -0.8263  -14.2658  -41.6339 C.3       5 UNK         0.1400 
     48 CB         -1.5842  -13.6850  -40.4308 C.3       5 UNK        -0.1800 
     49 N           0.2926  -13.3804  -41.9758 N.am      5 UNK        -0.5000 
     50 C           1.0763  -13.5209  -43.0528 C.2       4 UNK         0.5000 
     51 O           1.0254  -14.4892  -43.8128 O.2       4 UNK        -0.5000 
     52 CA          2.1035  -12.4096  -43.3159 C.3       4 UNK         0.1400 
     53 CB          3.5135  -12.8751  -42.9218 C.3       4 UNK        -0.1800 
     54 N           2.0907  -12.0719  -44.7373 N.am      4 UNK        -0.5000 
     55 C           1.3587  -11.0907  -45.2861 C.2       3 UNK         0.5000 
     56 O           0.6988  -10.2842  -44.6294 O.2       3 UNK        -0.5000 
     57 CA          1.3434  -10.9970  -46.8284 C.3       3 UNK         0.1400 
     58 CB          2.4519  -10.0558  -47.3233 C.3       3 UNK        -0.1800 
     59 N           1.5101  -12.3018  -47.4666 N.am      3 UNK        -0.5000 
     60 C           0.6080  -13.2897  -47.4220 C.2       2 UNK         0.5000 
     61 O          -0.5564  -13.1138  -47.0631 O.2       2 UNK        -0.5000 
     62 CA          1.0761  -14.7146  -47.8027 C.3       2 UNK         0.1400 
     63 CB          0.1924  -15.3250  -48.9030 C.3       2 UNK        -0.1800 
     64 N           2.4813  -14.8628  -48.2010 N.am      2 UNK        -0.5000 
     65 C           3.5618  -14.6070  -47.4521 C.2       1 UNK         0.5000 
     66 O           3.5190  -14.0668  -46.3443 O.2       1 UNK        -0.5000 
     67 C          -1.2261  -22.0228  -48.1823 C.2       11 UNK         0.5000 
     68 O          -1.3535  -22.8707  -49.0645 O.2       11 UNK        -0.5000 
     69 N          -2.2183  -21.6620  -47.3548 N.am      12 UNK        -0.5000 
     70 CA         -3.5594  -22.2470  -47.3491 C.3       12 UNK         0.1400 
     71 CB         -4.4653  -21.4771  -46.3780 C.3       12 UNK        -0.1800 
     72 C          -3.5566  -23.7499  -47.0284 C.2       12 UNK         0.5000 
     73 O          -4.2546  -24.5050  -47.7027 O.2       12 UNK        -0.5000 
     74 N          -2.7510  -24.1703  -46.0440 N.am      13 UNK        -0.5000 
     75 CA         -2.5593  -25.5771  -45.6873 C.3       13 UNK         0.1400 
     76 CB         -1.7191  -25.6813  -44.4057 C.3       13 UNK        -0.1800 
     77 C          -1.9330  -26.3996  -46.8296 C.2       13 UNK         0.5000 
     78 O          -2.3930  -27.5103  -47.0961 O.2       13 UNK        -0.5000 
     79 N          -0.9288  -25.8261  -47.5076 N.am      14 UNK        -0.5000 
     80 CA         -0.2691  -26.4156  -48.6740 C.3       14 UNK         0.1400 
     81 CB          1.0002  -25.6144  -49.0019 C.3       14 UNK        -0.1800 
     82 C          -1.1920  -26.5088  -49.9050 C.2       14 UNK         0.5000 
     83 O          -1.1695  -27.5216  -50.6054 O.2       14 UNK        -0.5000 
     84 N          -1.9958  -25.4625  -50.1375 N.am      15 UNK        -0.5000 
     85 CA         -2.9603  -25.3719  -51.2372 C.3       15 UNK         0.1400 
     86 CB         -3.3510  -23.8994  -51.4285 C.3       15 UNK        -0.1800 
     87 C          -4.2269  -26.2275  -51.0345 C.2       15 UNK         0.5000 
     88 O          -4.9516  -26.4535  -52.0041 O.2       15 UNK        -0.5000 
     89 N          -4.4721  -26.6680  -49.7916 N.am      16 UNK        -0.5000 
     90 CA         -5.6790  -27.3427  -49.3041 C.3       16 UNK         0.1400 
     91 CB         -5.9076  -28.6939  -50.0146 C.3       16 UNK        -0.1800 
     92 C          -6.9040  -26.4041  -49.3373 C.2       16 UNK         0.5000 
     93 O          -7.9678  -26.7750  -49.8382 O.2       16 UNK        -0.5000 
     94 N          -6.7075  -25.2021  -48.7785 N.am      17 UNK        -0.5000 
     95 CA         -7.6438  -24.0830  -48.6646 C.3       17 UNK         0.1400 
     96 CB         -8.8695  -24.4793  -47.8100 C.3       17 UNK        -0.1800 
     97 C          -8.0100  -23.4574  -50.0285 C.2       17 UNK         0.5000 
     98 O          -7.2702  -23.6187  -51.0024 O.2       17 UNK        -0.5000 
     99 N          -9.1281  -22.7161  -50.0504 N.am      18 UNK        -0.5000 
    100 CA        -9.6726  -21.9432  -51.1723 C.3       18 UNK         0.1400 
    101 CB       -10.0542  -22.8794  -52.3417 C.3       18 UNK        -0.1800 
    102 C         -8.7558  -20.7783  -51.6111 C.2       18 UNK         0.5000 
    103 O         -7.8013  -20.4284  -50.9123 O.2       18 UNK        -0.5000 
    104 N         -9.0745  -20.1784  -52.7654 N.am      19 UNK        -0.5000 
    105 CA        -8.3205  -19.0798  -53.3779 C.3       19 UNK         0.1400 
    106 CB        -9.2184  -18.3819  -54.4114 C.3       19 UNK        -0.1800 
    107 C         -6.9956  -19.5279  -54.0298 C.2       19 UNK         0.5000 
    108 O         -6.1898  -18.6729  -54.3993 O.2       19 UNK        -0.5000 
    109 N         -6.7909  -20.8475  -54.1551 N.am      20 UNK        -0.5000 
    110 CA        -5.6417  -21.5014  -54.7865 C.3       20 UNK         0.1400 
    111 CB        -5.8740  -23.0207  -54.7650 C.3       20 UNK        -0.1800 
    112 C         -4.2712  -21.1579  -54.1680 C.2       20 UNK         0.5000 
    113 O         -3.2580  -21.2918  -54.8548 O.2       20 UNK        -0.5000 
    114 N         -4.2611  -20.7244  -52.8999 N.am      21 UNK        -0.5000 
    115 CA        -3.0823  -20.2160  -52.2041 C.3       21 UNK         0.1400 
    116 CB        -3.3752  -20.1386  -50.6965 C.3       21 UNK        -0.1800 
    117 C         -2.6338  -18.8585  -52.7742 C.2       21 UNK         0.5000 
    118 O         -1.6146  -18.7916  -53.4601 O.2       21 UNK        -0.5000 
    119 N         -3.4032  -17.8045  -52.4801 N.am      22 UNK        -0.5000 
    120 CA        -3.0900  -16.4109  -52.8261 C.3       22 UNK         0.1400 
    121 C         -4.3689  -15.5350  -52.9743 C.2       22 UNK         0.5000 
    122 N         -5.5040  -16.0941  -53.3762 N.am      22 UNK        -0.7600 
    123 O         -4.3499  -14.3335  -52.7228 O.2       22 UNK        -0.5000 
    124 C124       -2.0086  -15.8144  -51.8741 C.3       23 UNK        -0.0398 
    125 S125       -0.9323  -14.5850  -52.6890 S.3       23 UNK        -0.2404 
    126 C126        0.2906  -15.6476  -53.5211 C.3       23 UNK        -0.0205 
    127 H127        8.6295  -16.1348  -45.7671 H         1 UNK         0.0600 
    128 H128        7.5294  -17.4670  -45.3947 H         1 UNK         0.0600 
    129 H129        7.1581  -15.8329  -44.8385 H         1 UNK         0.0600 
    130 H130        5.5023  -14.9091  -46.0498 H         1 UNK         0.3000 
    131 H131        4.7745  -15.9106  -48.6310 H         1 UNK         0.0600 
    132 H132        5.6576  -12.9761  -48.3786 H         1 UNK         0.0800 
    133 H133        6.5473  -14.1911  -49.2470 H         1 UNK         0.0800 
    134 H134        5.1855  -14.7585  -52.4307 H         1 UNK         0.0800 
    135 H135        5.6483  -15.6497  -51.0088 H         1 UNK         0.0800 
    136 H136        2.6273  -14.4206  -52.8570 H         1 UNK         0.1150 
    137 H137        0.3971  -17.9968  -52.1699 H         1 UNK         0.1150 
    138 H138        4.2465  -17.4989  -50.3505 H         1 UNK         0.1150 
    139 H139        2.7950  -19.9610  -51.1795 H         1 UNK         0.0800 
    140 H140        2.7406  -19.3038  -49.5700 H         1 UNK         0.0800 
    141 H141       -0.6557  -19.3698  -48.3558 H         1 UNK         0.0800 
    142 H142        1.0569  -19.3904  -48.0900 H         1 UNK         0.0800 
    143 H143        0.8954  -22.0034  -48.4411 H         1 UNK         0.0600 
    144 H144        0.6713  -20.4865  -46.0849 H         1 UNK         0.3000 
    145 H145        0.6675  -23.2207  -43.7620 H         1 UNK         0.0600 
    146 H146        2.5630  -21.8413  -42.9115 H         1 UNK         0.0600 
    147 H147        3.0332  -22.7783  -44.3224 H         1 UNK         0.0600 
    148 H148        2.7147  -21.0582  -44.4827 H         1 UNK         0.0600 
    149 H149        0.5155  -20.3943  -43.3801 H         1 UNK         0.3000 
    150 H150       -3.0687  -20.1594  -43.4908 H         1 UNK         0.0600 
    151 H151       -2.4735  -20.8676  -41.1770 H         1 UNK         0.0600 
    152 H152       -2.6361  -19.1210  -41.2847 H         1 UNK         0.0600 
    153 H153       -1.0363  -19.8547  -41.2180 H         1 UNK         0.0600 
    154 H154       -1.1070  -18.1581  -43.0739 H         1 UNK         0.3000 
    155 H155       -0.5209  -17.3464  -46.5275 H         1 UNK         0.0600 
    156 H156       -1.9701  -15.9624  -44.2083 H         1 UNK         0.0600 
    157 H157       -2.5020  -16.0653  -45.8790 H         1 UNK         0.0600 
    158 H158       -1.0853  -15.1136  -45.4664 H         1 UNK         0.0600 
    159 H159        0.6410  -16.2897  -44.1748 H         1 UNK         0.3000 
    160 H160        3.2329  -18.7406  -43.7592 H         1 UNK         0.0600 
    161 H161        3.4002  -15.8129  -44.5711 H         1 UNK         0.0600 
    162 H162        4.0673  -17.1430  -45.5175 H         1 UNK         0.0600 
    163 H163        4.7025  -16.7986  -43.9131 H         1 UNK         0.0600 
    164 H164        2.4499  -16.2692  -42.4401 H         1 UNK         0.3000 
    165 H165        0.4887  -17.8498  -39.9279 H         1 UNK         0.0600 
    166 H166        2.1018  -16.6544  -38.4736 H         1 UNK         0.0600 
    167 H167        2.8521  -18.0896  -39.1533 H         1 UNK         0.0600 
    168 H168        3.2434  -16.5047  -39.8098 H         1 UNK         0.0600 
    169 H169        1.2563  -15.1266  -40.3936 H         1 UNK         0.3000 
    170 H170       -1.5072  -14.2720  -42.4872 H         1 UNK         0.0600 
    171 H171       -2.4364  -14.3125  -40.1659 H         1 UNK         0.0600 
    172 H172       -0.9457  -13.6096  -39.5498 H         1 UNK         0.0600 
    173 H173       -1.9722  -12.6904  -40.6513 H         1 UNK         0.0600 
    174 H174        0.4103  -12.5656  -41.3909 H         1 UNK         0.3000 
    175 H175        1.8510  -11.5321  -42.7171 H         1 UNK         0.0600 
    176 H176        3.8311  -13.7418  -43.5016 H         1 UNK         0.0600 
    177 H177        4.2456  -12.0835  -43.0818 H         1 UNK         0.0600 
    178 H178        3.5558  -13.1497  -41.8672 H         1 UNK         0.0600 
    179 H179        2.5579  -12.7377  -45.3475 H         1 UNK         0.3000 
    180 H180        0.3790  -10.5838  -47.1311 H         1 UNK         0.0600 
    181 H181        3.4429  -10.4278  -47.0598 H         1 UNK         0.0600 
    182 H182        2.3456   -9.0630  -46.8840 H         1 UNK         0.0600 
    183 H183        2.4145   -9.9374  -48.4064 H         1 UNK         0.0600 
    184 H184        2.4456  -12.5425  -47.7588 H         1 UNK         0.3000 
    185 H185        0.9489  -15.3141  -46.9010 H         1 UNK         0.0600 
    186 H186       -0.8636  -15.2866  -48.6331 H         1 UNK         0.0600 
    187 H187        0.3111  -14.7934  -49.8475 H         1 UNK         0.0600 
    188 H188        0.4409  -16.3727  -49.0751 H         1 UNK         0.0600 
    189 H189        2.6247  -15.2439  -49.1260 H         1 UNK         0.3000 
    190 H190       -2.0484  -20.9166  -46.6827 H         1 UNK         0.3000 
    191 H191       -3.9782  -22.1356  -48.3488 H         1 UNK         0.0600 
    192 H192       -4.0973  -21.5303  -45.3538 H         1 UNK         0.0600 
    193 H193       -5.4783  -21.8814  -46.3848 H         1 UNK         0.0600 
    194 H194       -4.5329  -20.4247  -46.6545 H         1 UNK         0.0600 
    195 H195       -2.2505  -23.4826  -45.4885 H         1 UNK         0.3000 
    196 H196       -3.5438  -26.0006  -45.4780 H         1 UNK         0.0600 
    197 H197       -1.5958  -26.7221  -44.1040 H         1 UNK         0.0600 
    198 H198       -2.1968  -25.1569  -43.5780 H         1 UNK         0.0600 
    199 H199       -0.7236  -25.2585  -44.5384 H         1 UNK         0.0600 
    200 H200       -0.5813  -24.9245  -47.1941 H         1 UNK         0.3000 
    201 H201        0.0328  -27.4311  -48.4094 H         1 UNK         0.0600 
    202 H202        1.6903  -25.6076  -48.1580 H         1 UNK         0.0600 
    203 H203        0.7706  -24.5783  -49.2522 H         1 UNK         0.0600 
    204 H204        1.5282  -26.0488  -49.8516 H         1 UNK         0.0600 
    205 H205       -1.8972  -24.6342  -49.5554 H         1 UNK         0.3000 
    206 H206       -2.4729  -25.7167  -52.1513 H         1 UNK         0.0600 
    207 H207       -2.4753  -23.2795  -51.6196 H         1 UNK         0.0600 
    208 H208       -4.0262  -23.7787  -52.2758 H         1 UNK         0.0600 
    209 H209       -3.8593  -23.5064  -50.5474 H         1 UNK         0.0600 
    210 H210       -3.8199  -26.3823  -49.0728 H         1 UNK         0.3000 
    211 H211       -5.4926  -27.5605  -48.2514 H         1 UNK         0.0600 
    212 H212       -6.1771  -28.5670  -51.0632 H         1 UNK         0.0600 
    213 H213       -6.7167  -29.2483  -49.5381 H         1 UNK         0.0600 
    214 H214       -5.0153  -29.3182  -49.9696 H         1 UNK         0.0600 
    215 H215       -5.7708  -25.0008  -48.4293 H         1 UNK         0.3000 
    216 H216       -7.1015  -23.3090  -48.1198 H         1 UNK         0.0600 
    217 H217       -9.4454  -23.6049  -47.5062 H         1 UNK         0.0600 
    218 H218       -8.5620  -24.9862  -46.8952 H         1 UNK         0.0600 
    219 H219       -9.5417  -25.1471  -48.3500 H         1 UNK         0.0600 
    220 H220       -9.6389  -22.6226  -49.1843 H         1 UNK         0.3000 
    221 H221      -10.5900  -21.4845  -50.8008 H         1 UNK         0.0600 
    222 H222       -9.1751  -23.2693  -52.8558 H         1 UNK         0.0600 
    223 H223      -10.6352  -23.7312  -51.9877 H         1 UNK         0.0600 
    224 H224      -10.6677  -22.3662  -53.0825 H         1 UNK         0.0600 
    225 H225       -9.8795  -20.5076  -53.2790 H         1 UNK         0.3000 
    226 H226       -8.0695  -18.3546  -52.6008 H         1 UNK         0.0600 
    227 H227      -10.1299  -18.0018  -53.9497 H         1 UNK         0.0600 
    228 H228       -8.7075  -17.5309  -54.8640 H         1 UNK         0.0600 
    229 H229       -9.5056  -19.0584  -55.2173 H         1 UNK         0.0600 
    230 H230       -7.5079  -21.4626  -53.8010 H         1 UNK         0.3000 
    231 H231       -5.6126  -21.1736  -55.8275 H         1 UNK         0.0600 
    232 H232       -5.0396  -23.5539  -55.2227 H         1 UNK         0.0600 
    233 H233       -6.7728  -23.2905  -55.3198 H         1 UNK         0.0600 
    234 H234       -5.9846  -23.3956  -53.7464 H         1 UNK         0.0600 
    235 H235       -5.1443  -20.6561  -52.4156 H         1 UNK         0.3000 
    236 H236       -2.2600  -20.9202  -52.3482 H         1 UNK         0.0600 
    237 H237       -4.2727  -19.5603  -50.4752 H         1 UNK         0.0600 
    238 H238       -3.5168  -21.1366  -50.2897 H         1 UNK         0.0600 
    239 H239       -2.5451  -19.6841  -50.1550 H         1 UNK         0.0600 
    240 H240       -4.2515  -17.9392  -51.9492 H         1 UNK         0.3000 
    241 H241       -2.6749  -16.4304  -53.8351 H         1 UNK         0.0600 
    242 H242       -6.3208  -15.5117  -53.4676 H         1 UNK         0.3800 
    243 H243       -5.5492  -17.0609  -53.6889 H         1 UNK         0.3800 
    244 H244       -2.4725  -15.3523  -51.0014 H         1 UNK         0.0800 
    245 H245       -1.3692  -16.5974  -51.4685 H         1 UNK         0.0800 
    246 H246        0.7479  -15.0773  -54.3309 H         1 UNK         0.0800 
    247 H247       -0.2125  -16.4891  -53.9991 H         1 UNK         0.0800 
@<TRIPOS>BOND
     1    1    2 1    
     2    1  127 1    
     3    1  128 1    
     4    1  129 1    
     5    2    3 2    
     6    2    4 am   BACKBONE|DICT|INTERRES
     7    4    5 1    
     8    4  130 1    
     9    5    6 1    
    10    5   65 1    
    11    5  131 1    
    12    6    7 1    
    13    6  132 1    
    14    6  133 1    
    15    7    8 1    
    16    8    9 1    
    17    8  134 1    
    18    8  135 1    
    19    9   10 ar   
    20    9   14 ar   
    21   10   11 ar   
    22   10  136 1    
    23   11   12 ar   
    24   11  126 1    
    25   12   13 ar   
    26   12  137 1    
    27   13   14 ar   
    28   13   15 1    
    29   14  138 1    
    30   15   16 1    
    31   15  139 1    
    32   15  140 1    
    33   16   17 1    
    34   17   18 1    
    35   17  141 1    
    36   17  142 1    
    37   18   19 1    
    38   18   67 1    
    39   18  143 1    
    40   19   20 am   BACKBONE|DICT|INTERRES
    41   19  144 1    
    42   20   21 2    
    43   20   22 1    
    44   22   23 1    
    45   22   24 1    
    46   22  145 1    
    47   23  146 1    
    48   23  147 1    
    49   23  148 1    
    50   24   25 am   BACKBONE|DICT|INTERRES
    51   24  149 1    
    52   25   26 2    
    53   25   27 1    
    54   27   28 1    
    55   27   29 1    
    56   27  150 1    
    57   28  151 1    
    58   28  152 1    
    59   28  153 1    
    60   29   30 am   BACKBONE|DICT|INTERRES
    61   29  154 1    
    62   30   31 2    
    63   30   32 1    
    64   32   33 1    
    65   32   34 1    
    66   32  155 1    
    67   33  156 1    
    68   33  157 1    
    69   33  158 1    
    70   34   35 am   BACKBONE|DICT|INTERRES
    71   34  159 1    
    72   35   36 2    
    73   35   37 1    
    74   37   38 1    
    75   37   39 1    
    76   37  160 1    
    77   38  161 1    
    78   38  162 1    
    79   38  163 1    
    80   39   40 am   BACKBONE|DICT|INTERRES
    81   39  164 1    
    82   40   41 2    
    83   40   42 1    
    84   42   43 1    
    85   42   44 1    
    86   42  165 1    
    87   43  166 1    
    88   43  167 1    
    89   43  168 1    
    90   44   45 am   BACKBONE|DICT|INTERRES
    91   44  169 1    
    92   45   46 2    
    93   45   47 1    
    94   47   48 1    
    95   47   49 1    
    96   47  170 1    
    97   48  171 1    
    98   48  172 1    
    99   48  173 1    
   100   49   50 am   BACKBONE|DICT|INTERRES
   101   49  174 1    
   102   50   51 2    
   103   50   52 1    
   104   52   53 1    
   105   52   54 1    
   106   52  175 1    
   107   53  176 1    
   108   53  177 1    
   109   53  178 1    
   110   54   55 am   BACKBONE|DICT|INTERRES
   111   54  179 1    
   112   55   56 2    
   113   55   57 1    
   114   57   58 1    
   115   57   59 1    
   116   57  180 1    
   117   58  181 1    
   118   58  182 1    
   119   58  183 1    
   120   59   60 am   BACKBONE|DICT|INTERRES
   121   59  184 1    
   122   60   61 2    
   123   60   62 1    
   124   62   63 1    
   125   62   64 1    
   126   62  185 1    
   127   63  186 1    
   128   63  187 1    
   129   63  188 1    
   130   64   65 am   BACKBONE|DICT|INTERRES
   131   64  189 1    
   132   65   66 2    
   133   67   68 2    
   134   67   69 am   BACKBONE|DICT|INTERRES
   135   69   70 1    
   136   69  190 1    
   137   70   71 1    
   138   70   72 1    
   139   70  191 1    
   140   71  192 1    
   141   71  193 1    
   142   71  194 1    
   143   72   73 2    
   144   72   74 am   BACKBONE|DICT|INTERRES
   145   74   75 1    
   146   74  195 1    
   147   75   76 1    
   148   75   77 1    
   149   75  196 1    
   150   76  197 1    
   151   76  198 1    
   152   76  199 1    
   153   77   78 2    
   154   77   79 am   BACKBONE|DICT|INTERRES
   155   79   80 1    
   156   79  200 1    
   157   80   81 1    
   158   80   82 1    
   159   80  201 1    
   160   81  202 1    
   161   81  203 1    
   162   81  204 1    
   163   82   83 2    
   164   82   84 am   BACKBONE|DICT|INTERRES
   165   84   85 1    
   166   84  205 1    
   167   85   86 1    
   168   85   87 1    
   169   85  206 1    
   170   86  207 1    
   171   86  208 1    
   172   86  209 1    
   173   87   88 2    
   174   87   89 am   BACKBONE|DICT|INTERRES
   175   89   90 1    
   176   89  210 1    
   177   90   91 1    
   178   90   92 1    
   179   90  211 1    
   180   91  212 1    
   181   91  213 1    
   182   91  214 1    
   183   92   93 2    
   184   92   94 am   BACKBONE|DICT|INTERRES
   185   94   95 1    
   186   94  215 1    
   187   95   96 1    
   188   95   97 1    
   189   95  216 1    
   190   96  217 1    
   191   96  218 1    
   192   96  219 1    
   193   97   98 2    
   194   97   99 am   BACKBONE|DICT|INTERRES
   195   99  100 1    
   196   99  220 1    
   197  100  101 1    
   198  100  102 1    
   199  100  221 1    
   200  101  222 1    
   201  101  223 1    
   202  101  224 1    
   203  102  103 2    
   204  102  104 am   BACKBONE|DICT|INTERRES
   205  104  105 1    
   206  104  225 1    
   207  105  106 1    
   208  105  107 1    
   209  105  226 1    
   210  106  227 1    
   211  106  228 1    
   212  106  229 1    
   213  107  108 2    
   214  107  109 am   BACKBONE|DICT|INTERRES
   215  109  110 1    
   216  109  230 1    
   217  110  111 1    
   218  110  112 1    
   219  110  231 1    
   220  111  232 1    
   221  111  233 1    
   222  111  234 1    
   223  112  113 2    
   224  112  114 am   BACKBONE|DICT|INTERRES
   225  114  115 1    
   226  114  235 1    
   227  115  116 1    
   228  115  117 1    
   229  115  236 1    
   230  116  237 1    
   231  116  238 1    
   232  116  239 1    
   233  117  118 2    
   234  117  119 am   BACKBONE|DICT|INTERRES
   235  119  120 1    
   236  119  240 1    
   237  120  121 1    
   238  120  124 1    
   239  120  241 1    
   240  121  122 am   BACKBONE|DICT|INTERRES
   241  121  123 2    
   242  122  242 1    
   243  122  243 1    
   244  124  125 1    
   245  124  244 1    
   246  124  245 1    
   247  125  126 1    
   248  126  246 1    
   249  126  247 1    
@<TRIPOS>SUBSTRUCTURE
     1 UNK         1 GROUP             0       ****    0 ROOT    
