@<TRIPOS>MOLECULE
3R540
247   249    1
SMALL
USER_CHARGES


@<TRIPOS>ATOM
      1 CA          3.3953  -15.7145  -46.8909 C.3       0 UNK        -0.1800 
      2 C           3.0297  -14.4541  -46.1223 C.2       0 UNK         0.5000 
      3 O           3.6364  -14.1723  -45.0908 O.2       0 UNK        -0.5000 
      4 N           2.0644  -13.6776  -46.6339 N.am      1 UNK        -0.5000 
      5 CA          1.5221  -12.4532  -46.0189 C.3       1 UNK         0.1400 
      6 C6          0.3174  -11.8842  -46.8118 C.3       23 UNK        -0.0398 
      7 S7         -1.0215  -13.1071  -47.0349 S.3       23 UNK        -0.2404 
      8 C8         -0.9176  -13.4687  -48.8162 C.3       23 UNK        -0.0205 
      9 C9         -1.2746  -14.9188  -49.1033 C.ar      23 UNK        -0.0193 
     10 C10        -2.6046  -15.2991  -49.3134 C.ar      23 UNK        -0.1150 
     11 C11        -2.9240  -16.6326  -49.5922 C.ar      23 UNK        -0.0193 
     12 C12        -1.9059  -17.5877  -49.6467 C.ar      23 UNK        -0.1150 
     13 C13        -0.5752  -17.2191  -49.4381 C.ar      23 UNK        -0.0193 
     14 C14        -0.2651  -15.8831  -49.1724 C.ar      23 UNK        -0.1150 
     15 C15         0.5248  -18.2639  -49.5065 C.3       23 UNK        -0.0205 
     16 S16         1.1882  -18.6137  -47.8514 S.3       23 UNK        -0.2404 
     17 C17         1.7555  -20.3331  -48.0450 C.3       23 UNK        -0.0398 
     18 CA          0.8516  -21.3985  -47.3775 C.3       11 UNK         0.1400 
     19 N           0.8716  -21.3576  -45.9123 N.am      11 UNK        -0.5000 
     20 C           0.5385  -22.4130  -45.1543 C.2       10 UNK         0.5000 
     21 O           0.1829  -23.4963  -45.6217 O.2       10 UNK        -0.5000 
     22 CA          0.5782  -22.2328  -43.6265 C.3       10 UNK         0.1400 
     23 CB          2.0229  -22.2436  -43.1049 C.3       10 UNK        -0.1800 
     24 N          -0.1056  -21.0219  -43.1762 N.am      10 UNK        -0.5000 
     25 C          -1.4177  -20.7935  -43.3287 C.2       9 UNK         0.5000 
     26 O          -2.1941  -21.5865  -43.8598 O.2       9 UNK        -0.5000 
     27 CA         -1.9490  -19.4344  -42.8409 C.3       9 UNK         0.1400 
     28 CB         -2.1639  -19.4439  -41.3201 C.3       9 UNK        -0.1800 
     29 N          -1.0752  -18.3216  -43.2087 N.am      9 UNK        -0.5000 
     30 C          -0.7795  -17.9782  -44.4705 C.2       8 UNK         0.5000 
     31 O          -1.2396  -18.5456  -45.4581 O.2       8 UNK        -0.5000 
     32 CA          0.2343  -16.8390  -44.6556 C.3       8 UNK         0.1400 
     33 CB         -0.4255  -15.4892  -44.3507 C.3       8 UNK        -0.1800 
     34 N           1.4256  -17.0096  -43.8241 N.am      8 UNK        -0.5000 
     35 C           2.2484  -18.0693  -43.8583 C.2       7 UNK         0.5000 
     36 O           2.1337  -19.0136  -44.6392 O.2       7 UNK        -0.5000 
     37 CA          3.3530  -18.1098  -42.7904 C.3       7 UNK         0.1400 
     38 CB          4.5410  -17.2176  -43.1822 C.3       7 UNK        -0.1800 
     39 N           2.8433  -17.7169  -41.4767 N.am      7 UNK        -0.5000 
     40 C           1.9684  -18.4378  -40.7597 C.2       6 UNK         0.5000 
     41 O           1.5395  -19.5381  -41.1073 O.2       6 UNK        -0.5000 
     42 CA          1.4578  -17.8002  -39.4545 C.3       6 UNK         0.1400 
     43 CB          2.4538  -18.0366  -38.3094 C.3       6 UNK        -0.1800 
     44 N           1.2128  -16.3640  -39.5959 N.am      6 UNK        -0.5000 
     45 C           0.2422  -15.8332  -40.3538 C.2       5 UNK         0.5000 
     46 O          -0.5882  -16.5052  -40.9637 O.2       5 UNK        -0.5000 
     47 CA          0.2275  -14.2970  -40.4882 C.3       5 UNK         0.1400 
     48 CB         -0.6172  -13.6655  -39.3720 C.3       5 UNK        -0.1800 
     49 N           1.5711  -13.7093  -40.4746 N.am      5 UNK        -0.5000 
     50 C           2.5029  -13.9400  -41.4085 C.2       4 UNK         0.5000 
     51 O           2.3097  -14.6428  -42.4010 O.2       4 UNK        -0.5000 
     52 CA          3.8987  -13.3695  -41.1326 C.3       4 UNK         0.1400 
     53 CB          4.6346  -14.2849  -40.1300 C.3       4 UNK        -0.1800 
     54 N           4.6600  -13.2639  -42.3773 N.am      4 UNK        -0.5000 
     55 C           5.8366  -12.6335  -42.4973 C.2       3 UNK         0.5000 
     56 O           6.3718  -12.0049  -41.5828 O.2       3 UNK        -0.5000 
     57 CA          6.5383  -12.7066  -43.8609 C.3       3 UNK         0.1400 
     58 CB          6.9312  -14.1509  -44.2175 C.3       3 UNK        -0.1800 
     59 N           5.6935  -12.1473  -44.9115 N.am      3 UNK        -0.5000 
     60 C           5.7479  -10.8763  -45.3354 C.2       2 UNK         0.5000 
     61 O           6.5289  -10.0396  -44.8801 O.2       2 UNK        -0.5000 
     62 CA          4.7916  -10.4592  -46.4721 C.3       2 UNK         0.1400 
     63 CB          5.5410  -10.4156  -47.8130 C.3       2 UNK        -0.1800 
     64 N           3.6368  -11.3454  -46.6101 N.am      2 UNK        -0.5000 
     65 C           2.5790  -11.3513  -45.7883 C.2       1 UNK         0.5000 
     66 O           2.4269  -10.5476  -44.8676 O.2       1 UNK        -0.5000 
     67 C          -0.5850  -21.4423  -47.9435 C.2       11 UNK         0.5000 
     68 O          -0.8098  -22.1397  -48.9310 O.2       11 UNK        -0.5000 
     69 N          -1.5446  -20.7645  -47.2941 N.am      12 UNK        -0.5000 
     70 CA         -2.9670  -20.8279  -47.6404 C.3       12 UNK         0.1400 
     71 CB         -3.7500  -19.7482  -46.8805 C.3       12 UNK        -0.1800 
     72 C          -3.5800  -22.2180  -47.3931 C.2       12 UNK         0.5000 
     73 O          -4.4146  -22.6520  -48.1851 O.2       12 UNK        -0.5000 
     74 N          -3.1394  -22.9054  -46.3286 N.am      13 UNK        -0.5000 
     75 CA         -3.5141  -24.2887  -46.0296 C.3       13 UNK         0.1400 
     76 CB         -3.0807  -24.6528  -44.6019 C.3       13 UNK        -0.1800 
     77 C          -2.9385  -25.2892  -47.0487 C.2       13 UNK         0.5000 
     78 O          -3.6197  -26.2519  -47.3999 O.2       13 UNK        -0.5000 
     79 N          -1.7143  -25.0359  -47.5326 N.am      14 UNK        -0.5000 
     80 CA         -1.0833  -25.8076  -48.6054 C.3       14 UNK         0.1400 
     81 CB          0.4138  -25.4697  -48.6711 C.3       14 UNK        -0.1800 
     82 C          -1.7636  -25.5747  -49.9693 C.2       14 UNK         0.5000 
     83 O          -1.9589  -26.5260  -50.7258 O.2       14 UNK        -0.5000 
     84 N          -2.1396  -24.3188  -50.2435 N.am      15 UNK        -0.5000 
     85 CA         -2.8021  -23.8744  -51.4710 C.3       15 UNK         0.1400 
     86 CB         -2.4679  -22.3910  -51.7039 C.3       15 UNK        -0.1800 
     87 C          -4.3295  -24.0983  -51.4850 C.2       15 UNK         0.5000 
     88 O          -4.9812  -23.6772  -52.4412 O.2       15 UNK        -0.5000 
     89 N          -4.8819  -24.7588  -50.4551 N.am      16 UNK        -0.5000 
     90 CA         -6.3170  -24.9480  -50.1922 C.3       16 UNK         0.1400 
     91 CB         -6.4866  -25.6938  -48.8604 C.3       16 UNK        -0.1800 
     92 C          -7.1371  -25.6375  -51.3050 C.2       16 UNK         0.5000 
     93 O          -8.3673  -25.5969  -51.2583 O.2       16 UNK        -0.5000 
     94 N          -6.4592  -26.2208  -52.3023 N.am      17 UNK        -0.5000 
     95 CA         -7.0379  -26.6892  -53.5629 C.3       17 UNK         0.1400 
     96 CB         -5.9621  -27.4731  -54.3316 C.3       17 UNK        -0.1800 
     97 C          -7.6058  -25.5556  -54.4483 C.2       17 UNK         0.5000 
     98 O          -8.3377  -25.8503  -55.3931 O.2       17 UNK        -0.5000 
     99 N          -7.2390  -24.2952  -54.1614 N.am      18 UNK        -0.5000 
    100 CA        -7.6598  -23.0325  -54.7890 C.3       18 UNK         0.1400 
    101 CB        -9.1915  -22.8691  -54.7760 C.3       18 UNK        -0.1800 
    102 C         -7.0780  -22.7956  -56.1957 C.2       18 UNK         0.5000 
    103 O         -6.8381  -21.6469  -56.5664 O.2       18 UNK        -0.5000 
    104 N         -6.8111  -23.8755  -56.9411 N.am      19 UNK        -0.5000 
    105 CA        -6.1169  -23.8651  -58.2301 C.3       19 UNK         0.1400 
    106 CB        -6.2094  -25.2649  -58.8560 C.3       19 UNK        -0.1800 
    107 C         -4.6449  -23.4191  -58.1147 C.2       19 UNK         0.5000 
    108 O         -4.0981  -22.8777  -59.0762 O.2       19 UNK        -0.5000 
    109 N         -4.0397  -23.6466  -56.9400 N.am      20 UNK        -0.5000 
    110 CA        -2.7021  -23.1824  -56.5810 C.3       20 UNK         0.1400 
    111 CB        -2.2270  -23.9358  -55.3287 C.3       20 UNK        -0.1800 
    112 C         -2.6743  -21.6586  -56.3631 C.2       20 UNK         0.5000 
    113 O         -1.9115  -20.9619  -57.0337 O.2       20 UNK        -0.5000 
    114 N         -3.5252  -21.1748  -55.4506 N.am      21 UNK        -0.5000 
    115 CA        -3.7174  -19.7695  -55.1060 C.3       21 UNK         0.1400 
    116 CB        -2.4737  -19.2049  -54.3874 C.3       21 UNK        -0.1800 
    117 C         -4.9465  -19.6510  -54.1946 C.2       21 UNK         0.5000 
    118 O         -5.2768  -20.6095  -53.4934 O.2       21 UNK        -0.5000 
    119 N         -5.5583  -18.4611  -54.1830 N.am      22 UNK        -0.5000 
    120 CA        -6.6597  -18.0644  -53.2874 C.3       22 UNK         0.1400 
    121 C         -7.9566  -18.9077  -53.5001 C.2       22 UNK         0.5000 
    122 N         -8.7065  -19.2514  -52.4597 N.am      22 UNK        -0.7600 
    123 O         -8.3320  -19.2012  -54.6321 O.2       22 UNK        -0.5000 
    124 C124       -6.2034  -17.9329  -51.8026 C.3       23 UNK        -0.0398 
    125 S125       -4.7684  -16.8197  -51.6159 S.3       23 UNK        -0.2404 
    126 C126       -4.3610  -17.0484  -49.8595 C.3       23 UNK        -0.0205 
    127 H127        4.4602  -15.7160  -47.1221 H         1 UNK         0.0600 
    128 H128        2.8438  -15.7960  -47.8269 H         1 UNK         0.0600 
    129 H129        3.1771  -16.5966  -46.2904 H         1 UNK         0.0600 
    130 H130        1.5989  -13.9705  -47.4792 H         1 UNK         0.3000 
    131 H131        1.1667  -12.7271  -45.0249 H         1 UNK         0.0600 
    132 H132       -0.1105  -11.0314  -46.2814 H         1 UNK         0.0800 
    133 H133        0.6372  -11.5009  -47.7821 H         1 UNK         0.0800 
    134 H134       -1.5879  -12.7999  -49.3582 H         1 UNK         0.0800 
    135 H135        0.0860  -13.2626  -49.1904 H         1 UNK         0.0800 
    136 H136       -3.3890  -14.5565  -49.2711 H         1 UNK         0.1150 
    137 H137       -2.1496  -18.6183  -49.8626 H         1 UNK         0.1150 
    138 H138        0.7647  -15.5990  -49.0151 H         1 UNK         0.1150 
    139 H139        0.1396  -19.1805  -49.9560 H         1 UNK         0.0800 
    140 H140        1.3303  -17.9149  -50.1539 H         1 UNK         0.0800 
    141 H141        2.7581  -20.3964  -47.6200 H         1 UNK         0.0800 
    142 H142        1.8786  -20.5597  -49.1052 H         1 UNK         0.0800 
    143 H143        1.2989  -22.3553  -47.6568 H         1 UNK         0.0600 
    144 H144        1.1619  -20.4857  -45.4753 H         1 UNK         0.3000 
    145 H145        0.0585  -23.0851  -43.1838 H         1 UNK         0.0600 
    146 H146        2.0480  -22.2075  -42.0156 H         1 UNK         0.0600 
    147 H147        2.5418  -23.1523  -43.4122 H         1 UNK         0.0600 
    148 H148        2.5961  -21.3958  -43.4796 H         1 UNK         0.0600 
    149 H149        0.4623  -20.3260  -42.7051 H         1 UNK         0.3000 
    150 H150       -2.9161  -19.2666  -43.3191 H         1 UNK         0.0600 
    151 H151       -2.8234  -20.2605  -41.0238 H         1 UNK         0.0600 
    152 H152       -2.6236  -18.5151  -40.9820 H         1 UNK         0.0600 
    153 H153       -1.2244  -19.5669  -40.7807 H         1 UNK         0.0600 
    154 H154       -0.6916  -17.7708  -42.4463 H         1 UNK         0.3000 
    155 H155        0.5563  -16.8272  -45.6970 H         1 UNK         0.0600 
    156 H156       -0.8331  -15.4495  -43.3423 H         1 UNK         0.0600 
    157 H157       -1.2487  -15.3001  -45.0398 H         1 UNK         0.0600 
    158 H158        0.2865  -14.6747  -44.4519 H         1 UNK         0.0600 
    159 H159        1.6443  -16.2491  -43.1860 H         1 UNK         0.3000 
    160 H160        3.7127  -19.1386  -42.7206 H         1 UNK         0.0600 
    161 H161        4.2540  -16.1699  -43.2600 H         1 UNK         0.0600 
    162 H162        4.9474  -17.5143  -44.1499 H         1 UNK         0.0600 
    163 H163        5.3482  -17.2901  -42.4535 H         1 UNK         0.0600 
    164 H164        3.1022  -16.8005  -41.1461 H         1 UNK         0.3000 
    165 H165        0.5144  -18.2843  -39.1931 H         1 UNK         0.0600 
    166 H166        2.0666  -17.6532  -37.3652 H         1 UNK         0.0600 
    167 H167        2.6444  -19.1019  -38.1727 H         1 UNK         0.0600 
    168 H168        3.4127  -17.5532  -38.5005 H         1 UNK         0.0600 
    169 H169        1.8446  -15.7415  -39.1154 H         1 UNK         0.3000 
    170 H170       -0.2359  -14.0519  -41.4458 H         1 UNK         0.0600 
    171 H171       -1.6302  -14.0702  -39.3736 H         1 UNK         0.0600 
    172 H172       -0.1899  -13.8538  -38.3863 H         1 UNK         0.0600 
    173 H173       -0.6999  -12.5863  -39.5025 H         1 UNK         0.0600 
    174 H174        1.8016  -13.1296  -39.6802 H         1 UNK         0.3000 
    175 H175        3.7828  -12.3712  -40.7060 H         1 UNK         0.0600 
    176 H176        4.8260  -15.2710  -40.5548 H         1 UNK         0.0600 
    177 H177        5.5928  -13.8638  -39.8269 H         1 UNK         0.0600 
    178 H178        4.0533  -14.4265  -39.2182 H         1 UNK         0.0600 
    179 H179        4.2370  -13.7199  -43.1836 H         1 UNK         0.3000 
    180 H180        7.4646  -12.1324  -43.7883 H         1 UNK         0.0600 
    181 H181        6.0639  -14.7998  -44.3327 H         1 UNK         0.0600 
    182 H182        7.5618  -14.5851  -43.4407 H         1 UNK         0.0600 
    183 H183        7.4952  -14.1837  -45.1496 H         1 UNK         0.0600 
    184 H184        4.9664  -12.7600  -45.2664 H         1 UNK         0.3000 
    185 H185        4.4344   -9.4515  -46.2491 H         1 UNK         0.0600 
    186 H186        6.3944   -9.7380  -47.7623 H         1 UNK         0.0600 
    187 H187        5.9194  -11.3991  -48.0948 H         1 UNK         0.0600 
    188 H188        4.8941  -10.0610  -48.6156 H         1 UNK         0.0600 
    189 H189        3.6841  -12.0455  -47.3360 H         1 UNK         0.3000 
    190 H190       -1.2912  -20.1496  -46.5242 H         1 UNK         0.3000 
    191 H191       -3.0588  -20.6157  -48.7071 H         1 UNK         0.0600 
    192 H192       -3.3819  -18.7512  -47.1234 H         1 UNK         0.0600 
    193 H193       -4.8085  -19.7753  -47.1416 H         1 UNK         0.0600 
    194 H194       -3.6727  -19.8821  -45.8009 H         1 UNK         0.0600 
    195 H195       -2.5075  -22.4536  -45.6754 H         1 UNK         0.3000 
    196 H196       -4.6026  -24.3596  -46.0768 H         1 UNK         0.0600 
    197 H197       -3.3553  -25.6803  -44.3602 H         1 UNK         0.0600 
    198 H198       -3.5635  -24.0073  -43.8682 H         1 UNK         0.0600 
    199 H199       -2.0027  -24.5610  -44.4700 H         1 UNK         0.0600 
    200 H200       -1.1908  -24.2563  -47.1525 H         1 UNK         0.3000 
    201 H201       -1.1776  -26.8681  -48.3618 H         1 UNK         0.0600 
    202 H202        0.9027  -25.6563  -47.7147 H         1 UNK         0.0600 
    203 H203        0.5836  -24.4261  -48.9349 H         1 UNK         0.0600 
    204 H204        0.9175  -26.0819  -49.4201 H         1 UNK         0.0600 
    205 H205       -1.8805  -23.5846  -49.5899 H         1 UNK         0.3000 
    206 H206       -2.3905  -24.4454  -52.3046 H         1 UNK         0.0600 
    207 H207       -1.3907  -22.2291  -51.7454 H         1 UNK         0.0600 
    208 H208       -2.8839  -22.0352  -52.6466 H         1 UNK         0.0600 
    209 H209       -2.8723  -21.7613  -50.9110 H         1 UNK         0.0600 
    210 H210       -4.2609  -25.0574  -49.7167 H         1 UNK         0.3000 
    211 H211       -6.7447  -23.9508  -50.0723 H         1 UNK         0.0600 
    212 H212       -6.0036  -26.6713  -48.8843 H         1 UNK         0.0600 
    213 H213       -7.5398  -25.8521  -48.6245 H         1 UNK         0.0600 
    214 H214       -6.0580  -25.1239  -48.0365 H         1 UNK         0.0600 
    215 H215       -5.4515  -26.2009  -52.2503 H         1 UNK         0.3000 
    216 H216       -7.8615  -27.3666  -53.3292 H         1 UNK         0.0600 
    217 H217       -5.1071  -26.8435  -54.5815 H         1 UNK         0.0600 
    218 H218       -6.3597  -27.8728  -55.2655 H         1 UNK         0.0600 
    219 H219       -5.5977  -28.3189  -53.7482 H         1 UNK         0.0600 
    220 H220       -6.5533  -24.1718  -53.4196 H         1 UNK         0.3000 
    221 H221       -7.2503  -22.2477  -54.1521 H         1 UNK         0.0600 
    222 H222       -9.6865  -23.5822  -55.4353 H         1 UNK         0.0600 
    223 H223       -9.5931  -23.0016  -53.7713 H         1 UNK         0.0600 
    224 H224       -9.4740  -21.8699  -55.1097 H         1 UNK         0.0600 
    225 H225       -7.1145  -24.7742  -56.5831 H         1 UNK         0.3000 
    226 H226       -6.6284  -23.1577  -58.8861 H         1 UNK         0.0600 
    227 H227       -7.2476  -25.5624  -59.0048 H         1 UNK         0.0600 
    228 H228       -5.7216  -25.2901  -59.8313 H         1 UNK         0.0600 
    229 H229       -5.7309  -26.0185  -58.2290 H         1 UNK         0.0600 
    230 H230       -4.5751  -24.0984  -56.2145 H         1 UNK         0.3000 
    231 H231       -2.0188  -23.4190  -57.3996 H         1 UNK         0.0600 
    232 H232       -2.9302  -23.8205  -54.5047 H         1 UNK         0.0600 
    233 H233       -1.2569  -23.5683  -54.9915 H         1 UNK         0.0600 
    234 H234       -2.1204  -25.0021  -55.5284 H         1 UNK         0.0600 
    235 H235       -4.1380  -21.8010  -54.9430 H         1 UNK         0.3000 
    236 H236       -3.9036  -19.2073  -56.0232 H         1 UNK         0.0600 
    237 H237       -1.5954  -19.2103  -55.0321 H         1 UNK         0.0600 
    238 H238       -2.6352  -18.1713  -54.0784 H         1 UNK         0.0600 
    239 H239       -2.2346  -19.7778  -53.4909 H         1 UNK         0.0600 
    240 H240       -5.2268  -17.7378  -54.8041 H         1 UNK         0.3000 
    241 H241       -6.9422  -17.0633  -53.6146 H         1 UNK         0.0600 
    242 H242       -9.5547  -19.7700  -52.6256 H         1 UNK         0.3800 
    243 H243       -8.4508  -19.0165  -51.5146 H         1 UNK         0.3800 
    244 H244       -7.0087  -17.5325  -51.1852 H         1 UNK         0.0800 
    245 H245       -5.9484  -18.9128  -51.3957 H         1 UNK         0.0800 
    246 H246       -4.5026  -18.0930  -49.5775 H         1 UNK         0.0800 
    247 H247       -5.0473  -16.4643  -49.2448 H         1 UNK         0.0800 
@<TRIPOS>BOND
     1    1    2 1    
     2    1  127 1    
     3    1  128 1    
     4    1  129 1    
     5    2    3 2    
     6    2    4 am   BACKBONE|DICT|INTERRES
     7    4    5 1    
     8    4  130 1    
     9    5    6 1    
    10    5   65 1    
    11    5  131 1    
    12    6    7 1    
    13    6  132 1    
    14    6  133 1    
    15    7    8 1    
    16    8    9 1    
    17    8  134 1    
    18    8  135 1    
    19    9   10 ar   
    20    9   14 ar   
    21   10   11 ar   
    22   10  136 1    
    23   11   12 ar   
    24   11  126 1    
    25   12   13 ar   
    26   12  137 1    
    27   13   14 ar   
    28   13   15 1    
    29   14  138 1    
    30   15   16 1    
    31   15  139 1    
    32   15  140 1    
    33   16   17 1    
    34   17   18 1    
    35   17  141 1    
    36   17  142 1    
    37   18   19 1    
    38   18   67 1    
    39   18  143 1    
    40   19   20 am   BACKBONE|DICT|INTERRES
    41   19  144 1    
    42   20   21 2    
    43   20   22 1    
    44   22   23 1    
    45   22   24 1    
    46   22  145 1    
    47   23  146 1    
    48   23  147 1    
    49   23  148 1    
    50   24   25 am   BACKBONE|DICT|INTERRES
    51   24  149 1    
    52   25   26 2    
    53   25   27 1    
    54   27   28 1    
    55   27   29 1    
    56   27  150 1    
    57   28  151 1    
    58   28  152 1    
    59   28  153 1    
    60   29   30 am   BACKBONE|DICT|INTERRES
    61   29  154 1    
    62   30   31 2    
    63   30   32 1    
    64   32   33 1    
    65   32   34 1    
    66   32  155 1    
    67   33  156 1    
    68   33  157 1    
    69   33  158 1    
    70   34   35 am   BACKBONE|DICT|INTERRES
    71   34  159 1    
    72   35   36 2    
    73   35   37 1    
    74   37   38 1    
    75   37   39 1    
    76   37  160 1    
    77   38  161 1    
    78   38  162 1    
    79   38  163 1    
    80   39   40 am   BACKBONE|DICT|INTERRES
    81   39  164 1    
    82   40   41 2    
    83   40   42 1    
    84   42   43 1    
    85   42   44 1    
    86   42  165 1    
    87   43  166 1    
    88   43  167 1    
    89   43  168 1    
    90   44   45 am   BACKBONE|DICT|INTERRES
    91   44  169 1    
    92   45   46 2    
    93   45   47 1    
    94   47   48 1    
    95   47   49 1    
    96   47  170 1    
    97   48  171 1    
    98   48  172 1    
    99   48  173 1    
   100   49   50 am   BACKBONE|DICT|INTERRES
   101   49  174 1    
   102   50   51 2    
   103   50   52 1    
   104   52   53 1    
   105   52   54 1    
   106   52  175 1    
   107   53  176 1    
   108   53  177 1    
   109   53  178 1    
   110   54   55 am   BACKBONE|DICT|INTERRES
   111   54  179 1    
   112   55   56 2    
   113   55   57 1    
   114   57   58 1    
   115   57   59 1    
   116   57  180 1    
   117   58  181 1    
   118   58  182 1    
   119   58  183 1    
   120   59   60 am   BACKBONE|DICT|INTERRES
   121   59  184 1    
   122   60   61 2    
   123   60   62 1    
   124   62   63 1    
   125   62   64 1    
   126   62  185 1    
   127   63  186 1    
   128   63  187 1    
   129   63  188 1    
   130   64   65 am   BACKBONE|DICT|INTERRES
   131   64  189 1    
   132   65   66 2    
   133   67   68 2    
   134   67   69 am   BACKBONE|DICT|INTERRES
   135   69   70 1    
   136   69  190 1    
   137   70   71 1    
   138   70   72 1    
   139   70  191 1    
   140   71  192 1    
   141   71  193 1    
   142   71  194 1    
   143   72   73 2    
   144   72   74 am   BACKBONE|DICT|INTERRES
   145   74   75 1    
   146   74  195 1    
   147   75   76 1    
   148   75   77 1    
   149   75  196 1    
   150   76  197 1    
   151   76  198 1    
   152   76  199 1    
   153   77   78 2    
   154   77   79 am   BACKBONE|DICT|INTERRES
   155   79   80 1    
   156   79  200 1    
   157   80   81 1    
   158   80   82 1    
   159   80  201 1    
   160   81  202 1    
   161   81  203 1    
   162   81  204 1    
   163   82   83 2    
   164   82   84 am   BACKBONE|DICT|INTERRES
   165   84   85 1    
   166   84  205 1    
   167   85   86 1    
   168   85   87 1    
   169   85  206 1    
   170   86  207 1    
   171   86  208 1    
   172   86  209 1    
   173   87   88 2    
   174   87   89 am   BACKBONE|DICT|INTERRES
   175   89   90 1    
   176   89  210 1    
   177   90   91 1    
   178   90   92 1    
   179   90  211 1    
   180   91  212 1    
   181   91  213 1    
   182   91  214 1    
   183   92   93 2    
   184   92   94 am   BACKBONE|DICT|INTERRES
   185   94   95 1    
   186   94  215 1    
   187   95   96 1    
   188   95   97 1    
   189   95  216 1    
   190   96  217 1    
   191   96  218 1    
   192   96  219 1    
   193   97   98 2    
   194   97   99 am   BACKBONE|DICT|INTERRES
   195   99  100 1    
   196   99  220 1    
   197  100  101 1    
   198  100  102 1    
   199  100  221 1    
   200  101  222 1    
   201  101  223 1    
   202  101  224 1    
   203  102  103 2    
   204  102  104 am   BACKBONE|DICT|INTERRES
   205  104  105 1    
   206  104  225 1    
   207  105  106 1    
   208  105  107 1    
   209  105  226 1    
   210  106  227 1    
   211  106  228 1    
   212  106  229 1    
   213  107  108 2    
   214  107  109 am   BACKBONE|DICT|INTERRES
   215  109  110 1    
   216  109  230 1    
   217  110  111 1    
   218  110  112 1    
   219  110  231 1    
   220  111  232 1    
   221  111  233 1    
   222  111  234 1    
   223  112  113 2    
   224  112  114 am   BACKBONE|DICT|INTERRES
   225  114  115 1    
   226  114  235 1    
   227  115  116 1    
   228  115  117 1    
   229  115  236 1    
   230  116  237 1    
   231  116  238 1    
   232  116  239 1    
   233  117  118 2    
   234  117  119 am   BACKBONE|DICT|INTERRES
   235  119  120 1    
   236  119  240 1    
   237  120  121 1    
   238  120  124 1    
   239  120  241 1    
   240  121  122 am   BACKBONE|DICT|INTERRES
   241  121  123 2    
   242  122  242 1    
   243  122  243 1    
   244  124  125 1    
   245  124  244 1    
   246  124  245 1    
   247  125  126 1    
   248  126  246 1    
   249  126  247 1    
@<TRIPOS>SUBSTRUCTURE
     1 UNK         1 GROUP             0       ****    0 ROOT    
