@<TRIPOS>MOLECULE
3R540
247   249    1
SMALL
USER_CHARGES


@<TRIPOS>ATOM
      1 CA         -1.9173  -15.2091  -43.4962 C.3       0 UNK        -0.1800 
      2 C          -1.5389  -13.8333  -44.0245 C.2       0 UNK         0.5000 
      3 O          -1.8066  -12.8291  -43.3649 O.2       0 UNK        -0.5000 
      4 N          -0.9302  -13.7853  -45.2161 N.am      1 UNK        -0.5000 
      5 CA         -0.4302  -12.5699  -45.8626 C.3       1 UNK         0.1400 
      6 C6         -0.1254  -12.7734  -47.3716 C.3       23 UNK        -0.0398 
      7 S7          0.8652  -14.2518  -47.8040 S.3       23 UNK        -0.2404 
      8 C8         -0.4600  -15.4320  -48.2540 C.3       23 UNK        -0.0205 
      9 C9          0.0004  -16.7624  -48.8539 C.ar      23 UNK        -0.0193 
     10 C10        -0.9067  -17.4767  -49.6429 C.ar      23 UNK        -0.1150 
     11 C11        -0.5574  -18.7029  -50.2134 C.ar      23 UNK        -0.0193 
     12 C12         0.7206  -19.2203  -49.9946 C.ar      23 UNK        -0.1150 
     13 C13         1.6407  -18.5294  -49.2006 C.ar      23 UNK        -0.0193 
     14 C14         1.2727  -17.3057  -48.6271 C.ar      23 UNK        -0.1150 
     15 C15         3.0404  -19.0935  -48.9768 C.3       23 UNK        -0.0205 
     16 S16         3.0444  -20.7946  -48.3133 S.3       23 UNK        -0.2404 
     17 C17         2.2089  -20.5584  -46.7107 C.3       23 UNK        -0.0398 
     18 CA          1.1655  -21.6509  -46.3832 C.3       11 UNK         0.1400 
     19 N           0.8787  -21.6823  -44.9430 N.am      11 UNK        -0.5000 
     20 C           0.0742  -22.5532  -44.3156 C.2       10 UNK         0.5000 
     21 O          -0.5413  -23.4532  -44.8863 O.2       10 UNK        -0.5000 
     22 CA         -0.0950  -22.3618  -42.7987 C.3       10 UNK         0.1400 
     23 CB          1.0931  -22.9629  -42.0319 C.3       10 UNK        -0.1800 
     24 N          -0.2325  -20.9453  -42.4612 N.am      10 UNK        -0.5000 
     25 C          -1.3887  -20.2687  -42.5172 C.2       9 UNK         0.5000 
     26 O          -2.4763  -20.7937  -42.7570 O.2       9 UNK        -0.5000 
     27 CA         -1.3215  -18.7441  -42.2933 C.3       9 UNK         0.1400 
     28 CB         -1.4882  -18.4080  -40.8042 C.3       9 UNK        -0.1800 
     29 N          -0.0850  -18.1344  -42.7845 N.am      9 UNK        -0.5000 
     30 C           0.3175  -18.1436  -44.0628 C.2       8 UNK         0.5000 
     31 O          -0.3391  -18.6243  -44.9835 O.2       8 UNK        -0.5000 
     32 CA          1.7083  -17.5618  -44.3595 C.3       8 UNK         0.1400 
     33 CB          1.6068  -16.0702  -44.6769 C.3       8 UNK        -0.1800 
     34 N           2.6717  -17.7743  -43.2849 N.am      8 UNK        -0.5000 
     35 C           3.0630  -18.9636  -42.8093 C.2       7 UNK         0.5000 
     36 O           2.6195  -20.0399  -43.2130 O.2       7 UNK        -0.5000 
     37 CA          4.0975  -18.9349  -41.6743 C.3       7 UNK         0.1400 
     38 CB          5.5158  -18.7797  -42.2437 C.3       7 UNK        -0.1800 
     39 N           3.8244  -17.8357  -40.7482 N.am      7 UNK        -0.5000 
     40 C           3.0068  -17.9225  -39.6914 C.2       6 UNK         0.5000 
     41 O           2.4470  -18.9628  -39.3438 O.2       6 UNK        -0.5000 
     42 CA          2.7620  -16.6281  -38.8900 C.3       6 UNK         0.1400 
     43 CB          3.8216  -16.4688  -37.7892 C.3       6 UNK        -0.1800 
     44 N           2.7402  -15.4163  -39.7134 N.am      6 UNK        -0.5000 
     45 C           1.8066  -15.1421  -40.6345 C.2       5 UNK         0.5000 
     46 O           0.8751  -15.8990  -40.9107 O.2       5 UNK        -0.5000 
     47 CA          1.9554  -13.8126  -41.4020 C.3       5 UNK         0.1400 
     48 CB          1.4033  -12.6477  -40.5673 C.3       5 UNK        -0.1800 
     49 N           3.3079  -13.4706  -41.8710 N.am      5 UNK        -0.5000 
     50 C           4.1929  -14.2890  -42.4598 C.2       4 UNK         0.5000 
     51 O           4.0616  -15.5101  -42.5267 O.2       4 UNK        -0.5000 
     52 CA          5.4051  -13.6218  -43.1251 C.3       4 UNK         0.1400 
     53 CB          6.3557  -14.6482  -43.7818 C.3       4 UNK        -0.1800 
     54 N           4.9253  -12.6559  -44.1121 N.am      4 UNK        -0.5000 
     55 C           5.6705  -11.6996  -44.6826 C.2       3 UNK         0.5000 
     56 O           6.8634  -11.5199  -44.4333 O.2       3 UNK        -0.5000 
     57 CA          4.9673  -10.7709  -45.6937 C.3       3 UNK         0.1400 
     58 CB          5.0626  -11.3536  -47.1122 C.3       3 UNK        -0.1800 
     59 N           3.5608  -10.5155  -45.3801 N.am      3 UNK        -0.5000 
     60 C           3.1116   -9.9215  -44.2669 C.2       2 UNK         0.5000 
     61 O           3.8518   -9.4683  -43.3930 O.2       2 UNK        -0.5000 
     62 CA          1.5849   -9.8111  -44.0802 C.3       2 UNK         0.1400 
     63 CB          1.1378   -8.3449  -44.1968 C.3       2 UNK        -0.1800 
     64 N           0.7532  -10.6213  -44.9787 N.am      2 UNK        -0.5000 
     65 C           0.7512  -11.9580  -45.0776 C.2       1 UNK         0.5000 
     66 O           1.6096  -12.6863  -44.5747 O.2       1 UNK        -0.5000 
     67 C          -0.1048  -21.4991  -47.2509 C.2       11 UNK         0.5000 
     68 O          -0.1954  -22.1239  -48.3077 O.2       11 UNK        -0.5000 
     69 N          -1.0850  -20.7248  -46.7614 N.am      12 UNK        -0.5000 
     70 CA         -2.3888  -20.4749  -47.3815 C.3       12 UNK         0.1400 
     71 CB         -3.2191  -19.5742  -46.4554 C.3       12 UNK        -0.1800 
     72 C          -3.1845  -21.7404  -47.7601 C.2       12 UNK         0.5000 
     73 O          -3.9630  -21.6982  -48.7132 O.2       12 UNK        -0.5000 
     74 N          -2.9425  -22.8542  -47.0521 N.am      13 UNK        -0.5000 
     75 CA         -3.5184  -24.1699  -47.3345 C.3       13 UNK         0.1400 
     76 CB         -3.1443  -25.1379  -46.2030 C.3       13 UNK        -0.1800 
     77 C          -3.1067  -24.7558  -48.7012 C.2       13 UNK         0.5000 
     78 O          -3.8285  -25.6052  -49.2240 O.2       13 UNK        -0.5000 
     79 N          -1.9930  -24.2802  -49.2828 N.am      14 UNK        -0.5000 
     80 CA         -1.5043  -24.6773  -50.6077 C.3       14 UNK         0.1400 
     81 CB         -0.1124  -24.0713  -50.8402 C.3       14 UNK        -0.1800 
     82 C          -2.4507  -24.2915  -51.7622 C.2       14 UNK         0.5000 
     83 O          -2.3832  -24.9051  -52.8268 O.2       14 UNK        -0.5000 
     84 N          -3.3242  -23.2998  -51.5355 N.am      15 UNK        -0.5000 
     85 CA         -4.3778  -22.9021  -52.4690 C.3       15 UNK         0.1400 
     86 CB         -4.7821  -21.4511  -52.1692 C.3       15 UNK        -0.1800 
     87 C          -5.6150  -23.8213  -52.4199 C.2       15 UNK         0.5000 
     88 O          -6.4894  -23.6884  -53.2787 O.2       15 UNK        -0.5000 
     89 N          -5.6908  -24.7069  -51.4127 N.am      16 UNK        -0.5000 
     90 CA         -6.8444  -25.5338  -51.0490 C.3       16 UNK         0.1400 
     91 CB         -7.1185  -26.6011  -52.1321 C.3       16 UNK        -0.1800 
     92 C          -8.0579  -24.6445  -50.7017 C.2       16 UNK         0.5000 
     93 O          -7.8899  -23.6479  -49.9959 O.2       16 UNK        -0.5000 
     94 N          -9.2442  -24.9671  -51.2303 N.am      17 UNK        -0.5000 
     95 CA        -10.4641  -24.1603  -51.1217 C.3       17 UNK         0.1400 
     96 CB        -11.6811  -25.1000  -51.2030 C.3       17 UNK        -0.1800 
     97 C         -10.5021  -23.0422  -52.1897 C.2       17 UNK         0.5000 
     98 O         -11.5251  -22.8576  -52.8513 O.2       17 UNK        -0.5000 
     99 N          -9.3662  -22.3480  -52.3659 N.am      18 UNK        -0.5000 
    100 CA        -9.0673  -21.3628  -53.4143 C.3       18 UNK         0.1400 
    101 CB        -9.9054  -20.0825  -53.2201 C.3       18 UNK        -0.1800 
    102 C         -9.1835  -21.9567  -54.8367 C.2       18 UNK         0.5000 
    103 O         -9.6303  -21.2785  -55.7638 O.2       18 UNK        -0.5000 
    104 N         -8.7938  -23.2301  -54.9695 N.am      19 UNK        -0.5000 
    105 CA        -8.8642  -24.0113  -56.2019 C.3       19 UNK         0.1400 
    106 CB        -9.1912  -25.4685  -55.8404 C.3       19 UNK        -0.1800 
    107 C         -7.5570  -23.9418  -57.0094 C.2       19 UNK         0.5000 
    108 O         -7.5903  -24.1586  -58.2216 O.2       19 UNK        -0.5000 
    109 N         -6.4385  -23.6486  -56.3358 N.am      20 UNK        -0.5000 
    110 CA        -5.1117  -23.5061  -56.9255 C.3       20 UNK         0.1400 
    111 CB        -4.2041  -24.6172  -56.3726 C.3       20 UNK        -0.1800 
    112 C         -4.5424  -22.1262  -56.5742 C.2       20 UNK         0.5000 
    113 O         -4.8809  -21.5657  -55.5298 O.2       20 UNK        -0.5000 
    114 N         -3.6392  -21.6210  -57.4215 N.am      21 UNK        -0.5000 
    115 CA        -2.9303  -20.3508  -57.2411 C.3       21 UNK         0.1400 
    116 CB        -2.5652  -19.7888  -58.6273 C.3       21 UNK        -0.1800 
    117 C         -1.7021  -20.5125  -56.3187 C.2       21 UNK         0.5000 
    118 O         -0.5887  -20.1454  -56.6979 O.2       21 UNK        -0.5000 
    119 N         -1.9304  -21.0910  -55.1327 N.am      22 UNK        -0.5000 
    120 CA        -0.9318  -21.3778  -54.0843 C.3       22 UNK         0.1400 
    121 C          0.1385  -22.4466  -54.4690 C.2       22 UNK         0.5000 
    122 N         -0.0733  -23.2549  -55.5003 N.am      22 UNK        -0.7600 
    123 O          1.1660  -22.5693  -53.8087 O.2       22 UNK        -0.5000 
    124 C124       -0.3007  -20.0938  -53.4734 C.3       23 UNK        -0.0398 
    125 S125       -1.5596  -18.9663  -52.7844 S.3       23 UNK        -0.2404 
    126 C126       -1.5776  -19.4733  -51.0377 C.3       23 UNK        -0.0205 
    127 H127       -1.7868  -15.9822  -44.2534 H         1 UNK         0.0600 
    128 H128       -2.9606  -15.2193  -43.1813 H         1 UNK         0.0600 
    129 H129       -1.2986  -15.4612  -42.6352 H         1 UNK         0.0600 
    130 H130       -0.6943  -14.6433  -45.6894 H         1 UNK         0.3000 
    131 H131       -1.2458  -11.8448  -45.8111 H         1 UNK         0.0600 
    132 H132        0.3819  -11.8972  -47.7791 H         1 UNK         0.0800 
    133 H133       -1.0696  -12.8225  -47.9151 H         1 UNK         0.0800 
    134 H134       -1.0650  -15.6498  -47.3739 H         1 UNK         0.0800 
    135 H135       -1.1201  -14.9382  -48.9691 H         1 UNK         0.0800 
    136 H136       -1.8971  -17.0779  -49.8134 H         1 UNK         0.1150 
    137 H137        0.9969  -20.1724  -50.4249 H         1 UNK         0.1150 
    138 H138        1.9833  -16.7772  -48.0085 H         1 UNK         0.1150 
    139 H139        3.5727  -19.0888  -49.9288 H         1 UNK         0.0800 
    140 H140        3.6130  -18.4542  -48.3029 H         1 UNK         0.0800 
    141 H141        1.7307  -19.5817  -46.6924 H         1 UNK         0.0800 
    142 H142        2.9877  -20.5349  -45.9472 H         1 UNK         0.0800 
    143 H143        1.6032  -22.6218  -46.6242 H         1 UNK         0.0600 
    144 H144        1.3734  -21.0027  -44.3739 H         1 UNK         0.3000 
    145 H145       -0.9957  -22.8968  -42.4898 H         1 UNK         0.0600 
    146 H146        0.9596  -22.8574  -40.9552 H         1 UNK         0.0600 
    147 H147        1.1930  -24.0280  -42.2445 H         1 UNK         0.0600 
    148 H148        2.0363  -22.4864  -42.2998 H         1 UNK         0.0600 
    149 H149        0.6249  -20.4330  -42.2999 H         1 UNK         0.3000 
    150 H150       -2.1530  -18.2961  -42.8413 H         1 UNK         0.0600 
    151 H151       -2.4008  -18.8493  -40.4015 H         1 UNK         0.0600 
    152 H152       -1.5531  -17.3308  -40.6492 H         1 UNK         0.0600 
    153 H153       -0.6510  -18.7809  -40.2124 H         1 UNK         0.0600 
    154 H154        0.4909  -17.6584  -42.0992 H         1 UNK         0.3000 
    155 H155        2.1072  -18.0530  -45.2432 H         1 UNK         0.0600 
    156 H156        1.2337  -15.5051  -43.8258 H         1 UNK         0.0600 
    157 H157        0.9184  -15.9112  -45.5036 H         1 UNK         0.0600 
    158 H158        2.5703  -15.6516  -44.9680 H         1 UNK         0.0600 
    159 H159        3.1221  -16.9373  -42.9178 H         1 UNK         0.3000 
    160 H160        4.0465  -19.8885  -41.1444 H         1 UNK         0.0600 
    161 H161        5.6325  -17.8439  -42.7919 H         1 UNK         0.0600 
    162 H162        5.7514  -19.5941  -42.9299 H         1 UNK         0.0600 
    163 H163        6.2621  -18.7971  -41.4493 H         1 UNK         0.0600 
    164 H164        4.1751  -16.9237  -41.0168 H         1 UNK         0.3000 
    165 H165        1.7856  -16.7218  -38.4098 H         1 UNK         0.0600 
    166 H166        3.6078  -15.6068  -37.1571 H         1 UNK         0.0600 
    167 H167        3.8473  -17.3464  -37.1418 H         1 UNK         0.0600 
    168 H168        4.8206  -16.3402  -38.2078 H         1 UNK         0.0600 
    169 H169        3.4839  -14.7496  -39.5681 H         1 UNK         0.3000 
    170 H170        1.3262  -13.8927  -42.2872 H         1 UNK         0.0600 
    171 H171        0.3915  -12.8604  -40.2190 H         1 UNK         0.0600 
    172 H172        2.0206  -12.4528  -39.6896 H         1 UNK         0.0600 
    173 H173        1.3540  -11.7311  -41.1546 H         1 UNK         0.0600 
    174 H174        3.5271  -12.4853  -41.8662 H         1 UNK         0.3000 
    175 H175        5.9502  -13.0899  -42.3430 H         1 UNK         0.0600 
    176 H176        5.8646  -15.1837  -44.5954 H         1 UNK         0.0600 
    177 H177        7.2485  -14.1724  -44.1863 H         1 UNK         0.0600 
    178 H178        6.6929  -15.3893  -43.0561 H         1 UNK         0.0600 
    179 H179        3.9419  -12.7217  -44.3533 H         1 UNK         0.3000 
    180 H180        5.4904   -9.8126  -45.6802 H         1 UNK         0.0600 
    181 H181        4.5252  -12.2994  -47.1952 H         1 UNK         0.0600 
    182 H182        6.1011  -11.5404  -47.3891 H         1 UNK         0.0600 
    183 H183        4.6494  -10.6661  -47.8505 H         1 UNK         0.0600 
    184 H184        2.8780  -10.8732  -46.0311 H         1 UNK         0.3000 
    185 H185        1.3738  -10.1465  -43.0633 H         1 UNK         0.0600 
    186 H186        1.6982   -7.7055  -43.5132 H         1 UNK         0.0600 
    187 H187        1.2898   -7.9588  -45.2055 H         1 UNK         0.0600 
    188 H188        0.0824   -8.2316  -43.9480 H         1 UNK         0.0600 
    189 H189        0.0228  -10.1112  -45.4543 H         1 UNK         0.3000 
    190 H190       -0.8871  -20.1848  -45.9231 H         1 UNK         0.3000 
    191 H191       -2.2041  -19.9273  -48.3039 H         1 UNK         0.0600 
    192 H192       -2.7331  -18.6099  -46.3056 H         1 UNK         0.0600 
    193 H193       -4.2047  -19.3760  -46.8787 H         1 UNK         0.0600 
    194 H194       -3.3650  -20.0325  -45.4764 H         1 UNK         0.0600 
    195 H195       -2.2531  -22.8151  -46.3116 H         1 UNK         0.3000 
    196 H196       -4.6046  -24.0587  -47.3432 H         1 UNK         0.0600 
    197 H197       -3.6260  -26.1066  -46.3425 H         1 UNK         0.0600 
    198 H198       -3.4594  -24.7548  -45.2322 H         1 UNK         0.0600 
    199 H199       -2.0682  -25.3106  -46.1631 H         1 UNK         0.0600 
    200 H200       -1.4517  -23.5654  -48.8036 H         1 UNK         0.3000 
    201 H201       -1.4084  -25.7649  -50.6128 H         1 UNK         0.0600 
    202 H202        0.3144  -24.4241  -51.7799 H         1 UNK         0.0600 
    203 H203        0.5798  -24.3489  -50.0451 H         1 UNK         0.0600 
    204 H204       -0.1496  -22.9821  -50.8876 H         1 UNK         0.0600 
    205 H205       -3.3329  -22.8521  -50.6271 H         1 UNK         0.3000 
    206 H206       -3.9804  -22.9431  -53.4833 H         1 UNK         0.0600 
    207 H207       -3.9312  -20.7786  -52.2628 H         1 UNK         0.0600 
    208 H208       -5.5422  -21.1030  -52.8694 H         1 UNK         0.0600 
    209 H209       -5.1894  -21.3448  -51.1633 H         1 UNK         0.0600 
    210 H210       -4.9203  -24.7504  -50.7561 H         1 UNK         0.3000 
    211 H211       -6.5727  -26.0538  -50.1294 H         1 UNK         0.0600 
    212 H212       -7.4505  -26.1599  -53.0713 H         1 UNK         0.0600 
    213 H213       -7.8809  -27.3095  -51.8064 H         1 UNK         0.0600 
    214 H214       -6.2182  -27.1788  -52.3422 H         1 UNK         0.0600 
    215 H215       -9.2997  -25.7807  -51.8257 H         1 UNK         0.3000 
    216 H216      -10.4894  -23.6716  -50.1455 H         1 UNK         0.0600 
    217 H217      -12.6125  -24.5497  -51.0637 H         1 UNK         0.0600 
    218 H218      -11.6406  -25.8649  -50.4273 H         1 UNK         0.0600 
    219 H219      -11.7367  -25.6038  -52.1688 H         1 UNK         0.0600 
    220 H220       -8.5908  -22.5853  -51.7586 H         1 UNK         0.3000 
    221 H221       -8.0184  -21.0920  -53.2874 H         1 UNK         0.0600 
    222 H222      -10.9670  -20.2621  -53.3922 H         1 UNK         0.0600 
    223 H223       -9.7911  -19.6864  -52.2112 H         1 UNK         0.0600 
    224 H224       -9.5901  -19.3008  -53.9120 H         1 UNK         0.0600 
    225 H225       -8.3435  -23.6701  -54.1751 H         1 UNK         0.3000 
    226 H226       -9.6694  -23.6296  -56.8331 H         1 UNK         0.0600 
    227 H227      -10.1194  -25.5359  -55.2724 H         1 UNK         0.0600 
    228 H228       -9.3148  -26.0742  -56.7390 H         1 UNK         0.0600 
    229 H229       -8.3986  -25.9235  -55.2462 H         1 UNK         0.0600 
    230 H230       -6.5009  -23.4368  -55.3451 H         1 UNK         0.3000 
    231 H231       -5.1559  -23.5916  -58.0131 H         1 UNK         0.0600 
    232 H232       -4.1248  -24.5738  -55.2859 H         1 UNK         0.0600 
    233 H233       -3.1951  -24.5425  -56.7795 H         1 UNK         0.0600 
    234 H234       -4.5877  -25.6027  -56.6370 H         1 UNK         0.0600 
    235 H235       -3.3847  -22.1559  -58.2396 H         1 UNK         0.3000 
    236 H236       -3.5978  -19.6320  -56.7607 H         1 UNK         0.0600 
    237 H237       -3.4547  -19.6477  -59.2417 H         1 UNK         0.0600 
    238 H238       -2.0768  -18.8174  -58.5403 H         1 UNK         0.0600 
    239 H239       -1.8870  -20.4519  -59.1659 H         1 UNK         0.0600 
    240 H240       -2.8885  -21.3420  -54.9201 H         1 UNK         0.3000 
    241 H241       -1.4963  -21.8555  -53.2846 H         1 UNK         0.0600 
    242 H242        0.6190  -23.9488  -55.7344 H         1 UNK         0.3800 
    243 H243       -0.9095  -23.1729  -56.0537 H         1 UNK         0.3800 
    244 H244        0.4107  -20.3457  -52.6869 H         1 UNK         0.0800 
    245 H245        0.2723  -19.5525  -54.2269 H         1 UNK         0.0800 
    246 H246       -1.4104  -20.5484  -50.9506 H         1 UNK         0.0800 
    247 H247       -2.5775  -19.2943  -50.6396 H         1 UNK         0.0800 
@<TRIPOS>BOND
     1    1    2 1    
     2    1  127 1    
     3    1  128 1    
     4    1  129 1    
     5    2    3 2    
     6    2    4 am   BACKBONE|DICT|INTERRES
     7    4    5 1    
     8    4  130 1    
     9    5    6 1    
    10    5   65 1    
    11    5  131 1    
    12    6    7 1    
    13    6  132 1    
    14    6  133 1    
    15    7    8 1    
    16    8    9 1    
    17    8  134 1    
    18    8  135 1    
    19    9   10 ar   
    20    9   14 ar   
    21   10   11 ar   
    22   10  136 1    
    23   11   12 ar   
    24   11  126 1    
    25   12   13 ar   
    26   12  137 1    
    27   13   14 ar   
    28   13   15 1    
    29   14  138 1    
    30   15   16 1    
    31   15  139 1    
    32   15  140 1    
    33   16   17 1    
    34   17   18 1    
    35   17  141 1    
    36   17  142 1    
    37   18   19 1    
    38   18   67 1    
    39   18  143 1    
    40   19   20 am   BACKBONE|DICT|INTERRES
    41   19  144 1    
    42   20   21 2    
    43   20   22 1    
    44   22   23 1    
    45   22   24 1    
    46   22  145 1    
    47   23  146 1    
    48   23  147 1    
    49   23  148 1    
    50   24   25 am   BACKBONE|DICT|INTERRES
    51   24  149 1    
    52   25   26 2    
    53   25   27 1    
    54   27   28 1    
    55   27   29 1    
    56   27  150 1    
    57   28  151 1    
    58   28  152 1    
    59   28  153 1    
    60   29   30 am   BACKBONE|DICT|INTERRES
    61   29  154 1    
    62   30   31 2    
    63   30   32 1    
    64   32   33 1    
    65   32   34 1    
    66   32  155 1    
    67   33  156 1    
    68   33  157 1    
    69   33  158 1    
    70   34   35 am   BACKBONE|DICT|INTERRES
    71   34  159 1    
    72   35   36 2    
    73   35   37 1    
    74   37   38 1    
    75   37   39 1    
    76   37  160 1    
    77   38  161 1    
    78   38  162 1    
    79   38  163 1    
    80   39   40 am   BACKBONE|DICT|INTERRES
    81   39  164 1    
    82   40   41 2    
    83   40   42 1    
    84   42   43 1    
    85   42   44 1    
    86   42  165 1    
    87   43  166 1    
    88   43  167 1    
    89   43  168 1    
    90   44   45 am   BACKBONE|DICT|INTERRES
    91   44  169 1    
    92   45   46 2    
    93   45   47 1    
    94   47   48 1    
    95   47   49 1    
    96   47  170 1    
    97   48  171 1    
    98   48  172 1    
    99   48  173 1    
   100   49   50 am   BACKBONE|DICT|INTERRES
   101   49  174 1    
   102   50   51 2    
   103   50   52 1    
   104   52   53 1    
   105   52   54 1    
   106   52  175 1    
   107   53  176 1    
   108   53  177 1    
   109   53  178 1    
   110   54   55 am   BACKBONE|DICT|INTERRES
   111   54  179 1    
   112   55   56 2    
   113   55   57 1    
   114   57   58 1    
   115   57   59 1    
   116   57  180 1    
   117   58  181 1    
   118   58  182 1    
   119   58  183 1    
   120   59   60 am   BACKBONE|DICT|INTERRES
   121   59  184 1    
   122   60   61 2    
   123   60   62 1    
   124   62   63 1    
   125   62   64 1    
   126   62  185 1    
   127   63  186 1    
   128   63  187 1    
   129   63  188 1    
   130   64   65 am   BACKBONE|DICT|INTERRES
   131   64  189 1    
   132   65   66 2    
   133   67   68 2    
   134   67   69 am   BACKBONE|DICT|INTERRES
   135   69   70 1    
   136   69  190 1    
   137   70   71 1    
   138   70   72 1    
   139   70  191 1    
   140   71  192 1    
   141   71  193 1    
   142   71  194 1    
   143   72   73 2    
   144   72   74 am   BACKBONE|DICT|INTERRES
   145   74   75 1    
   146   74  195 1    
   147   75   76 1    
   148   75   77 1    
   149   75  196 1    
   150   76  197 1    
   151   76  198 1    
   152   76  199 1    
   153   77   78 2    
   154   77   79 am   BACKBONE|DICT|INTERRES
   155   79   80 1    
   156   79  200 1    
   157   80   81 1    
   158   80   82 1    
   159   80  201 1    
   160   81  202 1    
   161   81  203 1    
   162   81  204 1    
   163   82   83 2    
   164   82   84 am   BACKBONE|DICT|INTERRES
   165   84   85 1    
   166   84  205 1    
   167   85   86 1    
   168   85   87 1    
   169   85  206 1    
   170   86  207 1    
   171   86  208 1    
   172   86  209 1    
   173   87   88 2    
   174   87   89 am   BACKBONE|DICT|INTERRES
   175   89   90 1    
   176   89  210 1    
   177   90   91 1    
   178   90   92 1    
   179   90  211 1    
   180   91  212 1    
   181   91  213 1    
   182   91  214 1    
   183   92   93 2    
   184   92   94 am   BACKBONE|DICT|INTERRES
   185   94   95 1    
   186   94  215 1    
   187   95   96 1    
   188   95   97 1    
   189   95  216 1    
   190   96  217 1    
   191   96  218 1    
   192   96  219 1    
   193   97   98 2    
   194   97   99 am   BACKBONE|DICT|INTERRES
   195   99  100 1    
   196   99  220 1    
   197  100  101 1    
   198  100  102 1    
   199  100  221 1    
   200  101  222 1    
   201  101  223 1    
   202  101  224 1    
   203  102  103 2    
   204  102  104 am   BACKBONE|DICT|INTERRES
   205  104  105 1    
   206  104  225 1    
   207  105  106 1    
   208  105  107 1    
   209  105  226 1    
   210  106  227 1    
   211  106  228 1    
   212  106  229 1    
   213  107  108 2    
   214  107  109 am   BACKBONE|DICT|INTERRES
   215  109  110 1    
   216  109  230 1    
   217  110  111 1    
   218  110  112 1    
   219  110  231 1    
   220  111  232 1    
   221  111  233 1    
   222  111  234 1    
   223  112  113 2    
   224  112  114 am   BACKBONE|DICT|INTERRES
   225  114  115 1    
   226  114  235 1    
   227  115  116 1    
   228  115  117 1    
   229  115  236 1    
   230  116  237 1    
   231  116  238 1    
   232  116  239 1    
   233  117  118 2    
   234  117  119 am   BACKBONE|DICT|INTERRES
   235  119  120 1    
   236  119  240 1    
   237  120  121 1    
   238  120  124 1    
   239  120  241 1    
   240  121  122 am   BACKBONE|DICT|INTERRES
   241  121  123 2    
   242  122  242 1    
   243  122  243 1    
   244  124  125 1    
   245  124  244 1    
   246  124  245 1    
   247  125  126 1    
   248  126  246 1    
   249  126  247 1    
@<TRIPOS>SUBSTRUCTURE
     1 UNK         1 GROUP             0       ****    0 ROOT    
