@<TRIPOS>MOLECULE
3R540
247   249    1
SMALL
USER_CHARGES


@<TRIPOS>ATOM
      1 CA          2.1222  -16.3589  -47.8530 C.3       0 UNK        -0.1800 
      2 C           1.3911  -15.1806  -47.2298 C.2       0 UNK         0.5000 
      3 O           1.9468  -14.4920  -46.3762 O.2       0 UNK        -0.5000 
      4 N           0.1538  -14.9300  -47.6791 N.am      1 UNK        -0.5000 
      5 CA         -0.7499  -13.8817  -47.1739 C.3       1 UNK         0.1400 
      6 C6         -2.2147  -14.1215  -47.6110 C.3       23 UNK        -0.0398 
      7 S7         -2.8887  -15.6542  -46.8915 S.3       23 UNK        -0.2404 
      8 C8         -3.9398  -16.2616  -48.2506 C.3       23 UNK        -0.0205 
      9 C9         -3.1942  -16.8606  -49.4422 C.ar      23 UNK        -0.0193 
     10 C10        -3.8380  -16.8908  -50.6836 C.ar      23 UNK        -0.1150 
     11 C11        -3.2490  -17.5236  -51.7810 C.ar      23 UNK        -0.0193 
     12 C12        -1.9960  -18.1196  -51.6344 C.ar      23 UNK        -0.1150 
     13 C13        -1.3268  -18.0772  -50.4119 C.ar      23 UNK        -0.0193 
     14 C14        -1.9292  -17.4518  -49.3170 C.ar      23 UNK        -0.1150 
     15 C15         0.0304  -18.7451  -50.2833 C.3       23 UNK        -0.0205 
     16 S16        -0.1413  -20.5114  -49.8996 S.3       23 UNK        -0.2404 
     17 C17        -0.3299  -20.4475  -48.0914 C.3       23 UNK        -0.0398 
     18 CA         -0.4024  -21.8571  -47.4564 C.3       11 UNK         0.1400 
     19 N           0.2156  -21.8796  -46.1265 N.am      11 UNK        -0.5000 
     20 C           0.4688  -22.9888  -45.4180 C.2       10 UNK         0.5000 
     21 O           0.2288  -24.1248  -45.8220 O.2       10 UNK        -0.5000 
     22 CA          1.0309  -22.7972  -43.9975 C.3       10 UNK         0.1400 
     23 CB          2.5528  -22.6010  -44.0351 C.3       10 UNK        -0.1800 
     24 N           0.4026  -21.6815  -43.2885 N.am      10 UNK        -0.5000 
     25 C          -0.9013  -21.6135  -42.9849 C.2       9 UNK         0.5000 
     26 O          -1.7073  -22.5074  -43.2400 O.2       9 UNK        -0.5000 
     27 CA         -1.3994  -20.3132  -42.3330 C.3       9 UNK         0.1400 
     28 CB         -1.1764  -20.3395  -40.8135 C.3       9 UNK        -0.1800 
     29 N          -0.7593  -19.1287  -42.9035 N.am      9 UNK        -0.5000 
     30 C          -0.9726  -18.6707  -44.1453 C.2       8 UNK         0.5000 
     31 O          -1.7503  -19.1914  -44.9461 O.2       8 UNK        -0.5000 
     32 CA         -0.1292  -17.4538  -44.5700 C.3       8 UNK         0.1400 
     33 CB         -0.6581  -16.1683  -43.9159 C.3       8 UNK        -0.1800 
     34 N           1.2844  -17.6106  -44.2253 N.am      8 UNK        -0.5000 
     35 C           2.0901  -18.5659  -44.7133 C.2       7 UNK         0.5000 
     36 O           1.7366  -19.3936  -45.5515 O.2       7 UNK        -0.5000 
     37 CA          3.5160  -18.6445  -44.1321 C.3       7 UNK         0.1400 
     38 CB          4.4613  -17.7267  -44.9215 C.3       7 UNK        -0.1800 
     39 N           3.5830  -18.2942  -42.7124 N.am      7 UNK        -0.5000 
     40 C           2.8721  -18.8666  -41.7299 C.2       6 UNK         0.5000 
     41 O           2.1577  -19.8544  -41.8989 O.2       6 UNK        -0.5000 
     42 CA          2.9183  -18.2036  -40.3370 C.3       6 UNK         0.1400 
     43 CB          3.7074  -19.0812  -39.3538 C.3       6 UNK        -0.1800 
     44 N           3.4742  -16.8445  -40.3121 N.am      6 UNK        -0.5000 
     45 C           2.9994  -15.7792  -40.9737 C.2       5 UNK         0.5000 
     46 O           2.0322  -15.8229  -41.7389 O.2       5 UNK        -0.5000 
     47 CA          3.8081  -14.4792  -40.7957 C.3       5 UNK         0.1400 
     48 CB          5.1478  -14.5786  -41.5460 C.3       5 UNK        -0.1800 
     49 N           3.1113  -13.2900  -41.2786 N.am      5 UNK        -0.5000 
     50 C           2.0058  -12.7438  -40.7548 C.2       4 UNK         0.5000 
     51 O           1.4391  -13.1804  -39.7517 O.2       4 UNK        -0.5000 
     52 CA          1.4644  -11.4701  -41.4434 C.3       4 UNK         0.1400 
     53 CB          1.4850  -10.2764  -40.4739 C.3       4 UNK        -0.1800 
     54 N           2.2287  -11.1069  -42.6431 N.am      4 UNK        -0.5000 
     55 C           2.0068  -11.6037  -43.8656 C.2       3 UNK         0.5000 
     56 O           1.0686  -12.3562  -44.1365 O.2       3 UNK        -0.5000 
     57 CA          3.0415  -11.2253  -44.9392 C.3       3 UNK         0.1400 
     58 CB          4.3148  -12.0725  -44.7718 C.3       3 UNK        -0.1800 
     59 N           2.4917  -11.4823  -46.2649 N.am      3 UNK        -0.5000 
     60 C           2.2231  -10.5563  -47.1952 C.2       2 UNK         0.5000 
     61 O           2.5079   -9.3638  -47.0761 O.2       2 UNK        -0.5000 
     62 CA          1.5048  -11.0340  -48.4770 C.3       2 UNK         0.1400 
     63 CB          2.5106  -11.2090  -49.6251 C.3       2 UNK        -0.1800 
     64 N           0.7819  -12.2923  -48.2864 N.am      2 UNK        -0.5000 
     65 C          -0.3000  -12.4409  -47.5093 C.2       1 UNK         0.5000 
     66 O          -0.9204  -11.4887  -47.0338 O.2       1 UNK        -0.5000 
     67 C          -1.8513  -22.3933  -47.4440 C.2       11 UNK         0.5000 
     68 O          -2.2626  -23.0738  -48.3870 O.2       11 UNK        -0.5000 
     69 N          -2.5903  -22.0991  -46.3647 N.am      12 UNK        -0.5000 
     70 CA         -3.9317  -22.6228  -46.1169 C.3       12 UNK         0.1400 
     71 CB         -4.6316  -21.7768  -45.0433 C.3       12 UNK        -0.1800 
     72 C          -3.9083  -24.1129  -45.7380 C.2       12 UNK         0.5000 
     73 O          -4.7049  -24.8807  -46.2765 O.2       12 UNK        -0.5000 
     74 N          -2.9733  -24.5068  -44.8615 N.am      13 UNK        -0.5000 
     75 CA         -2.7602  -25.8912  -44.4272 C.3       13 UNK         0.1400 
     76 CB         -1.7307  -25.9179  -43.2878 C.3       13 UNK        -0.1800 
     77 C          -2.3294  -26.8272  -45.5733 C.2       13 UNK         0.5000 
     78 O          -2.7841  -27.9700  -45.6310 O.2       13 UNK        -0.5000 
     79 N          -1.4947  -26.3116  -46.4857 N.am      14 UNK        -0.5000 
     80 CA         -1.0696  -26.9799  -47.7177 C.3       14 UNK         0.1400 
     81 CB          0.1745  -26.2588  -48.2619 C.3       14 UNK        -0.1800 
     82 C          -2.1657  -27.0315  -48.8026 C.2       14 UNK         0.5000 
     83 O          -1.9882  -27.7353  -49.7970 O.2       14 UNK        -0.5000 
     84 N          -3.2523  -26.2673  -48.6116 N.am      15 UNK        -0.5000 
     85 CA         -4.3946  -26.0716  -49.5110 C.3       15 UNK         0.1400 
     86 CB         -5.1369  -27.3965  -49.7787 C.3       15 UNK        -0.1800 
     87 C          -4.0497  -25.3148  -50.8103 C.2       15 UNK         0.5000 
     88 O          -4.8787  -25.2610  -51.7179 O.2       15 UNK        -0.5000 
     89 N          -2.8664  -24.6907  -50.8693 N.am      16 UNK        -0.5000 
     90 CA         -2.4243  -23.8473  -51.9791 C.3       16 UNK         0.1400 
     91 CB         -0.9186  -23.5843  -51.8468 C.3       16 UNK        -0.1800 
     92 C          -3.2229  -22.5344  -52.0531 C.2       16 UNK         0.5000 
     93 O          -3.5472  -22.0777  -53.1507 O.2       16 UNK        -0.5000 
     94 N          -3.5868  -21.9894  -50.8830 N.am      17 UNK        -0.5000 
     95 CA         -4.4757  -20.8347  -50.7695 C.3       17 UNK         0.1400 
     96 CB         -4.4481  -20.2896  -49.3357 C.3       17 UNK        -0.1800 
     97 C          -5.9143  -21.1599  -51.2097 C.2       17 UNK         0.5000 
     98 O          -6.5403  -20.3437  -51.8848 O.2       17 UNK        -0.5000 
     99 N          -6.3920  -22.3651  -50.8641 N.am      18 UNK        -0.5000 
    100 CA        -7.7036  -22.8885  -51.2576 C.3       18 UNK         0.1400 
    101 CB        -8.0242  -24.1433  -50.4310 C.3       18 UNK        -0.1800 
    102 C         -7.7936  -23.1835  -52.7674 C.2       18 UNK         0.5000 
    103 O         -8.8384  -22.9468  -53.3739 O.2       18 UNK        -0.5000 
    104 N         -6.6811  -23.6473  -53.3531 N.am      19 UNK        -0.5000 
    105 CA        -6.4967  -23.8485  -54.7925 C.3       19 UNK         0.1400 
    106 CB        -5.2817  -24.7652  -55.0087 C.3       19 UNK        -0.1800 
    107 C         -6.3278  -22.5347  -55.5869 C.2       19 UNK         0.5000 
    108 O         -6.3095  -22.5805  -56.8175 O.2       19 UNK        -0.5000 
    109 N         -6.1998  -21.4009  -54.8806 N.am      20 UNK        -0.5000 
    110 CA        -6.0030  -20.0421  -55.3911 C.3       20 UNK         0.1400 
    111 CB        -7.2095  -19.5791  -56.2339 C.3       20 UNK        -0.1800 
    112 C         -4.6510  -19.8506  -56.1087 C.2       20 UNK         0.5000 
    113 O         -4.5450  -19.0248  -57.0177 O.2       20 UNK        -0.5000 
    114 N         -3.6195  -20.5822  -55.6650 N.am      21 UNK        -0.5000 
    115 CA        -2.2480  -20.4996  -56.1680 C.3       21 UNK         0.1400 
    116 CB        -1.5621  -21.8618  -55.9569 C.3       21 UNK        -0.1800 
    117 C         -1.4873  -19.3349  -55.4999 C.2       21 UNK         0.5000 
    118 O         -0.4699  -19.5533  -54.8404 O.2       21 UNK        -0.5000 
    119 N         -2.0227  -18.1157  -55.6467 N.am      22 UNK        -0.5000 
    120 CA        -1.5052  -16.8899  -55.0142 C.3       22 UNK         0.1400 
    121 C         -0.2182  -16.3166  -55.6821 C.2       22 UNK         0.5000 
    122 N          0.2002  -16.7911  -56.8494 N.am      22 UNK        -0.7600 
    123 O          0.4173  -15.4247  -55.1267 O.2       22 UNK        -0.5000 
    124 C124       -2.5867  -15.7824  -54.8906 C.3       23 UNK        -0.0398 
    125 S125       -4.1781  -16.1362  -54.0434 S.3       23 UNK        -0.2404 
    126 C126       -4.0205  -17.6778  -53.0813 C.3       23 UNK        -0.0205 
    127 H127        2.0481  -16.3290  -48.9400 H         1 UNK         0.0600 
    128 H128        3.1791  -16.3398  -47.5866 H         1 UNK         0.0600 
    129 H129        1.6987  -17.2981  -47.4984 H         1 UNK         0.0600 
    130 H130       -0.2363  -15.5163  -48.4023 H         1 UNK         0.3000 
    131 H131       -0.7226  -13.9355  -46.0839 H         1 UNK         0.0600 
    132 H132       -2.8623  -13.3056  -47.2847 H         1 UNK         0.0800 
    133 H133       -2.2866  -14.1541  -48.6995 H         1 UNK         0.0800 
    134 H134       -4.5851  -15.4460  -48.5813 H         1 UNK         0.0800 
    135 H135       -4.5996  -17.0314  -47.8487 H         1 UNK         0.0800 
    136 H136       -4.8254  -16.4626  -50.7875 H         1 UNK         0.1150 
    137 H137       -1.5518  -18.6598  -52.4578 H         1 UNK         0.1150 
    138 H138       -1.4254  -17.4644  -48.3619 H         1 UNK         0.1150 
    139 H139        0.6350  -18.2522  -49.5231 H         1 UNK         0.0800 
    140 H140        0.5789  -18.6424  -51.2210 H         1 UNK         0.0800 
    141 H141       -1.1906  -19.8341  -47.8192 H         1 UNK         0.0800 
    142 H142        0.5436  -19.9132  -47.7202 H         1 UNK         0.0800 
    143 H143        0.1848  -22.5449  -48.0690 H         1 UNK         0.0600 
    144 H144        0.4949  -20.9834  -45.7401 H         1 UNK         0.3000 
    145 H145        0.8221  -23.7054  -43.4293 H         1 UNK         0.0600 
    146 H146        2.9598  -22.4576  -43.0339 H         1 UNK         0.0600 
    147 H147        3.0451  -23.4735  -44.4662 H         1 UNK         0.0600 
    148 H148        2.8318  -21.7388  -44.6393 H         1 UNK         0.0600 
    149 H149        1.0119  -20.9272  -42.9839 H         1 UNK         0.3000 
    150 H150       -2.4734  -20.2400  -42.5171 H         1 UNK         0.0600 
    151 H151       -0.1185  -20.4069  -40.5585 H         1 UNK         0.0600 
    152 H152       -1.6765  -21.1978  -40.3628 H         1 UNK         0.0600 
    153 H153       -1.5793  -19.4440  -40.3403 H         1 UNK         0.0600 
    154 H154       -0.0584  -18.6753  -42.3364 H         1 UNK         0.3000 
    155 H155       -0.2093  -17.3506  -45.6539 H         1 UNK         0.0600 
    156 H156       -1.7043  -15.9982  -44.1702 H         1 UNK         0.0600 
    157 H157       -0.0923  -15.2973  -44.2470 H         1 UNK         0.0600 
    158 H158       -0.5888  -16.2098  -42.8283 H         1 UNK         0.0600 
    159 H159        1.6481  -16.9790  -43.5198 H         1 UNK         0.3000 
    160 H160        3.8671  -19.6721  -44.2357 H         1 UNK         0.0600 
    161 H161        4.1656  -16.6793  -44.8422 H         1 UNK         0.0600 
    162 H162        4.4623  -17.9877  -45.9807 H         1 UNK         0.0600 
    163 H163        5.4879  -17.8149  -44.5656 H         1 UNK         0.0600 
    164 H164        4.1409  -17.4883  -42.4754 H         1 UNK         0.3000 
    165 H165        1.8868  -18.1401  -39.9850 H         1 UNK         0.0600 
    166 H166        3.6625  -18.6797  -38.3413 H         1 UNK         0.0600 
    167 H167        4.7572  -19.1600  -39.6393 H         1 UNK         0.0600 
    168 H168        3.3005  -20.0928  -39.3172 H         1 UNK         0.0600 
    169 H169        4.2873  -16.7189  -39.7263 H         1 UNK         0.3000 
    170 H170        4.0067  -14.3447  -39.7305 H         1 UNK         0.0600 
    171 H171        5.7470  -15.4154  -41.1851 H         1 UNK         0.0600 
    172 H172        4.9989  -14.7196  -42.6176 H         1 UNK         0.0600 
    173 H173        5.7449  -13.6768  -41.4079 H         1 UNK         0.0600 
    174 H174        3.4777  -12.8726  -42.1189 H         1 UNK         0.3000 
    175 H175        0.4257  -11.6655  -41.7182 H         1 UNK         0.0600 
    176 H176        2.4978  -10.0442  -40.1424 H         1 UNK         0.0600 
    177 H177        1.0704   -9.3826  -40.9404 H         1 UNK         0.0600 
    178 H178        0.8877  -10.4822  -39.5847 H         1 UNK         0.0600 
    179 H179        3.0140  -10.4877  -42.4987 H         1 UNK         0.3000 
    180 H180        3.2956  -10.1701  -44.8199 H         1 UNK         0.0600 
    181 H181        4.0985  -13.1403  -44.8353 H         1 UNK         0.0600 
    182 H182        4.7916  -11.8879  -43.8087 H         1 UNK         0.0600 
    183 H183        5.0471  -11.8357  -45.5438 H         1 UNK         0.0600 
    184 H184        2.1702  -12.4349  -46.4091 H         1 UNK         0.3000 
    185 H185        0.7860  -10.2630  -48.7621 H         1 UNK         0.0600 
    186 H186        2.0081  -11.4882  -50.5514 H         1 UNK         0.0600 
    187 H187        3.0500  -10.2803  -49.8165 H         1 UNK         0.0600 
    188 H188        3.2505  -11.9775  -49.3980 H         1 UNK         0.0600 
    189 H189        1.2270  -13.1273  -48.6374 H         1 UNK         0.3000 
    190 H190       -2.1834  -21.5247  -45.6382 H         1 UNK         0.3000 
    191 H191       -4.5103  -22.5370  -47.0371 H         1 UNK         0.0600 
    192 H192       -5.6525  -22.1236  -44.8797 H         1 UNK         0.0600 
    193 H193       -4.6869  -20.7300  -45.3435 H         1 UNK         0.0600 
    194 H194       -4.1136  -21.8217  -44.0857 H         1 UNK         0.0600 
    195 H195       -2.3878  -23.7991  -44.4244 H         1 UNK         0.3000 
    196 H196       -3.7091  -26.2634  -44.0357 H         1 UNK         0.0600 
    197 H197       -0.7573  -25.5553  -43.6178 H         1 UNK         0.0600 
    198 H198       -2.0523  -25.2990  -42.4500 H         1 UNK         0.0600 
    199 H199       -1.5925  -26.9318  -42.9104 H         1 UNK         0.0600 
    200 H200       -1.0956  -25.3921  -46.3126 H         1 UNK         0.3000 
    201 H201       -0.7947  -28.0090  -47.4781 H         1 UNK         0.0600 
    202 H202       -0.0414  -25.2185  -48.5095 H         1 UNK         0.0600 
    203 H203        0.5473  -26.7418  -49.1660 H         1 UNK         0.0600 
    204 H204        0.9851  -26.2676  -47.5331 H         1 UNK         0.0600 
    205 H205       -3.3011  -25.7372  -47.7505 H         1 UNK         0.3000 
    206 H206       -5.0833  -25.4211  -48.9705 H         1 UNK         0.0600 
    207 H207       -5.3779  -27.9080  -48.8468 H         1 UNK         0.0600 
    208 H208       -6.0770  -27.2193  -50.3022 H         1 UNK         0.0600 
    209 H209       -4.5480  -28.0765  -50.3943 H         1 UNK         0.0600 
    210 H210       -2.2800  -24.7056  -50.0460 H         1 UNK         0.3000 
    211 H211       -2.5927  -24.3874  -52.9129 H         1 UNK         0.0600 
    212 H212       -0.5735  -22.8677  -52.5935 H         1 UNK         0.0600 
    213 H213       -0.3483  -24.5026  -51.9867 H         1 UNK         0.0600 
    214 H214       -0.6674  -23.1870  -50.8639 H         1 UNK         0.0600 
    215 H215       -3.2439  -22.4066  -50.0236 H         1 UNK         0.3000 
    216 H216       -4.0952  -20.0634  -51.4366 H         1 UNK         0.0600 
    217 H217       -4.8727  -20.9980  -48.6272 H         1 UNK         0.0600 
    218 H218       -5.0271  -19.3686  -49.2612 H         1 UNK         0.0600 
    219 H219       -3.4310  -20.0595  -49.0192 H         1 UNK         0.0600 
    220 H220       -5.7963  -22.9834  -50.3362 H         1 UNK         0.3000 
    221 H221       -8.4524  -22.1287  -51.0236 H         1 UNK         0.0600 
    222 H222       -8.0020  -23.9297  -49.3623 H         1 UNK         0.0600 
    223 H223       -7.3191  -24.9506  -50.6274 H         1 UNK         0.0600 
    224 H224       -9.0212  -24.5180  -50.6662 H         1 UNK         0.0600 
    225 H225       -5.8961  -23.9044  -52.7632 H         1 UNK         0.3000 
    226 H226       -7.3810  -24.3548  -55.1844 H         1 UNK         0.0600 
    227 H227       -4.3618  -24.3011  -54.6528 H         1 UNK         0.0600 
    228 H228       -5.4036  -25.7136  -54.4852 H         1 UNK         0.0600 
    229 H229       -5.1450  -24.9942  -56.0663 H         1 UNK         0.0600 
    230 H230       -6.2156  -21.4796  -53.8724 H         1 UNK         0.3000 
    231 H231       -5.9665  -19.4015  -54.5107 H         1 UNK         0.0600 
    232 H232       -8.1459  -19.7289  -55.6964 H         1 UNK         0.0600 
    233 H233       -7.2751  -20.1154  -57.1808 H         1 UNK         0.0600 
    234 H234       -7.1371  -18.5161  -56.4666 H         1 UNK         0.0600 
    235 H235       -3.7596  -21.1923  -54.8633 H         1 UNK         0.3000 
    236 H236       -2.2685  -20.3040  -57.2421 H         1 UNK         0.0600 
    237 H237       -2.1173  -22.6625  -56.4460 H         1 UNK         0.0600 
    238 H238       -0.5551  -21.8611  -56.3758 H         1 UNK         0.0600 
    239 H239       -1.4772  -22.1124  -54.8993 H         1 UNK         0.0600 
    240 H240       -2.8675  -18.0245  -56.1992 H         1 UNK         0.3000 
    241 H241       -1.1922  -17.1415  -54.0040 H         1 UNK         0.0600 
    242 H242        1.0360  -16.4142  -57.2685 H         1 UNK         0.3800 
    243 H243       -0.3096  -17.5226  -57.3180 H         1 UNK         0.3800 
    244 H244       -2.8411  -15.4187  -55.8876 H         1 UNK         0.0800 
    245 H245       -2.1618  -14.9216  -54.3710 H         1 UNK         0.0800 
    246 H246       -3.6103  -18.4852  -53.6800 H         1 UNK         0.0800 
    247 H247       -5.0298  -18.0030  -52.8257 H         1 UNK         0.0800 
@<TRIPOS>BOND
     1    1    2 1    
     2    1  127 1    
     3    1  128 1    
     4    1  129 1    
     5    2    3 2    
     6    2    4 am   BACKBONE|DICT|INTERRES
     7    4    5 1    
     8    4  130 1    
     9    5    6 1    
    10    5   65 1    
    11    5  131 1    
    12    6    7 1    
    13    6  132 1    
    14    6  133 1    
    15    7    8 1    
    16    8    9 1    
    17    8  134 1    
    18    8  135 1    
    19    9   10 ar   
    20    9   14 ar   
    21   10   11 ar   
    22   10  136 1    
    23   11   12 ar   
    24   11  126 1    
    25   12   13 ar   
    26   12  137 1    
    27   13   14 ar   
    28   13   15 1    
    29   14  138 1    
    30   15   16 1    
    31   15  139 1    
    32   15  140 1    
    33   16   17 1    
    34   17   18 1    
    35   17  141 1    
    36   17  142 1    
    37   18   19 1    
    38   18   67 1    
    39   18  143 1    
    40   19   20 am   BACKBONE|DICT|INTERRES
    41   19  144 1    
    42   20   21 2    
    43   20   22 1    
    44   22   23 1    
    45   22   24 1    
    46   22  145 1    
    47   23  146 1    
    48   23  147 1    
    49   23  148 1    
    50   24   25 am   BACKBONE|DICT|INTERRES
    51   24  149 1    
    52   25   26 2    
    53   25   27 1    
    54   27   28 1    
    55   27   29 1    
    56   27  150 1    
    57   28  151 1    
    58   28  152 1    
    59   28  153 1    
    60   29   30 am   BACKBONE|DICT|INTERRES
    61   29  154 1    
    62   30   31 2    
    63   30   32 1    
    64   32   33 1    
    65   32   34 1    
    66   32  155 1    
    67   33  156 1    
    68   33  157 1    
    69   33  158 1    
    70   34   35 am   BACKBONE|DICT|INTERRES
    71   34  159 1    
    72   35   36 2    
    73   35   37 1    
    74   37   38 1    
    75   37   39 1    
    76   37  160 1    
    77   38  161 1    
    78   38  162 1    
    79   38  163 1    
    80   39   40 am   BACKBONE|DICT|INTERRES
    81   39  164 1    
    82   40   41 2    
    83   40   42 1    
    84   42   43 1    
    85   42   44 1    
    86   42  165 1    
    87   43  166 1    
    88   43  167 1    
    89   43  168 1    
    90   44   45 am   BACKBONE|DICT|INTERRES
    91   44  169 1    
    92   45   46 2    
    93   45   47 1    
    94   47   48 1    
    95   47   49 1    
    96   47  170 1    
    97   48  171 1    
    98   48  172 1    
    99   48  173 1    
   100   49   50 am   BACKBONE|DICT|INTERRES
   101   49  174 1    
   102   50   51 2    
   103   50   52 1    
   104   52   53 1    
   105   52   54 1    
   106   52  175 1    
   107   53  176 1    
   108   53  177 1    
   109   53  178 1    
   110   54   55 am   BACKBONE|DICT|INTERRES
   111   54  179 1    
   112   55   56 2    
   113   55   57 1    
   114   57   58 1    
   115   57   59 1    
   116   57  180 1    
   117   58  181 1    
   118   58  182 1    
   119   58  183 1    
   120   59   60 am   BACKBONE|DICT|INTERRES
   121   59  184 1    
   122   60   61 2    
   123   60   62 1    
   124   62   63 1    
   125   62   64 1    
   126   62  185 1    
   127   63  186 1    
   128   63  187 1    
   129   63  188 1    
   130   64   65 am   BACKBONE|DICT|INTERRES
   131   64  189 1    
   132   65   66 2    
   133   67   68 2    
   134   67   69 am   BACKBONE|DICT|INTERRES
   135   69   70 1    
   136   69  190 1    
   137   70   71 1    
   138   70   72 1    
   139   70  191 1    
   140   71  192 1    
   141   71  193 1    
   142   71  194 1    
   143   72   73 2    
   144   72   74 am   BACKBONE|DICT|INTERRES
   145   74   75 1    
   146   74  195 1    
   147   75   76 1    
   148   75   77 1    
   149   75  196 1    
   150   76  197 1    
   151   76  198 1    
   152   76  199 1    
   153   77   78 2    
   154   77   79 am   BACKBONE|DICT|INTERRES
   155   79   80 1    
   156   79  200 1    
   157   80   81 1    
   158   80   82 1    
   159   80  201 1    
   160   81  202 1    
   161   81  203 1    
   162   81  204 1    
   163   82   83 2    
   164   82   84 am   BACKBONE|DICT|INTERRES
   165   84   85 1    
   166   84  205 1    
   167   85   86 1    
   168   85   87 1    
   169   85  206 1    
   170   86  207 1    
   171   86  208 1    
   172   86  209 1    
   173   87   88 2    
   174   87   89 am   BACKBONE|DICT|INTERRES
   175   89   90 1    
   176   89  210 1    
   177   90   91 1    
   178   90   92 1    
   179   90  211 1    
   180   91  212 1    
   181   91  213 1    
   182   91  214 1    
   183   92   93 2    
   184   92   94 am   BACKBONE|DICT|INTERRES
   185   94   95 1    
   186   94  215 1    
   187   95   96 1    
   188   95   97 1    
   189   95  216 1    
   190   96  217 1    
   191   96  218 1    
   192   96  219 1    
   193   97   98 2    
   194   97   99 am   BACKBONE|DICT|INTERRES
   195   99  100 1    
   196   99  220 1    
   197  100  101 1    
   198  100  102 1    
   199  100  221 1    
   200  101  222 1    
   201  101  223 1    
   202  101  224 1    
   203  102  103 2    
   204  102  104 am   BACKBONE|DICT|INTERRES
   205  104  105 1    
   206  104  225 1    
   207  105  106 1    
   208  105  107 1    
   209  105  226 1    
   210  106  227 1    
   211  106  228 1    
   212  106  229 1    
   213  107  108 2    
   214  107  109 am   BACKBONE|DICT|INTERRES
   215  109  110 1    
   216  109  230 1    
   217  110  111 1    
   218  110  112 1    
   219  110  231 1    
   220  111  232 1    
   221  111  233 1    
   222  111  234 1    
   223  112  113 2    
   224  112  114 am   BACKBONE|DICT|INTERRES
   225  114  115 1    
   226  114  235 1    
   227  115  116 1    
   228  115  117 1    
   229  115  236 1    
   230  116  237 1    
   231  116  238 1    
   232  116  239 1    
   233  117  118 2    
   234  117  119 am   BACKBONE|DICT|INTERRES
   235  119  120 1    
   236  119  240 1    
   237  120  121 1    
   238  120  124 1    
   239  120  241 1    
   240  121  122 am   BACKBONE|DICT|INTERRES
   241  121  123 2    
   242  122  242 1    
   243  122  243 1    
   244  124  125 1    
   245  124  244 1    
   246  124  245 1    
   247  125  126 1    
   248  126  246 1    
   249  126  247 1    
@<TRIPOS>SUBSTRUCTURE
     1 UNK         1 GROUP             0       ****    0 ROOT    
