@<TRIPOS>MOLECULE
3R540
247   249    1
SMALL
USER_CHARGES


@<TRIPOS>ATOM
      1 CA          2.9449  -11.5412  -48.0767 C.3       0 UNK        -0.1800 
      2 C           2.3405  -11.9043  -46.7290 C.2       0 UNK         0.5000 
      3 O           2.8470  -11.4726  -45.6947 O.2       0 UNK        -0.5000 
      4 N           1.2455  -12.6752  -46.7352 N.am      1 UNK        -0.5000 
      5 CA          0.5478  -13.2070  -45.5528 C.3       1 UNK         0.1400 
      6 C6         -0.5902  -14.1811  -45.9489 C.3       23 UNK        -0.0398 
      7 S7          0.0236  -15.6511  -46.8359 S.3       23 UNK        -0.2404 
      8 C8         -0.3787  -15.2385  -48.5682 C.3       23 UNK        -0.0205 
      9 C9          0.1090  -16.2689  -49.5859 C.ar      23 UNK        -0.0193 
     10 C10        -0.6372  -16.4890  -50.7484 C.ar      23 UNK        -0.1150 
     11 C11        -0.1831  -17.3712  -51.7338 C.ar      23 UNK        -0.0193 
     12 C12         1.0188  -18.0570  -51.5423 C.ar      23 UNK        -0.1150 
     13 C13         1.7758  -17.8513  -50.3865 C.ar      23 UNK        -0.0193 
     14 C14         1.3207  -16.9510  -49.4186 C.ar      23 UNK        -0.1150 
     15 C15         3.1082  -18.5655  -50.2056 C.3       23 UNK        -0.0205 
     16 S16         2.9132  -20.3347  -49.8193 S.3       23 UNK        -0.2404 
     17 C17         2.1204  -20.2755  -48.1769 C.3       23 UNK        -0.0398 
     18 CA          0.8895  -21.2065  -48.0685 C.3       11 UNK         0.1400 
     19 N           0.5307  -21.4479  -46.6706 N.am      11 UNK        -0.5000 
     20 C          -0.1060  -22.5388  -46.2204 C.2       10 UNK         0.5000 
     21 O          -0.3773  -23.5080  -46.9270 O.2       10 UNK        -0.5000 
     22 CA         -0.5303  -22.5506  -44.7364 C.3       10 UNK         0.1400 
     23 CB          0.5050  -23.3026  -43.8876 C.3       10 UNK        -0.1800 
     24 N          -0.7237  -21.2107  -44.1790 N.am      10 UNK        -0.5000 
     25 C          -1.6786  -20.3560  -44.5748 C.2       9 UNK         0.5000 
     26 O          -2.5509  -20.6514  -45.3888 O.2       9 UNK        -0.5000 
     27 CA         -1.6174  -18.9141  -44.0324 C.3       9 UNK         0.1400 
     28 CB         -2.6201  -18.7300  -42.8854 C.3       9 UNK        -0.1800 
     29 N          -0.2822  -18.5022  -43.5901 N.am      9 UNK        -0.5000 
     30 C           0.8048  -18.4542  -44.3775 C.2       8 UNK         0.5000 
     31 O           0.7874  -18.7622  -45.5694 O.2       8 UNK        -0.5000 
     32 CA          2.1444  -18.0617  -43.7255 C.3       8 UNK         0.1400 
     33 CB          2.4676  -16.5889  -44.0143 C.3       8 UNK        -0.1800 
     34 N           2.1850  -18.2975  -42.2796 N.am      8 UNK        -0.5000 
     35 C           2.1055  -19.5065  -41.6995 C.2       7 UNK         0.5000 
     36 O           2.0243  -20.5574  -42.3365 O.2       7 UNK        -0.5000 
     37 CA          2.0673  -19.5606  -40.1570 C.3       7 UNK         0.1400 
     38 CB          3.4637  -19.8725  -39.5985 C.3       7 UNK        -0.1800 
     39 N           1.5698  -18.3351  -39.5278 N.am      7 UNK        -0.5000 
     40 C           0.3561  -17.7984  -39.7179 C.2       6 UNK         0.5000 
     41 O          -0.5209  -18.3273  -40.4003 O.2       6 UNK        -0.5000 
     42 CA          0.0923  -16.4145  -39.0890 C.3       6 UNK         0.1400 
     43 CB         -0.6917  -16.5660  -37.7767 C.3       6 UNK        -0.1800 
     44 N           1.2913  -15.6026  -38.8377 N.am      6 UNK        -0.5000 
     45 C           2.2039  -15.2461  -39.7527 C.2       5 UNK         0.5000 
     46 O           2.1967  -15.6490  -40.9185 O.2       5 UNK        -0.5000 
     47 CA          3.3440  -14.3341  -39.2579 C.3       5 UNK         0.1400 
     48 CB          4.3949  -15.1601  -38.4986 C.3       5 UNK        -0.1800 
     49 N           4.0072  -13.6373  -40.3607 N.am      5 UNK        -0.5000 
     50 C           3.4357  -12.7004  -41.1278 C.2       4 UNK         0.5000 
     51 O           2.3166  -12.2283  -40.9097 O.2       4 UNK        -0.5000 
     52 CA          4.2608  -12.2498  -42.3504 C.3       4 UNK         0.1400 
     53 CB          4.3568  -13.3817  -43.3875 C.3       4 UNK        -0.1800 
     54 N           3.7002  -11.0742  -43.0118 N.am      4 UNK        -0.5000 
     55 C           3.7075   -9.8269  -42.5261 C.2       3 UNK         0.5000 
     56 O           4.2467   -9.5059  -41.4658 O.2       3 UNK        -0.5000 
     57 CA          2.9981   -8.7568  -43.3725 C.3       3 UNK         0.1400 
     58 CB          3.9374   -8.2302  -44.4693 C.3       3 UNK        -0.1800 
     59 N           1.7841   -9.2838  -43.9983 N.am      3 UNK        -0.5000 
     60 C           0.5427   -9.1071  -43.5250 C.2       2 UNK         0.5000 
     61 O           0.2851   -8.4639  -42.5065 O.2       2 UNK        -0.5000 
     62 CA         -0.6167   -9.7313  -44.3288 C.3       2 UNK         0.1400 
     63 CB         -1.2299   -8.6898  -45.2777 C.3       2 UNK        -0.1800 
     64 N          -0.2117  -10.9002  -45.1103 N.am      2 UNK        -0.5000 
     65 C           0.0088  -12.1183  -44.5962 C.2       1 UNK         0.5000 
     66 O          -0.1908  -12.4014  -43.4154 O.2       1 UNK        -0.5000 
     67 C          -0.3283  -20.6769  -48.8560 C.2       11 UNK         0.5000 
     68 O          -0.5454  -21.0979  -49.9911 O.2       11 UNK        -0.5000 
     69 N          -1.1402  -19.8144  -48.2257 N.am      12 UNK        -0.5000 
     70 CA         -2.3887  -19.3011  -48.7979 C.3       12 UNK         0.1400 
     71 CB         -2.9197  -18.1552  -47.9248 C.3       12 UNK        -0.1800 
     72 C          -3.4668  -20.3910  -48.9602 C.2       12 UNK         0.5000 
     73 O          -4.2435  -20.3406  -49.9121 O.2       12 UNK        -0.5000 
     74 N          -3.4846  -21.3557  -48.0318 N.am      13 UNK        -0.5000 
     75 CA         -4.3997  -22.4958  -47.9875 C.3       13 UNK         0.1400 
     76 CB         -4.9196  -22.6461  -46.5471 C.3       13 UNK        -0.1800 
     77 C          -3.7417  -23.7990  -48.4907 C.2       13 UNK         0.5000 
     78 O          -4.1978  -24.8830  -48.1190 O.2       13 UNK        -0.5000 
     79 N          -2.6784  -23.6815  -49.3026 N.am      14 UNK        -0.5000 
     80 CA         -1.8309  -24.7782  -49.7835 C.3       14 UNK         0.1400 
     81 CB         -0.8046  -24.2397  -50.7905 C.3       14 UNK        -0.1800 
     82 C          -2.6052  -25.9595  -50.3943 C.2       14 UNK         0.5000 
     83 O          -3.4771  -25.7530  -51.2436 O.2       14 UNK        -0.5000 
     84 N          -2.2778  -27.1699  -49.9160 N.am      15 UNK        -0.5000 
     85 CA         -2.8127  -28.4815  -50.3105 C.3       15 UNK         0.1400 
     86 CB         -2.3946  -28.7996  -51.7616 C.3       15 UNK        -0.1800 
     87 C          -4.3356  -28.6549  -50.1076 C.2       15 UNK         0.5000 
     88 O          -4.9074  -29.6048  -50.6435 O.2       15 UNK        -0.5000 
     89 N          -4.9726  -27.7149  -49.3894 N.am      16 UNK        -0.5000 
     90 CA         -6.4212  -27.4837  -49.2971 C.3       16 UNK         0.1400 
     91 CB         -7.1481  -28.6844  -48.6572 C.3       16 UNK        -0.1800 
     92 C          -7.0647  -27.0474  -50.6363 C.2       16 UNK         0.5000 
     93 O          -8.2895  -26.9457  -50.7184 O.2       16 UNK        -0.5000 
     94 N          -6.2341  -26.7721  -51.6509 N.am      17 UNK        -0.5000 
     95 CA         -6.6154  -26.2339  -52.9526 C.3       17 UNK         0.1400 
     96 CB         -5.5982  -26.7162  -53.9974 C.3       17 UNK        -0.1800 
     97 C          -6.6838  -24.6986  -52.9062 C.2       17 UNK         0.5000 
     98 O          -7.5116  -24.1089  -53.6020 O.2       17 UNK        -0.5000 
     99 N          -5.8401  -24.0902  -52.0570 N.am      18 UNK        -0.5000 
    100 CA        -5.8211  -22.6769  -51.6791 C.3       18 UNK         0.1400 
    101 CB        -7.0565  -22.3502  -50.8099 C.3       18 UNK        -0.1800 
    102 C         -5.6580  -21.7548  -52.9005 C.2       18 UNK         0.5000 
    103 O         -4.5680  -21.6975  -53.4684 O.2       18 UNK        -0.5000 
    104 N         -6.7465  -21.1016  -53.3290 N.am      19 UNK        -0.5000 
    105 CA        -6.8139  -20.2676  -54.5299 C.3       19 UNK         0.1400 
    106 CB        -8.2275  -19.6821  -54.6585 C.3       19 UNK        -0.1800 
    107 C         -6.4177  -21.0103  -55.8216 C.2       19 UNK         0.5000 
    108 O         -5.8139  -20.4009  -56.7039 O.2       19 UNK        -0.5000 
    109 N         -6.7150  -22.3157  -55.8953 N.am      20 UNK        -0.5000 
    110 CA        -6.3297  -23.1773  -57.0138 C.3       20 UNK         0.1400 
    111 CB        -7.2548  -24.4030  -57.0570 C.3       20 UNK        -0.1800 
    112 C         -4.8428  -23.5895  -56.9852 C.2       20 UNK         0.5000 
    113 O         -4.3147  -23.9687  -58.0312 O.2       20 UNK        -0.5000 
    114 N         -4.1861  -23.4955  -55.8186 N.am      21 UNK        -0.5000 
    115 CA        -2.7369  -23.6590  -55.6834 C.3       21 UNK         0.1400 
    116 CB        -2.3854  -24.1941  -54.2854 C.3       21 UNK        -0.1800 
    117 C         -2.0075  -22.3347  -55.9693 C.2       21 UNK         0.5000 
    118 O         -0.9968  -22.3411  -56.6733 O.2       21 UNK        -0.5000 
    119 N         -2.5413  -21.2273  -55.4361 N.am      22 UNK        -0.5000 
    120 CA        -2.0606  -19.8585  -55.6805 C.3       22 UNK         0.1400 
    121 C         -2.2093  -19.3947  -57.1578 C.2       22 UNK         0.5000 
    122 N         -3.3100  -19.6942  -57.8352 N.am      22 UNK        -0.7600 
    123 O         -1.3109  -18.7542  -57.6968 O.2       22 UNK        -0.5000 
    124 C124       -2.7255  -18.8388  -54.7215 C.3       23 UNK        -0.0398 
    125 S125       -2.0812  -18.9546  -53.0173 S.3       23 UNK        -0.2404 
    126 C126       -0.9509  -17.5295  -53.0361 C.3       23 UNK        -0.0205 
    127 H127        2.9467  -10.4590  -48.2067 H         1 UNK         0.0600 
    128 H128        2.3893  -11.9841  -48.9036 H         1 UNK         0.0600 
    129 H129        3.9748  -11.8939  -48.1305 H         1 UNK         0.0600 
    130 H130        0.8820  -12.9886  -47.6222 H         1 UNK         0.3000 
    131 H131        1.2864  -13.7724  -44.9817 H         1 UNK         0.0600 
    132 H132       -1.1059  -14.5456  -45.0583 H         1 UNK         0.0800 
    133 H133       -1.3470  -13.6736  -46.5495 H         1 UNK         0.0800 
    134 H134        0.0630  -14.2762  -48.8254 H         1 UNK         0.0800 
    135 H135       -1.4601  -15.1175  -48.6493 H         1 UNK         0.0800 
    136 H136       -1.5615  -15.9499  -50.9024 H         1 UNK         0.1150 
    137 H137        1.3751  -18.7393  -52.3014 H         1 UNK         0.1150 
    138 H138        1.9212  -16.7739  -48.5379 H         1 UNK         0.1150 
    139 H139        3.6996  -18.0906  -49.4211 H         1 UNK         0.0800 
    140 H140        3.6907  -18.4698  -51.1230 H         1 UNK         0.0800 
    141 H141        1.8578  -19.2512  -47.9128 H         1 UNK         0.0800 
    142 H142        2.8764  -20.5805  -47.4520 H         1 UNK         0.0800 
    143 H143        1.1666  -22.1670  -48.5091 H         1 UNK         0.0600 
    144 H144        0.6866  -20.6706  -46.0370 H         1 UNK         0.3000 
    145 H145       -1.4810  -23.0838  -44.6704 H         1 UNK         0.0600 
    146 H146        0.1926  -23.3635  -42.8450 H         1 UNK         0.0600 
    147 H147        0.6381  -24.3236  -44.2477 H         1 UNK         0.0600 
    148 H148        1.4798  -22.8140  -43.9176 H         1 UNK         0.0600 
    149 H149       -0.0268  -20.8898  -43.5192 H         1 UNK         0.3000 
    150 H150       -1.9067  -18.2473  -44.8470 H         1 UNK         0.0600 
    151 H151       -2.3966  -19.3913  -42.0476 H         1 UNK         0.0600 
    152 H152       -3.6355  -18.9525  -43.2161 H         1 UNK         0.0600 
    153 H153       -2.6157  -17.7045  -42.5154 H         1 UNK         0.0600 
    154 H154       -0.1834  -18.2785  -42.6072 H         1 UNK         0.3000 
    155 H155        2.9217  -18.6761  -44.1842 H         1 UNK         0.0600 
    156 H156        1.7097  -15.9227  -43.6004 H         1 UNK         0.0600 
    157 H157        2.5180  -16.4021  -45.0877 H         1 UNK         0.0600 
    158 H158        3.4309  -16.3075  -43.5896 H         1 UNK         0.0600 
    159 H159        2.2264  -17.4686  -41.6930 H         1 UNK         0.3000 
    160 H160        1.3943  -20.3735  -39.8768 H         1 UNK         0.0600 
    161 H161        4.1737  -19.0758  -39.8244 H         1 UNK         0.0600 
    162 H162        3.8586  -20.7954  -40.0255 H         1 UNK         0.0600 
    163 H163        3.4367  -20.0028  -38.5164 H         1 UNK         0.0600 
    164 H164        2.2269  -17.8220  -38.9596 H         1 UNK         0.3000 
    165 H165       -0.5291  -15.8599  -39.7949 H         1 UNK         0.0600 
    166 H166       -0.9858  -15.5953  -37.3771 H         1 UNK         0.0600 
    167 H167       -0.1042  -17.0803  -37.0150 H         1 UNK         0.0600 
    168 H168       -1.6057  -17.1416  -37.9305 H         1 UNK         0.0600 
    169 H169        1.3908  -15.2480  -37.8973 H         1 UNK         0.3000 
    170 H170        2.9232  -13.5865  -38.5823 H         1 UNK         0.0600 
    171 H171        3.9547  -15.6634  -37.6369 H         1 UNK         0.0600 
    172 H172        4.8401  -15.9270  -39.1341 H         1 UNK         0.0600 
    173 H173        5.1993  -14.5266  -38.1239 H         1 UNK         0.0600 
    174 H174        4.9144  -13.9915  -40.6250 H         1 UNK         0.3000 
    175 H175        5.2676  -12.0014  -42.0084 H         1 UNK         0.0600 
    176 H176        3.3697  -13.6827  -43.7391 H         1 UNK         0.0600 
    177 H177        4.9402  -13.0745  -44.2558 H         1 UNK         0.0600 
    178 H178        4.8404  -14.2655  -42.9705 H         1 UNK         0.0600 
    179 H179        3.2642  -11.2391  -43.9149 H         1 UNK         0.3000 
    180 H180        2.7512   -7.9205  -42.7150 H         1 UNK         0.0600 
    181 H181        4.2256   -9.0172  -45.1676 H         1 UNK         0.0600 
    182 H182        4.8522   -7.8226  -44.0373 H         1 UNK         0.0600 
    183 H183        3.4644   -7.4320  -45.0417 H         1 UNK         0.0600 
    184 H184        1.9207   -9.8818  -44.8046 H         1 UNK         0.3000 
    185 H185       -1.3867  -10.0358  -43.6166 H         1 UNK         0.0600 
    186 H186       -2.0935   -9.0960  -45.8047 H         1 UNK         0.0600 
    187 H187       -1.5706   -7.8121  -44.7266 H         1 UNK         0.0600 
    188 H188       -0.5096   -8.3500  -46.0230 H         1 UNK         0.0600 
    189 H189       -0.0305  -10.7531  -46.0925 H         1 UNK         0.3000 
    190 H190       -0.8970  -19.5027  -47.2962 H         1 UNK         0.3000 
    191 H191       -2.1641  -18.9015  -49.7890 H         1 UNK         0.0600 
    192 H192       -3.7912  -17.6892  -48.3858 H         1 UNK         0.0600 
    193 H193       -2.1690  -17.3792  -47.7925 H         1 UNK         0.0600 
    194 H194       -3.2199  -18.5036  -46.9367 H         1 UNK         0.0600 
    195 H195       -2.8606  -21.2606  -47.2364 H         1 UNK         0.3000 
    196 H196       -5.2597  -22.3004  -48.6265 H         1 UNK         0.0600 
    197 H197       -4.1193  -22.9228  -45.8595 H         1 UNK         0.0600 
    198 H198       -5.3610  -21.7162  -46.1880 H         1 UNK         0.0600 
    199 H199       -5.6905  -23.4150  -46.4829 H         1 UNK         0.0600 
    200 H200       -2.3729  -22.7503  -49.5495 H         1 UNK         0.3000 
    201 H201       -1.2811  -25.1490  -48.9167 H         1 UNK         0.0600 
    202 H202       -1.2767  -23.6254  -51.5572 H         1 UNK         0.0600 
    203 H203       -0.2760  -25.0497  -51.2951 H         1 UNK         0.0600 
    204 H204       -0.0496  -23.6346  -50.2904 H         1 UNK         0.0600 
    205 H205       -1.5716  -27.2087  -49.1939 H         1 UNK         0.3000 
    206 H206       -2.3370  -29.2149  -49.6581 H         1 UNK         0.0600 
    207 H207       -1.3183  -28.6910  -51.8948 H         1 UNK         0.0600 
    208 H208       -2.6492  -29.8254  -52.0304 H         1 UNK         0.0600 
    209 H209       -2.8884  -28.1424  -52.4783 H         1 UNK         0.0600 
    210 H210       -4.4081  -26.9718  -48.9934 H         1 UNK         0.3000 
    211 H211       -6.5385  -26.6342  -48.6227 H         1 UNK         0.0600 
    212 H212       -8.1839  -28.4334  -48.4260 H         1 UNK         0.0600 
    213 H213       -6.6717  -28.9823  -47.7233 H         1 UNK         0.0600 
    214 H214       -7.1665  -29.5510  -49.3180 H         1 UNK         0.0600 
    215 H215       -5.2382  -26.8236  -51.4717 H         1 UNK         0.3000 
    216 H216       -7.6025  -26.6081  -53.2318 H         1 UNK         0.0600 
    217 H217       -4.5807  -26.4527  -53.7142 H         1 UNK         0.0600 
    218 H218       -5.7885  -26.2823  -54.9778 H         1 UNK         0.0600 
    219 H219       -5.6382  -27.7999  -54.1083 H         1 UNK         0.0600 
    220 H220       -5.1279  -24.6657  -51.6187 H         1 UNK         0.3000 
    221 H221       -4.9271  -22.5424  -51.0721 H         1 UNK         0.0600 
    222 H222       -7.0958  -22.9941  -49.9315 H         1 UNK         0.0600 
    223 H223       -7.9942  -22.4887  -51.3490 H         1 UNK         0.0600 
    224 H224       -7.0227  -21.3192  -50.4549 H         1 UNK         0.0600 
    225 H225       -7.6114  -21.2395  -52.8272 H         1 UNK         0.3000 
    226 H226       -6.1144  -19.4412  -54.3954 H         1 UNK         0.0600 
    227 H227       -8.9795  -20.4656  -54.7613 H         1 UNK         0.0600 
    228 H228       -8.4862  -19.0793  -53.7878 H         1 UNK         0.0600 
    229 H229       -8.3044  -19.0359  -55.5341 H         1 UNK         0.0600 
    230 H230       -7.1756  -22.7648  -55.1095 H         1 UNK         0.3000 
    231 H231       -6.4834  -22.6230  -57.9424 H         1 UNK         0.0600 
    232 H232       -7.2251  -24.9691  -56.1284 H         1 UNK         0.0600 
    233 H233       -6.9748  -25.0796  -57.8654 H         1 UNK         0.0600 
    234 H234       -8.2891  -24.1048  -57.2283 H         1 UNK         0.0600 
    235 H235       -4.6682  -23.1132  -55.0149 H         1 UNK         0.3000 
    236 H236       -2.3836  -24.3939  -56.4100 H         1 UNK         0.0600 
    237 H237       -2.7601  -25.2060  -54.1457 H         1 UNK         0.0600 
    238 H238       -1.3047  -24.2342  -54.1437 H         1 UNK         0.0600 
    239 H239       -2.7950  -23.5735  -53.4894 H         1 UNK         0.0600 
    240 H240       -3.3318  -21.3225  -54.8039 H         1 UNK         0.3000 
    241 H241       -0.9885  -19.8578  -55.4731 H         1 UNK         0.0600 
    242 H242       -3.3927  -19.3934  -58.7930 H         1 UNK         0.3800 
    243 H243       -4.1101  -20.1295  -57.3824 H         1 UNK         0.3800 
    244 H244       -3.8046  -18.9912  -54.6966 H         1 UNK         0.0800 
    245 H245       -2.5842  -17.8158  -55.0757 H         1 UNK         0.0800 
    246 H246       -1.5202  -16.6216  -53.2417 H         1 UNK         0.0800 
    247 H247       -0.2466  -17.6414  -53.8622 H         1 UNK         0.0800 
@<TRIPOS>BOND
     1    1    2 1    
     2    1  127 1    
     3    1  128 1    
     4    1  129 1    
     5    2    3 2    
     6    2    4 am   BACKBONE|DICT|INTERRES
     7    4    5 1    
     8    4  130 1    
     9    5    6 1    
    10    5   65 1    
    11    5  131 1    
    12    6    7 1    
    13    6  132 1    
    14    6  133 1    
    15    7    8 1    
    16    8    9 1    
    17    8  134 1    
    18    8  135 1    
    19    9   10 ar   
    20    9   14 ar   
    21   10   11 ar   
    22   10  136 1    
    23   11   12 ar   
    24   11  126 1    
    25   12   13 ar   
    26   12  137 1    
    27   13   14 ar   
    28   13   15 1    
    29   14  138 1    
    30   15   16 1    
    31   15  139 1    
    32   15  140 1    
    33   16   17 1    
    34   17   18 1    
    35   17  141 1    
    36   17  142 1    
    37   18   19 1    
    38   18   67 1    
    39   18  143 1    
    40   19   20 am   BACKBONE|DICT|INTERRES
    41   19  144 1    
    42   20   21 2    
    43   20   22 1    
    44   22   23 1    
    45   22   24 1    
    46   22  145 1    
    47   23  146 1    
    48   23  147 1    
    49   23  148 1    
    50   24   25 am   BACKBONE|DICT|INTERRES
    51   24  149 1    
    52   25   26 2    
    53   25   27 1    
    54   27   28 1    
    55   27   29 1    
    56   27  150 1    
    57   28  151 1    
    58   28  152 1    
    59   28  153 1    
    60   29   30 am   BACKBONE|DICT|INTERRES
    61   29  154 1    
    62   30   31 2    
    63   30   32 1    
    64   32   33 1    
    65   32   34 1    
    66   32  155 1    
    67   33  156 1    
    68   33  157 1    
    69   33  158 1    
    70   34   35 am   BACKBONE|DICT|INTERRES
    71   34  159 1    
    72   35   36 2    
    73   35   37 1    
    74   37   38 1    
    75   37   39 1    
    76   37  160 1    
    77   38  161 1    
    78   38  162 1    
    79   38  163 1    
    80   39   40 am   BACKBONE|DICT|INTERRES
    81   39  164 1    
    82   40   41 2    
    83   40   42 1    
    84   42   43 1    
    85   42   44 1    
    86   42  165 1    
    87   43  166 1    
    88   43  167 1    
    89   43  168 1    
    90   44   45 am   BACKBONE|DICT|INTERRES
    91   44  169 1    
    92   45   46 2    
    93   45   47 1    
    94   47   48 1    
    95   47   49 1    
    96   47  170 1    
    97   48  171 1    
    98   48  172 1    
    99   48  173 1    
   100   49   50 am   BACKBONE|DICT|INTERRES
   101   49  174 1    
   102   50   51 2    
   103   50   52 1    
   104   52   53 1    
   105   52   54 1    
   106   52  175 1    
   107   53  176 1    
   108   53  177 1    
   109   53  178 1    
   110   54   55 am   BACKBONE|DICT|INTERRES
   111   54  179 1    
   112   55   56 2    
   113   55   57 1    
   114   57   58 1    
   115   57   59 1    
   116   57  180 1    
   117   58  181 1    
   118   58  182 1    
   119   58  183 1    
   120   59   60 am   BACKBONE|DICT|INTERRES
   121   59  184 1    
   122   60   61 2    
   123   60   62 1    
   124   62   63 1    
   125   62   64 1    
   126   62  185 1    
   127   63  186 1    
   128   63  187 1    
   129   63  188 1    
   130   64   65 am   BACKBONE|DICT|INTERRES
   131   64  189 1    
   132   65   66 2    
   133   67   68 2    
   134   67   69 am   BACKBONE|DICT|INTERRES
   135   69   70 1    
   136   69  190 1    
   137   70   71 1    
   138   70   72 1    
   139   70  191 1    
   140   71  192 1    
   141   71  193 1    
   142   71  194 1    
   143   72   73 2    
   144   72   74 am   BACKBONE|DICT|INTERRES
   145   74   75 1    
   146   74  195 1    
   147   75   76 1    
   148   75   77 1    
   149   75  196 1    
   150   76  197 1    
   151   76  198 1    
   152   76  199 1    
   153   77   78 2    
   154   77   79 am   BACKBONE|DICT|INTERRES
   155   79   80 1    
   156   79  200 1    
   157   80   81 1    
   158   80   82 1    
   159   80  201 1    
   160   81  202 1    
   161   81  203 1    
   162   81  204 1    
   163   82   83 2    
   164   82   84 am   BACKBONE|DICT|INTERRES
   165   84   85 1    
   166   84  205 1    
   167   85   86 1    
   168   85   87 1    
   169   85  206 1    
   170   86  207 1    
   171   86  208 1    
   172   86  209 1    
   173   87   88 2    
   174   87   89 am   BACKBONE|DICT|INTERRES
   175   89   90 1    
   176   89  210 1    
   177   90   91 1    
   178   90   92 1    
   179   90  211 1    
   180   91  212 1    
   181   91  213 1    
   182   91  214 1    
   183   92   93 2    
   184   92   94 am   BACKBONE|DICT|INTERRES
   185   94   95 1    
   186   94  215 1    
   187   95   96 1    
   188   95   97 1    
   189   95  216 1    
   190   96  217 1    
   191   96  218 1    
   192   96  219 1    
   193   97   98 2    
   194   97   99 am   BACKBONE|DICT|INTERRES
   195   99  100 1    
   196   99  220 1    
   197  100  101 1    
   198  100  102 1    
   199  100  221 1    
   200  101  222 1    
   201  101  223 1    
   202  101  224 1    
   203  102  103 2    
   204  102  104 am   BACKBONE|DICT|INTERRES
   205  104  105 1    
   206  104  225 1    
   207  105  106 1    
   208  105  107 1    
   209  105  226 1    
   210  106  227 1    
   211  106  228 1    
   212  106  229 1    
   213  107  108 2    
   214  107  109 am   BACKBONE|DICT|INTERRES
   215  109  110 1    
   216  109  230 1    
   217  110  111 1    
   218  110  112 1    
   219  110  231 1    
   220  111  232 1    
   221  111  233 1    
   222  111  234 1    
   223  112  113 2    
   224  112  114 am   BACKBONE|DICT|INTERRES
   225  114  115 1    
   226  114  235 1    
   227  115  116 1    
   228  115  117 1    
   229  115  236 1    
   230  116  237 1    
   231  116  238 1    
   232  116  239 1    
   233  117  118 2    
   234  117  119 am   BACKBONE|DICT|INTERRES
   235  119  120 1    
   236  119  240 1    
   237  120  121 1    
   238  120  124 1    
   239  120  241 1    
   240  121  122 am   BACKBONE|DICT|INTERRES
   241  121  123 2    
   242  122  242 1    
   243  122  243 1    
   244  124  125 1    
   245  124  244 1    
   246  124  245 1    
   247  125  126 1    
   248  126  246 1    
   249  126  247 1    
@<TRIPOS>SUBSTRUCTURE
     1 UNK         1 GROUP             0       ****    0 ROOT    
