@<TRIPOS>MOLECULE
3R540
247   249    1
SMALL
USER_CHARGES


@<TRIPOS>ATOM
      1 CA          6.0147  -15.6810  -43.6989 C.3       0 UNK        -0.1800 
      2 C           4.7690  -15.0792  -44.3305 C.2       0 UNK         0.5000 
      3 O           4.1058  -14.2543  -43.7054 O.2       0 UNK        -0.5000 
      4 N           4.4591  -15.4671  -45.5742 N.am      1 UNK        -0.5000 
      5 CA          3.2891  -15.0260  -46.3494 C.3       1 UNK         0.1400 
      6 C6          3.2191  -15.8087  -47.6869 C.3       23 UNK        -0.0398 
      7 S7          1.7362  -15.5016  -48.7119 S.3       23 UNK        -0.2404 
      8 C8          2.3538  -15.8645  -50.3904 C.3       23 UNK        -0.0205 
      9 C9          2.1821  -17.3312  -50.7675 C.ar      23 UNK        -0.0193 
     10 C10         1.2939  -17.7009  -51.7838 C.ar      23 UNK        -0.1150 
     11 C11         1.1546  -19.0429  -52.1509 C.ar      23 UNK        -0.0193 
     12 C12         1.8732  -20.0212  -51.4595 C.ar      23 UNK        -0.1150 
     13 C13         2.7528  -19.6724  -50.4321 C.ar      23 UNK        -0.0193 
     14 C14         2.9295  -18.3198  -50.1206 C.ar      23 UNK        -0.1150 
     15 C15         3.5152  -20.7761  -49.7024 C.3       23 UNK        -0.0205 
     16 S16         3.8569  -20.4529  -47.9359 S.3       23 UNK        -0.2404 
     17 C17         2.2053  -20.1006  -47.2428 C.3       23 UNK        -0.0398 
     18 CA          1.4226  -21.3773  -46.8374 C.3       11 UNK         0.1400 
     19 N           0.7430  -21.2296  -45.5464 N.am      11 UNK        -0.5000 
     20 C           0.1305  -22.2209  -44.8833 C.2       10 UNK         0.5000 
     21 O           0.1153  -23.3912  -45.2659 O.2       10 UNK        -0.5000 
     22 CA         -0.6361  -21.8316  -43.6044 C.3       10 UNK         0.1400 
     23 CB          0.3154  -21.7058  -42.4056 C.3       10 UNK        -0.1800 
     24 N          -1.4014  -20.5931  -43.7635 N.am      10 UNK        -0.5000 
     25 C          -2.4339  -20.4520  -44.6075 C.2       9 UNK         0.5000 
     26 O          -2.8827  -21.3695  -45.2930 O.2       9 UNK        -0.5000 
     27 CA         -3.0360  -19.0430  -44.7523 C.3       9 UNK         0.1400 
     28 CB         -4.0310  -18.7515  -43.6195 C.3       9 UNK        -0.1800 
     29 N          -2.0184  -17.9934  -44.8000 N.am      9 UNK        -0.5000 
     30 C          -1.0762  -17.8862  -45.7478 C.2       8 UNK         0.5000 
     31 O          -0.9817  -18.6449  -46.7110 O.2       8 UNK        -0.5000 
     32 CA         -0.0249  -16.7815  -45.5556 C.3       8 UNK         0.1400 
     33 CB         -0.5992  -15.4141  -45.9564 C.3       8 UNK        -0.1800 
     34 N           0.4913  -16.7316  -44.1855 N.am      8 UNK        -0.5000 
     35 C           1.1312  -17.7430  -43.5788 C.2       7 UNK         0.5000 
     36 O           1.4199  -18.7987  -44.1389 O.2       7 UNK        -0.5000 
     37 CA          1.4423  -17.5844  -42.0811 C.3       7 UNK         0.1400 
     38 CB          2.7525  -16.8225  -41.8544 C.3       7 UNK        -0.1800 
     39 N           0.3563  -16.9170  -41.3691 N.am      7 UNK        -0.5000 
     40 C          -0.8361  -17.4767  -41.1241 C.2       6 UNK         0.5000 
     41 O          -1.1231  -18.6362  -41.4233 O.2       6 UNK        -0.5000 
     42 CA         -1.8958  -16.5638  -40.4812 C.3       6 UNK         0.1400 
     43 CB         -1.7090  -16.5019  -38.9580 C.3       6 UNK        -0.1800 
     44 N          -1.8616  -15.2068  -41.0324 N.am      6 UNK        -0.5000 
     45 C          -2.1927  -14.9008  -42.2950 C.2       5 UNK         0.5000 
     46 O          -2.6110  -15.7264  -43.1051 O.2       5 UNK        -0.5000 
     47 CA         -1.9886  -13.4405  -42.7388 C.3       5 UNK         0.1400 
     48 CB         -3.2551  -12.6151  -42.4683 C.3       5 UNK        -0.1800 
     49 N          -0.8425  -12.7957  -42.0936 N.am      5 UNK        -0.5000 
     50 C           0.4389  -13.1290  -42.2977 C.2       4 UNK         0.5000 
     51 O           0.8019  -14.0411  -43.0425 O.2       4 UNK        -0.5000 
     52 CA          1.4712  -12.3528  -41.4727 C.3       4 UNK         0.1400 
     53 CB          1.8165  -13.1201  -40.1842 C.3       4 UNK        -0.1800 
     54 N           2.6917  -12.1144  -42.2415 N.am      4 UNK        -0.5000 
     55 C           3.4717  -11.0363  -42.0803 C.2       3 UNK         0.5000 
     56 O           3.1991  -10.1101  -41.3144 O.2       3 UNK        -0.5000 
     57 CA          4.7809  -10.9651  -42.8820 C.3       3 UNK         0.1400 
     58 CB          5.8910  -11.7489  -42.1624 C.3       3 UNK        -0.1800 
     59 N           4.6396  -11.4739  -44.2453 N.am      3 UNK        -0.5000 
     60 C           4.4905  -10.7054  -45.3335 C.2       2 UNK         0.5000 
     61 O           4.3597   -9.4813  -45.2854 O.2       2 UNK        -0.5000 
     62 CA          4.5344  -11.3930  -46.7153 C.3       2 UNK         0.1400 
     63 CB          5.8541  -11.0651  -47.4323 C.3       2 UNK        -0.1800 
     64 N           4.3965  -12.8479  -46.6465 N.am      2 UNK        -0.5000 
     65 C           3.2262  -13.4899  -46.5383 C.2       1 UNK         0.5000 
     66 O           2.1383  -12.9133  -46.5341 O.2       1 UNK        -0.5000 
     67 C           0.4404  -21.8081  -47.9460 C.2       11 UNK         0.5000 
     68 O           0.7312  -22.7459  -48.6860 O.2       11 UNK        -0.5000 
     69 N          -0.7256  -21.1502  -48.0056 N.am      12 UNK        -0.5000 
     70 CA         -1.8156  -21.4625  -48.9279 C.3       12 UNK         0.1400 
     71 CB         -2.9037  -20.3848  -48.8164 C.3       12 UNK        -0.1800 
     72 C          -2.4001  -22.8690  -48.7049 C.2       12 UNK         0.5000 
     73 O          -2.6620  -23.5736  -49.6782 O.2       12 UNK        -0.5000 
     74 N          -2.5569  -23.2766  -47.4375 N.am      13 UNK        -0.5000 
     75 CA         -2.9833  -24.6227  -47.0520 C.3       13 UNK         0.1400 
     76 CB         -3.2467  -24.6775  -45.5400 C.3       13 UNK        -0.1800 
     77 C          -1.9736  -25.7042  -47.4782 C.2       13 UNK         0.5000 
     78 O          -2.3816  -26.7268  -48.0299 O.2       13 UNK        -0.5000 
     79 N          -0.6749  -25.4401  -47.2707 N.am      14 UNK        -0.5000 
     80 CA          0.4287  -26.2930  -47.7230 C.3       14 UNK         0.1400 
     81 CB          1.7495  -25.7833  -47.1265 C.3       14 UNK        -0.1800 
     82 C           0.5195  -26.3916  -49.2597 C.2       14 UNK         0.5000 
     83 O           0.8285  -27.4611  -49.7855 O.2       14 UNK        -0.5000 
     84 N           0.2007  -25.2886  -49.9484 N.am      15 UNK        -0.5000 
     85 CA          0.1011  -25.1814  -51.4049 C.3       15 UNK         0.1400 
     86 CB          0.3881  -23.7273  -51.8089 C.3       15 UNK        -0.1800 
     87 C          -1.2525  -25.6660  -51.9729 C.2       15 UNK         0.5000 
     88 O          -1.4966  -25.4832  -53.1677 O.2       15 UNK        -0.5000 
     89 N          -2.1026  -26.2665  -51.1244 N.am      16 UNK        -0.5000 
     90 CA         -3.3912  -26.8945  -51.4329 C.3       16 UNK         0.1400 
     91 CB         -3.1650  -28.2028  -52.2185 C.3       16 UNK        -0.1800 
     92 C          -4.3943  -25.9445  -52.1204 C.2       16 UNK         0.5000 
     93 O          -5.0420  -26.3300  -53.0962 O.2       16 UNK        -0.5000 
     94 N          -4.4809  -24.7081  -51.6122 N.am      17 UNK        -0.5000 
     95 CA         -5.3240  -23.6390  -52.1422 C.3       17 UNK         0.1400 
     96 CB         -5.0707  -22.3517  -51.3397 C.3       17 UNK        -0.1800 
     97 C          -6.8282  -23.9541  -52.1562 C.2       17 UNK         0.5000 
     98 O          -7.3330  -24.6614  -51.2816 O.2       17 UNK        -0.5000 
     99 N          -7.5174  -23.3401  -53.1220 N.am      18 UNK        -0.5000 
    100 CA        -8.9698  -23.3624  -53.2920 C.3       18 UNK         0.1400 
    101 CB        -9.2813  -23.5720  -54.7848 C.3       18 UNK        -0.1800 
    102 C         -9.5976  -22.0639  -52.7443 C.2       18 UNK         0.5000 
    103 O        -10.5876  -21.5785  -53.2942 O.2       18 UNK        -0.5000 
    104 N         -8.9745  -21.4933  -51.7016 N.am      19 UNK        -0.5000 
    105 CA        -9.2573  -20.2243  -51.0161 C.3       19 UNK         0.1400 
    106 CB       -10.6776  -20.2026  -50.4198 C.3       19 UNK        -0.1800 
    107 C         -8.9889  -18.9706  -51.8723 C.2       19 UNK         0.5000 
    108 O         -8.3729  -18.0248  -51.3806 O.2       19 UNK        -0.5000 
    109 N         -9.4363  -18.9859  -53.1329 N.am      20 UNK        -0.5000 
    110 CA        -9.2526  -17.9126  -54.1088 C.3       20 UNK         0.1400 
    111 CB       -10.2319  -18.1270  -55.2731 C.3       20 UNK        -0.1800 
    112 C         -7.8081  -17.8103  -54.6340 C.2       20 UNK         0.5000 
    113 O         -7.3646  -16.7092  -54.9631 O.2       20 UNK        -0.5000 
    114 N         -7.1038  -18.9465  -54.7067 N.am      21 UNK        -0.5000 
    115 CA        -5.7334  -19.0650  -55.1950 C.3       21 UNK         0.1400 
    116 CB        -5.7066  -18.9496  -56.7317 C.3       21 UNK        -0.1800 
    117 C         -5.1428  -20.4095  -54.7489 C.2       21 UNK         0.5000 
    118 O         -5.8966  -21.3398  -54.4441 O.2       21 UNK        -0.5000 
    119 N         -3.8066  -20.4792  -54.7429 N.am      22 UNK        -0.5000 
    120 CA        -3.0026  -21.6915  -54.5169 C.3       22 UNK         0.1400 
    121 C         -3.1810  -22.7694  -55.6265 C.2       22 UNK         0.5000 
    122 N         -2.8543  -24.0249  -55.3478 N.am      22 UNK        -0.7600 
    123 O         -3.5765  -22.4779  -56.7533 O.2       22 UNK        -0.5000 
    124 C124       -1.5075  -21.3431  -54.3261 C.3       23 UNK        -0.0398 
    125 S125       -1.2018  -20.3611  -52.8169 S.3       23 UNK        -0.2404 
    126 C126        0.2818  -19.4429  -53.3312 C.3       23 UNK        -0.0205 
    127 H127        6.4453  -16.4670  -44.3195 H         1 UNK         0.0600 
    128 H128        5.7732  -16.1091  -42.7262 H         1 UNK         0.0600 
    129 H129        6.7688  -14.9079  -43.5522 H         1 UNK         0.0600 
    130 H130        5.0576  -16.1394  -46.0324 H         1 UNK         0.3000 
    131 H131        2.4168  -15.2940  -45.7538 H         1 UNK         0.0600 
    132 H132        4.1121  -15.6027  -48.2788 H         1 UNK         0.0800 
    133 H133        3.2386  -16.8766  -47.4672 H         1 UNK         0.0800 
    134 H134        3.4020  -15.5790  -50.4855 H         1 UNK         0.0800 
    135 H135        1.8089  -15.2320  -51.0926 H         1 UNK         0.0800 
    136 H136        0.7317  -16.9417  -52.3091 H         1 UNK         0.1150 
    137 H137        1.7542  -21.0588  -51.7362 H         1 UNK         0.1150 
    138 H138        3.6401  -18.0366  -49.3601 H         1 UNK         0.1150 
    139 H139        2.9731  -21.7196  -49.7775 H         1 UNK         0.0800 
    140 H140        4.4658  -20.9308  -50.2140 H         1 UNK         0.0800 
    141 H141        1.6313  -19.4521  -47.9070 H         1 UNK         0.0800 
    142 H142        2.4000  -19.4868  -46.3649 H         1 UNK         0.0800 
    143 H143        2.1340  -22.1954  -46.7051 H         1 UNK         0.0600 
    144 H144        0.7509  -20.3018  -45.1318 H         1 UNK         0.3000 
    145 H145       -1.3448  -22.6334  -43.3871 H         1 UNK         0.0600 
    146 H146        0.8554  -22.6385  -42.2385 H         1 UNK         0.0600 
    147 H147        1.0567  -20.9214  -42.5560 H         1 UNK         0.0600 
    148 H148       -0.2315  -21.4772  -41.4906 H         1 UNK         0.0600 
    149 H149       -1.1182  -19.8005  -43.1985 H         1 UNK         0.3000 
    150 H150       -3.5827  -19.0132  -45.6968 H         1 UNK         0.0600 
    151 H151       -4.8134  -19.5105  -43.5823 H         1 UNK         0.0600 
    152 H152       -4.5193  -17.7875  -43.7631 H         1 UNK         0.0600 
    153 H153       -3.5418  -18.7356  -42.6456 H         1 UNK         0.0600 
    154 H154       -2.0590  -17.2879  -44.0695 H         1 UNK         0.3000 
    155 H155        0.8143  -17.0108  -46.2141 H         1 UNK         0.0600 
    156 H156       -1.5095  -15.1778  -45.4087 H         1 UNK         0.0600 
    157 H157        0.1139  -14.6098  -45.7798 H         1 UNK         0.0600 
    158 H158       -0.8514  -15.3988  -47.0171 H         1 UNK         0.0600 
    159 H159        0.3576  -15.8635  -43.6764 H         1 UNK         0.3000 
    160 H160        1.5625  -18.5856  -41.6618 H         1 UNK         0.0600 
    161 H161        2.6742  -15.7890  -42.1873 H         1 UNK         0.0600 
    162 H162        3.5732  -17.2885  -42.4004 H         1 UNK         0.0600 
    163 H163        3.0261  -16.8131  -40.7994 H         1 UNK         0.0600 
    164 H164        0.4967  -15.9474  -41.1303 H         1 UNK         0.3000 
    165 H165       -2.8780  -16.9940  -40.6891 H         1 UNK         0.0600 
    166 H166       -2.4984  -15.9150  -38.4880 H         1 UNK         0.0600 
    167 H167       -1.7436  -17.5005  -38.5205 H         1 UNK         0.0600 
    168 H168       -0.7514  -16.0566  -38.6851 H         1 UNK         0.0600 
    169 H169       -1.5388  -14.4698  -40.4236 H         1 UNK         0.3000 
    170 H170       -1.8092  -13.4418  -43.8153 H         1 UNK         0.0600 
    171 H171       -4.1225  -13.0601  -42.9580 H         1 UNK         0.0600 
    172 H172       -3.4765  -12.5522  -41.4021 H         1 UNK         0.0600 
    173 H173       -3.1535  -11.5995  -42.8514 H         1 UNK         0.0600 
    174 H174       -1.0562  -12.0432  -41.4547 H         1 UNK         0.3000 
    175 H175        1.0203  -11.3960  -41.2002 H         1 UNK         0.0600 
    176 H176        2.3064  -14.0696  -40.4021 H         1 UNK         0.0600 
    177 H177        2.4849  -12.5400  -39.5478 H         1 UNK         0.0600 
    178 H178        0.9211  -13.3360  -39.6001 H         1 UNK         0.0600 
    179 H179        2.9667  -12.8551  -42.8824 H         1 UNK         0.3000 
    180 H180        5.0916   -9.9183  -42.9096 H         1 UNK         0.0600 
    181 H181        5.6430  -12.8055  -42.0589 H         1 UNK         0.0600 
    182 H182        6.0576  -11.3542  -41.1594 H         1 UNK         0.0600 
    183 H183        6.8363  -11.6777  -42.7005 H         1 UNK         0.0600 
    184 H184        4.6407  -12.4830  -44.3442 H         1 UNK         0.3000 
    185 H185        3.7161  -10.9831  -47.3113 H         1 UNK         0.0600 
    186 H186        5.8771  -11.4964  -48.4333 H         1 UNK         0.0600 
    187 H187        5.9834   -9.9875  -47.5424 H         1 UNK         0.0600 
    188 H188        6.7163  -11.4443  -46.8822 H         1 UNK         0.0600 
    189 H189        5.2503  -13.3862  -46.6227 H         1 UNK         0.3000 
    190 H190       -0.8708  -20.3533  -47.3889 H         1 UNK         0.3000 
    191 H191       -1.4093  -21.4293  -49.9401 H         1 UNK         0.0600 
    192 H192       -3.3375  -20.3522  -47.8172 H         1 UNK         0.0600 
    193 H193       -3.7150  -20.5672  -49.5201 H         1 UNK         0.0600 
    194 H194       -2.5003  -19.3966  -49.0385 H         1 UNK         0.0600 
    195 H195       -2.3874  -22.6168  -46.6835 H         1 UNK         0.3000 
    196 H196       -3.9250  -24.8301  -47.5647 H         1 UNK         0.0600 
    197 H197       -3.5861  -25.6692  -45.2387 H         1 UNK         0.0600 
    198 H198       -4.0207  -23.9669  -45.2497 H         1 UNK         0.0600 
    199 H199       -2.3504  -24.4482  -44.9640 H         1 UNK         0.0600 
    200 H200       -0.4211  -24.5896  -46.7766 H         1 UNK         0.3000 
    201 H201        0.2498  -27.2991  -47.3382 H         1 UNK         0.0600 
    202 H202        1.7114  -25.7728  -46.0371 H         1 UNK         0.0600 
    203 H203        1.9812  -24.7722  -47.4614 H         1 UNK         0.0600 
    204 H204        2.5823  -26.4244  -47.4177 H         1 UNK         0.0600 
    205 H205        0.0312  -24.4325  -49.4283 H         1 UNK         0.3000 
    206 H206        0.8744  -25.8089  -51.8520 H         1 UNK         0.0600 
    207 H207        1.3390  -23.3878  -51.3989 H         1 UNK         0.0600 
    208 H208        0.4506  -23.6253  -52.8920 H         1 UNK         0.0600 
    209 H209       -0.3910  -23.0525  -51.4541 H         1 UNK         0.0600 
    210 H210       -1.8340  -26.3067  -50.1494 H         1 UNK         0.3000 
    211 H211       -3.8373  -27.1600  -50.4735 H         1 UNK         0.0600 
    212 H212       -2.7469  -28.0122  -53.2075 H         1 UNK         0.0600 
    213 H213       -4.1014  -28.7447  -52.3563 H         1 UNK         0.0600 
    214 H214       -2.4825  -28.8670  -51.6883 H         1 UNK         0.0600 
    215 H215       -3.8718  -24.4552  -50.8376 H         1 UNK         0.3000 
    216 H216       -5.0195  -23.4899  -53.1773 H         1 UNK         0.0600 
    217 H217       -5.6719  -21.5219  -51.7124 H         1 UNK         0.0600 
    218 H218       -4.0280  -22.0435  -51.4048 H         1 UNK         0.0600 
    219 H219       -5.3144  -22.4856  -50.2851 H         1 UNK         0.0600 
    220 H220       -7.0077  -22.7170  -53.7459 H         1 UNK         0.3000 
    221 H221       -9.4043  -24.1936  -52.7334 H         1 UNK         0.0600 
    222 H222       -8.9137  -22.7435  -55.3918 H         1 UNK         0.0600 
    223 H223       -8.8223  -24.4882  -55.1567 H         1 UNK         0.0600 
    224 H224      -10.3551  -23.6573  -54.9560 H         1 UNK         0.0600 
    225 H225       -8.1629  -21.9826  -51.3535 H         1 UNK         0.3000 
    226 H226       -8.5563  -20.1839  -50.1808 H         1 UNK         0.0600 
    227 H227      -10.8457  -21.0623  -49.7711 H         1 UNK         0.0600 
    228 H228      -10.8305  -19.3062  -49.8176 H         1 UNK         0.0600 
    229 H229      -11.4477  -20.2085  -51.1914 H         1 UNK         0.0600 
    230 H230       -9.9489  -19.8101  -53.4352 H         1 UNK         0.3000 
    231 H231       -9.4984  -16.9642  -53.6264 H         1 UNK         0.0600 
    232 H232      -10.1380  -17.3326  -56.0147 H         1 UNK         0.0600 
    233 H233      -11.2649  -18.1252  -54.9245 H         1 UNK         0.0600 
    234 H234      -10.0510  -19.0751  -55.7812 H         1 UNK         0.0600 
    235 H235       -7.5131  -19.8146  -54.3881 H         1 UNK         0.3000 
    236 H236       -5.1329  -18.2652  -54.7563 H         1 UNK         0.0600 
    237 H237       -6.0672  -17.9776  -57.0679 H         1 UNK         0.0600 
    238 H238       -4.6936  -19.0663  -57.1187 H         1 UNK         0.0600 
    239 H239       -6.3258  -19.7162  -57.1994 H         1 UNK         0.0600 
    240 H240       -3.2821  -19.6611  -55.0139 H         1 UNK         0.3000 
    241 H241       -3.3456  -22.1379  -53.5879 H         1 UNK         0.0600 
    242 H242       -2.4711  -24.3210  -54.4551 H         1 UNK         0.3800 
    243 H243       -2.9621  -24.7165  -56.0724 H         1 UNK         0.3800 
    244 H244       -0.9055  -22.2493  -54.2487 H         1 UNK         0.0800 
    245 H245       -1.1351  -20.8053  -55.1997 H         1 UNK         0.0800 
    246 H246        0.8809  -20.0597  -54.0030 H         1 UNK         0.0800 
    247 H247       -0.0222  -18.5676  -53.9071 H         1 UNK         0.0800 
@<TRIPOS>BOND
     1    1    2 1    
     2    1  127 1    
     3    1  128 1    
     4    1  129 1    
     5    2    3 2    
     6    2    4 am   BACKBONE|DICT|INTERRES
     7    4    5 1    
     8    4  130 1    
     9    5    6 1    
    10    5   65 1    
    11    5  131 1    
    12    6    7 1    
    13    6  132 1    
    14    6  133 1    
    15    7    8 1    
    16    8    9 1    
    17    8  134 1    
    18    8  135 1    
    19    9   10 ar   
    20    9   14 ar   
    21   10   11 ar   
    22   10  136 1    
    23   11   12 ar   
    24   11  126 1    
    25   12   13 ar   
    26   12  137 1    
    27   13   14 ar   
    28   13   15 1    
    29   14  138 1    
    30   15   16 1    
    31   15  139 1    
    32   15  140 1    
    33   16   17 1    
    34   17   18 1    
    35   17  141 1    
    36   17  142 1    
    37   18   19 1    
    38   18   67 1    
    39   18  143 1    
    40   19   20 am   BACKBONE|DICT|INTERRES
    41   19  144 1    
    42   20   21 2    
    43   20   22 1    
    44   22   23 1    
    45   22   24 1    
    46   22  145 1    
    47   23  146 1    
    48   23  147 1    
    49   23  148 1    
    50   24   25 am   BACKBONE|DICT|INTERRES
    51   24  149 1    
    52   25   26 2    
    53   25   27 1    
    54   27   28 1    
    55   27   29 1    
    56   27  150 1    
    57   28  151 1    
    58   28  152 1    
    59   28  153 1    
    60   29   30 am   BACKBONE|DICT|INTERRES
    61   29  154 1    
    62   30   31 2    
    63   30   32 1    
    64   32   33 1    
    65   32   34 1    
    66   32  155 1    
    67   33  156 1    
    68   33  157 1    
    69   33  158 1    
    70   34   35 am   BACKBONE|DICT|INTERRES
    71   34  159 1    
    72   35   36 2    
    73   35   37 1    
    74   37   38 1    
    75   37   39 1    
    76   37  160 1    
    77   38  161 1    
    78   38  162 1    
    79   38  163 1    
    80   39   40 am   BACKBONE|DICT|INTERRES
    81   39  164 1    
    82   40   41 2    
    83   40   42 1    
    84   42   43 1    
    85   42   44 1    
    86   42  165 1    
    87   43  166 1    
    88   43  167 1    
    89   43  168 1    
    90   44   45 am   BACKBONE|DICT|INTERRES
    91   44  169 1    
    92   45   46 2    
    93   45   47 1    
    94   47   48 1    
    95   47   49 1    
    96   47  170 1    
    97   48  171 1    
    98   48  172 1    
    99   48  173 1    
   100   49   50 am   BACKBONE|DICT|INTERRES
   101   49  174 1    
   102   50   51 2    
   103   50   52 1    
   104   52   53 1    
   105   52   54 1    
   106   52  175 1    
   107   53  176 1    
   108   53  177 1    
   109   53  178 1    
   110   54   55 am   BACKBONE|DICT|INTERRES
   111   54  179 1    
   112   55   56 2    
   113   55   57 1    
   114   57   58 1    
   115   57   59 1    
   116   57  180 1    
   117   58  181 1    
   118   58  182 1    
   119   58  183 1    
   120   59   60 am   BACKBONE|DICT|INTERRES
   121   59  184 1    
   122   60   61 2    
   123   60   62 1    
   124   62   63 1    
   125   62   64 1    
   126   62  185 1    
   127   63  186 1    
   128   63  187 1    
   129   63  188 1    
   130   64   65 am   BACKBONE|DICT|INTERRES
   131   64  189 1    
   132   65   66 2    
   133   67   68 2    
   134   67   69 am   BACKBONE|DICT|INTERRES
   135   69   70 1    
   136   69  190 1    
   137   70   71 1    
   138   70   72 1    
   139   70  191 1    
   140   71  192 1    
   141   71  193 1    
   142   71  194 1    
   143   72   73 2    
   144   72   74 am   BACKBONE|DICT|INTERRES
   145   74   75 1    
   146   74  195 1    
   147   75   76 1    
   148   75   77 1    
   149   75  196 1    
   150   76  197 1    
   151   76  198 1    
   152   76  199 1    
   153   77   78 2    
   154   77   79 am   BACKBONE|DICT|INTERRES
   155   79   80 1    
   156   79  200 1    
   157   80   81 1    
   158   80   82 1    
   159   80  201 1    
   160   81  202 1    
   161   81  203 1    
   162   81  204 1    
   163   82   83 2    
   164   82   84 am   BACKBONE|DICT|INTERRES
   165   84   85 1    
   166   84  205 1    
   167   85   86 1    
   168   85   87 1    
   169   85  206 1    
   170   86  207 1    
   171   86  208 1    
   172   86  209 1    
   173   87   88 2    
   174   87   89 am   BACKBONE|DICT|INTERRES
   175   89   90 1    
   176   89  210 1    
   177   90   91 1    
   178   90   92 1    
   179   90  211 1    
   180   91  212 1    
   181   91  213 1    
   182   91  214 1    
   183   92   93 2    
   184   92   94 am   BACKBONE|DICT|INTERRES
   185   94   95 1    
   186   94  215 1    
   187   95   96 1    
   188   95   97 1    
   189   95  216 1    
   190   96  217 1    
   191   96  218 1    
   192   96  219 1    
   193   97   98 2    
   194   97   99 am   BACKBONE|DICT|INTERRES
   195   99  100 1    
   196   99  220 1    
   197  100  101 1    
   198  100  102 1    
   199  100  221 1    
   200  101  222 1    
   201  101  223 1    
   202  101  224 1    
   203  102  103 2    
   204  102  104 am   BACKBONE|DICT|INTERRES
   205  104  105 1    
   206  104  225 1    
   207  105  106 1    
   208  105  107 1    
   209  105  226 1    
   210  106  227 1    
   211  106  228 1    
   212  106  229 1    
   213  107  108 2    
   214  107  109 am   BACKBONE|DICT|INTERRES
   215  109  110 1    
   216  109  230 1    
   217  110  111 1    
   218  110  112 1    
   219  110  231 1    
   220  111  232 1    
   221  111  233 1    
   222  111  234 1    
   223  112  113 2    
   224  112  114 am   BACKBONE|DICT|INTERRES
   225  114  115 1    
   226  114  235 1    
   227  115  116 1    
   228  115  117 1    
   229  115  236 1    
   230  116  237 1    
   231  116  238 1    
   232  116  239 1    
   233  117  118 2    
   234  117  119 am   BACKBONE|DICT|INTERRES
   235  119  120 1    
   236  119  240 1    
   237  120  121 1    
   238  120  124 1    
   239  120  241 1    
   240  121  122 am   BACKBONE|DICT|INTERRES
   241  121  123 2    
   242  122  242 1    
   243  122  243 1    
   244  124  125 1    
   245  124  244 1    
   246  124  245 1    
   247  125  126 1    
   248  126  246 1    
   249  126  247 1    
@<TRIPOS>SUBSTRUCTURE
     1 UNK         1 GROUP             0       ****    0 ROOT    
