@<TRIPOS>MOLECULE
3R540
247   249    1
SMALL
USER_CHARGES


@<TRIPOS>ATOM
      1 CA          2.4276  -15.0455  -48.6035 C.3       0 UNK        -0.1800 
      2 C           1.8877  -13.8692  -47.8055 C.2       0 UNK         0.5000 
      3 O           2.6652  -13.0380  -47.3352 O.2       0 UNK        -0.5000 
      4 N           0.5589  -13.7843  -47.6565 N.am      1 UNK        -0.5000 
      5 CA         -0.1457  -12.7767  -46.8495 C.3       1 UNK         0.1400 
      6 C6         -1.6740  -13.0246  -46.7815 C.3       23 UNK        -0.0398 
      7 S7         -2.1085  -14.7308  -46.2938 S.3       23 UNK        -0.2404 
      8 C8         -2.9530  -15.3103  -47.7974 C.3       23 UNK        -0.0205 
      9 C9         -3.2345  -16.8023  -47.7374 C.ar      23 UNK        -0.0193 
     10 C10        -4.3434  -17.2830  -47.0352 C.ar      23 UNK        -0.1150 
     11 C11        -4.6183  -18.6529  -46.9956 C.ar      23 UNK        -0.0193 
     12 C12        -3.7650  -19.5436  -47.6517 C.ar      23 UNK        -0.1150 
     13 C13        -2.6657  -19.0738  -48.3778 C.ar      23 UNK        -0.0193 
     14 C14        -2.4020  -17.7018  -48.4091 C.ar      23 UNK        -0.1150 
     15 C15        -1.8012  -20.0392  -49.1791 C.3       23 UNK        -0.0205 
     16 S16        -0.0833  -20.1200  -48.5945 S.3       23 UNK        -0.2404 
     17 C17        -0.3215  -20.8226  -46.9348 C.3       23 UNK        -0.0398 
     18 CA          0.0538  -22.3187  -46.8222 C.3       11 UNK         0.1400 
     19 N           0.3847  -22.6416  -45.4345 N.am      11 UNK        -0.5000 
     20 C           0.8696  -23.8041  -44.9850 C.2       10 UNK         0.5000 
     21 O           1.1467  -24.7588  -45.7076 O.2       10 UNK        -0.5000 
     22 CA          1.0189  -23.9285  -43.4596 C.3       10 UNK         0.1400 
     23 CB          2.3404  -23.3047  -42.9869 C.3       10 UNK        -0.1800 
     24 N          -0.1017  -23.3037  -42.7537 N.am      10 UNK        -0.5000 
     25 C          -1.3510  -23.7894  -42.7453 C.2       9 UNK         0.5000 
     26 O          -1.6803  -24.8346  -43.3057 O.2       9 UNK        -0.5000 
     27 CA         -2.4175  -22.9433  -42.0264 C.3       9 UNK         0.1400 
     28 CB         -2.3439  -23.1502  -40.5062 C.3       9 UNK        -0.1800 
     29 N          -2.3072  -21.5155  -42.3310 N.am      9 UNK        -0.5000 
     30 C          -2.5346  -20.9828  -43.5396 C.2       8 UNK         0.5000 
     31 O          -2.8676  -21.6401  -44.5244 O.2       8 UNK        -0.5000 
     32 CA         -2.3122  -19.4670  -43.6870 C.3       8 UNK         0.1400 
     33 CB         -3.5618  -18.6891  -43.2496 C.3       8 UNK        -0.1800 
     34 N          -1.1537  -18.9432  -42.9603 N.am      8 UNK        -0.5000 
     35 C           0.1108  -19.3760  -43.0475 C.2       7 UNK         0.5000 
     36 O           0.4468  -20.3819  -43.6736 O.2       7 UNK        -0.5000 
     37 CA          1.1714  -18.5038  -42.3456 C.3       7 UNK         0.1400 
     38 CB          2.5907  -19.0879  -42.4588 C.3       7 UNK        -0.1800 
     39 N           1.1750  -17.1523  -42.9056 N.am      7 UNK        -0.5000 
     40 C           0.3069  -16.1772  -42.6149 C.2       6 UNK         0.5000 
     41 O          -0.5740  -16.3001  -41.7612 O.2       6 UNK        -0.5000 
     42 CA          0.4281  -14.8718  -43.4306 C.3       6 UNK         0.1400 
     43 CB         -0.5044  -13.7611  -42.9133 C.3       6 UNK        -0.1800 
     44 N           1.7915  -14.3428  -43.4974 N.am      6 UNK        -0.5000 
     45 C           2.7891  -14.8145  -44.2565 C.2       5 UNK         0.5000 
     46 O           2.6960  -15.8363  -44.9393 O.2       5 UNK        -0.5000 
     47 CA          4.0773  -13.9724  -44.2739 C.3       5 UNK         0.1400 
     48 CB          5.1293  -14.5082  -45.2619 C.3       5 UNK        -0.1800 
     49 N           3.7401  -12.5998  -44.6440 N.am      5 UNK        -0.5000 
     50 C           3.5714  -11.5789  -43.7938 C.2       4 UNK         0.5000 
     51 O           3.7270  -11.6862  -42.5766 O.2       4 UNK        -0.5000 
     52 CA          3.0959  -10.2344  -44.3865 C.3       4 UNK         0.1400 
     53 CB          3.6832   -9.0138  -43.6475 C.3       4 UNK        -0.1800 
     54 N           3.2842  -10.1266  -45.8376 N.am      4 UNK        -0.5000 
     55 C           4.4394  -10.0598  -46.5200 C.2       3 UNK         0.5000 
     56 O           5.5476  -10.0189  -45.9844 O.2       3 UNK        -0.5000 
     57 CA          4.3483  -10.0650  -48.0611 C.3       3 UNK         0.1400 
     58 CB          5.2743  -11.1348  -48.6664 C.3       3 UNK        -0.1800 
     59 N           2.9832  -10.3185  -48.5255 N.am      3 UNK        -0.5000 
     60 C           2.1030   -9.3817  -48.9029 C.2       2 UNK         0.5000 
     61 O           2.3692   -8.1813  -48.9683 O.2       2 UNK        -0.5000 
     62 CA          0.6758   -9.8586  -49.2457 C.3       2 UNK         0.1400 
     63 CB          0.5045   -9.9858  -50.7670 C.3       2 UNK        -0.1800 
     64 N           0.3137  -11.1343  -48.6206 N.am      2 UNK        -0.5000 
     65 C           0.1401  -11.3291  -47.3049 C.2       1 UNK         0.5000 
     66 O           0.2508  -10.4371  -46.4638 O.2       1 UNK        -0.5000 
     67 C          -1.0468  -23.2504  -47.3846 C.2       11 UNK         0.5000 
     68 O          -0.9261  -23.7409  -48.5101 O.2       11 UNK        -0.5000 
     69 N          -2.0786  -23.5175  -46.5707 N.am      12 UNK        -0.5000 
     70 CA         -3.1385  -24.4817  -46.8575 C.3       12 UNK         0.1400 
     71 CB         -4.2986  -24.2881  -45.8708 C.3       12 UNK        -0.1800 
     72 C          -2.6374  -25.9356  -46.8517 C.2       12 UNK         0.5000 
     73 O          -2.9823  -26.6876  -47.7626 O.2       12 UNK        -0.5000 
     74 N          -1.8048  -26.3015  -45.8653 N.am      13 UNK        -0.5000 
     75 CA         -1.1869  -27.6287  -45.7503 C.3       13 UNK         0.1400 
     76 CB         -0.4486  -27.7432  -44.4087 C.3       13 UNK        -0.1800 
     77 C          -0.2427  -27.9661  -46.9218 C.2       13 UNK         0.5000 
     78 O          -0.1949  -29.1180  -47.3541 O.2       13 UNK        -0.5000 
     79 N           0.4530  -26.9469  -47.4426 N.am      14 UNK        -0.5000 
     80 CA          1.2873  -27.0098  -48.6444 C.3       14 UNK         0.1400 
     81 CB          2.2141  -25.7830  -48.6610 C.3       14 UNK        -0.1800 
     82 C           0.4805  -27.0891  -49.9587 C.2       14 UNK         0.5000 
     83 O           1.0805  -27.2990  -51.0133 O.2       14 UNK        -0.5000 
     84 N          -0.8464  -26.9001  -49.8815 N.am      15 UNK        -0.5000 
     85 CA         -1.8242  -26.8843  -50.9753 C.3       15 UNK         0.1400 
     86 CB         -1.8637  -28.2376  -51.7149 C.3       15 UNK        -0.1800 
     87 C          -1.6720  -25.6851  -51.9338 C.2       15 UNK         0.5000 
     88 O          -2.2406  -25.7034  -53.0267 O.2       15 UNK        -0.5000 
     89 N          -0.9526  -24.6393  -51.5009 N.am      16 UNK        -0.5000 
     90 CA         -0.7714  -23.3927  -52.2475 C.3       16 UNK         0.1400 
     91 CB          0.3869  -22.5975  -51.6293 C.3       16 UNK        -0.1800 
     92 C          -2.0546  -22.5446  -52.2831 C.2       16 UNK         0.5000 
     93 O          -2.2635  -21.7929  -53.2372 O.2       16 UNK        -0.5000 
     94 N          -2.9081  -22.7170  -51.2618 N.am      17 UNK        -0.5000 
     95 CA         -4.1846  -22.0247  -51.0822 C.3       17 UNK         0.1400 
     96 CB         -4.8451  -22.5006  -49.7807 C.3       17 UNK        -0.1800 
     97 C          -5.1637  -22.1919  -52.2541 C.2       17 UNK         0.5000 
     98 O          -5.9279  -21.2700  -52.5326 O.2       17 UNK        -0.5000 
     99 N          -5.1124  -23.3497  -52.9247 N.am      18 UNK        -0.5000 
    100 CA        -5.9443  -23.6756  -54.0819 C.3       18 UNK         0.1400 
    101 CB        -5.8302  -25.1823  -54.3603 C.3       18 UNK        -0.1800 
    102 C         -5.5874  -22.8667  -55.3446 C.2       18 UNK         0.5000 
    103 O         -6.4463  -22.7037  -56.2122 O.2       18 UNK        -0.5000 
    104 N         -4.3385  -22.3903  -55.4335 N.am      19 UNK        -0.5000 
    105 CA        -3.8174  -21.6425  -56.5752 C.3       19 UNK         0.1400 
    106 CB        -2.4304  -22.1956  -56.9416 C.3       19 UNK        -0.1800 
    107 C         -3.7319  -20.1383  -56.2765 C.2       19 UNK         0.5000 
    108 O         -4.1256  -19.3293  -57.1174 O.2       19 UNK        -0.5000 
    109 N         -3.1996  -19.7873  -55.0995 N.am      20 UNK        -0.5000 
    110 CA        -2.8440  -18.4143  -54.7361 C.3       20 UNK         0.1400 
    111 CB        -1.5935  -18.4746  -53.8414 C.3       20 UNK        -0.1800 
    112 C         -3.9663  -17.6383  -54.0206 C.2       20 UNK         0.5000 
    113 O         -3.7975  -16.4379  -53.7998 O.2       20 UNK        -0.5000 
    114 N         -5.0485  -18.3352  -53.6339 N.am      21 UNK        -0.5000 
    115 CA        -5.9991  -17.9970  -52.5587 C.3       21 UNK         0.1400 
    116 CB        -6.5291  -16.5510  -52.6744 C.3       21 UNK        -0.1800 
    117 C         -5.3441  -18.3015  -51.1847 C.2       21 UNK         0.5000 
    118 O         -4.1245  -18.4453  -51.1272 O.2       21 UNK        -0.5000 
    119 N         -6.0582  -18.4428  -50.0615 N.am      22 UNK        -0.5000 
    120 CA        -7.4798  -18.2209  -49.7542 C.3       22 UNK         0.1400 
    121 C         -8.5340  -19.1420  -50.4387 C.2       22 UNK         0.5000 
    122 N         -8.1687  -20.2109  -51.1311 N.am      22 UNK        -0.7600 
    123 O         -9.7269  -18.8661  -50.3494 O.2       22 UNK        -0.5000 
    124 C124       -7.6864  -18.1963  -48.2132 C.3       23 UNK        -0.0398 
    125 S125       -7.1578  -19.7405  -47.3770 S.3       23 UNK        -0.2404 
    126 C126       -5.8396  -19.1735  -46.2519 C.3       23 UNK        -0.0205 
    127 H127        3.0370  -14.6878  -49.4333 H         1 UNK         0.0600 
    128 H128        1.6257  -15.6635  -49.0081 H         1 UNK         0.0600 
    129 H129        3.0508  -15.6714  -47.9647 H         1 UNK         0.0600 
    130 H130       -0.0258  -14.5070  -48.0500 H         1 UNK         0.3000 
    131 H131        0.2513  -12.8668  -45.8370 H         1 UNK         0.0600 
    132 H132       -2.1291  -12.3498  -46.0541 H         1 UNK         0.0800 
    133 H133       -2.1434  -12.7917  -47.7391 H         1 UNK         0.0800 
    134 H134       -3.8891  -14.7634  -47.9206 H         1 UNK         0.0800 
    135 H135       -2.3443  -15.0807  -48.6732 H         1 UNK         0.0800 
    136 H136       -4.9933  -16.5865  -46.5244 H         1 UNK         0.1150 
    137 H137       -3.9772  -20.6011  -47.6105 H         1 UNK         0.1150 
    138 H138       -1.5566  -17.3366  -48.9747 H         1 UNK         0.1150 
    139 H139       -2.2186  -21.0440  -49.1513 H         1 UNK         0.0800 
    140 H140       -1.8044  -19.7328  -50.2262 H         1 UNK         0.0800 
    141 H141       -1.3340  -20.6429  -46.5746 H         1 UNK         0.0800 
    142 H142        0.3241  -20.2313  -46.2848 H         1 UNK         0.0800 
    143 H143        0.9595  -22.4947  -47.4065 H         1 UNK         0.0600 
    144 H144        0.2418  -21.8975  -44.7557 H         1 UNK         0.3000 
    145 H145        1.0352  -24.9901  -43.2059 H         1 UNK         0.0600 
    146 H146        3.1915  -23.7920  -43.4640 H         1 UNK         0.0600 
    147 H147        2.4656  -23.4130  -41.9095 H         1 UNK         0.0600 
    148 H148        2.3959  -22.2427  -43.2271 H         1 UNK         0.0600 
    149 H149        0.0731  -22.4033  -42.3317 H         1 UNK         0.3000 
    150 H150       -3.3965  -23.2863  -42.3684 H         1 UNK         0.0600 
    151 H151       -1.3982  -22.7958  -40.0944 H         1 UNK         0.0600 
    152 H152       -2.4375  -24.2069  -40.2517 H         1 UNK         0.0600 
    153 H153       -3.1506  -22.6222  -39.9974 H         1 UNK         0.0600 
    154 H154       -2.0259  -20.9035  -41.5793 H         1 UNK         0.3000 
    155 H155       -2.1465  -19.2661  -44.7472 H         1 UNK         0.0600 
    156 H156       -3.7119  -18.7432  -42.1707 H         1 UNK         0.0600 
    157 H157       -4.4601  -19.0844  -43.7220 H         1 UNK         0.0600 
    158 H158       -3.4862  -17.6372  -43.5267 H         1 UNK         0.0600 
    159 H159       -1.3064  -18.0918  -42.4303 H         1 UNK         0.3000 
    160 H160        0.9118  -18.4547  -41.2862 H         1 UNK         0.0600 
    161 H161        2.9090  -19.1768  -43.4985 H         1 UNK         0.0600 
    162 H162        2.6411  -20.0809  -42.0111 H         1 UNK         0.0600 
    163 H163        3.3165  -18.4620  -41.9395 H         1 UNK         0.0600 
    164 H164        1.8365  -16.9712  -43.6557 H         1 UNK         0.3000 
    165 H165        0.1181  -15.1174  -44.4473 H         1 UNK         0.0600 
    166 H166       -0.4323  -12.8619  -43.5247 H         1 UNK         0.0600 
    167 H167       -1.5466  -14.0821  -42.9387 H         1 UNK         0.0600 
    168 H168       -0.2684  -13.4857  -41.8847 H         1 UNK         0.0600 
    169 H169        1.9763  -13.5219  -42.9381 H         1 UNK         0.3000 
    170 H170        4.5087  -14.0075  -43.2717 H         1 UNK         0.0600 
    171 H171        6.0299  -13.8942  -45.2462 H         1 UNK         0.0600 
    172 H172        4.7541  -14.5215  -46.2857 H         1 UNK         0.0600 
    173 H173        5.4249  -15.5262  -45.0054 H         1 UNK         0.0600 
    174 H174        3.5099  -12.4621  -45.6237 H         1 UNK         0.3000 
    175 H175        2.0163  -10.2144  -44.2316 H         1 UNK         0.0600 
    176 H176        3.3799   -9.0087  -42.6000 H         1 UNK         0.0600 
    177 H177        4.7731   -9.0098  -43.6683 H         1 UNK         0.0600 
    178 H178        3.3343   -8.0800  -44.0884 H         1 UNK         0.0600 
    179 H179        2.4268  -10.1589  -46.3751 H         1 UNK         0.3000 
    180 H180        4.6884   -9.0876  -48.4087 H         1 UNK         0.0600 
    181 H181        5.0274  -12.1340  -48.3058 H         1 UNK         0.0600 
    182 H182        6.3169  -10.9430  -48.4105 H         1 UNK         0.0600 
    183 H183        5.2062  -11.1449  -49.7543 H         1 UNK         0.0600 
    184 H184        2.6723  -11.2804  -48.4477 H         1 UNK         0.3000 
    185 H185       -0.0187   -9.0968  -48.8852 H         1 UNK         0.0600 
    186 H186        0.7363   -9.0443  -51.2669 H         1 UNK         0.0600 
    187 H187        1.1629  -10.7493  -51.1835 H         1 UNK         0.0600 
    188 H188       -0.5212  -10.2464  -51.0287 H         1 UNK         0.0600 
    189 H189        0.2291  -11.9302  -49.2363 H         1 UNK         0.3000 
    190 H190       -2.1499  -23.0225  -45.6863 H         1 UNK         0.3000 
    191 H191       -3.5153  -24.2809  -47.8606 H         1 UNK         0.0600 
    192 H192       -4.7184  -23.2850  -45.9519 H         1 UNK         0.0600 
    193 H193       -5.1046  -24.9953  -46.0699 H         1 UNK         0.0600 
    194 H194       -3.9789  -24.4334  -44.8385 H         1 UNK         0.0600 
    195 H195       -1.6059  -25.6423  -45.1189 H         1 UNK         0.3000 
    196 H196       -1.9917  -28.3666  -45.7558 H         1 UNK         0.0600 
    197 H197       -0.0211  -28.7387  -44.2826 H         1 UNK         0.0600 
    198 H198       -1.1233  -27.5710  -43.5700 H         1 UNK         0.0600 
    199 H199        0.3678  -27.0252  -44.3367 H         1 UNK         0.0600 
    200 H200        0.4245  -26.0514  -46.9628 H         1 UNK         0.3000 
    201 H201        1.9067  -27.9070  -48.5876 H         1 UNK         0.0600 
    202 H202        2.8810  -25.8033  -49.5238 H         1 UNK         0.0600 
    203 H203        2.8404  -25.7504  -47.7693 H         1 UNK         0.0600 
    204 H204        1.6473  -24.8523  -48.7053 H         1 UNK         0.0600 
    205 H205       -1.2441  -26.7399  -48.9633 H         1 UNK         0.3000 
    206 H206       -2.7956  -26.7519  -50.4977 H         1 UNK         0.0600 
    207 H207       -1.9741  -29.0659  -51.0149 H         1 UNK         0.0600 
    208 H208       -2.7085  -28.2821  -52.4031 H         1 UNK         0.0600 
    209 H209       -0.9601  -28.4090  -52.3000 H         1 UNK         0.0600 
    210 H210       -0.5678  -24.6697  -50.5648 H         1 UNK         0.3000 
    211 H211       -0.5077  -23.6384  -53.2783 H         1 UNK         0.0600 
    212 H212        0.1940  -22.3536  -50.5848 H         1 UNK         0.0600 
    213 H213        0.5465  -21.6588  -52.1618 H         1 UNK         0.0600 
    214 H214        1.3191  -23.1607  -51.6736 H         1 UNK         0.0600 
    215 H215       -2.6308  -23.3560  -50.5304 H         1 UNK         0.3000 
    216 H216       -3.9608  -20.9640  -50.9884 H         1 UNK         0.0600 
    217 H217       -5.7522  -21.9313  -49.5714 H         1 UNK         0.0600 
    218 H218       -4.1810  -22.3716  -48.9297 H         1 UNK         0.0600 
    219 H219       -5.1211  -23.5547  -49.8304 H         1 UNK         0.0600 
    220 H220       -4.4358  -24.0442  -52.6421 H         1 UNK         0.3000 
    221 H221       -6.9828  -23.4506  -53.8298 H         1 UNK         0.0600 
    222 H222       -4.8046  -25.4708  -54.5954 H         1 UNK         0.0600 
    223 H223       -6.1546  -25.7685  -53.5003 H         1 UNK         0.0600 
    224 H224       -6.4558  -25.4732  -55.2053 H         1 UNK         0.0600 
    225 H225       -3.7070  -22.5280  -54.6542 H         1 UNK         0.3000 
    226 H226       -4.4648  -21.7722  -57.4451 H         1 UNK         0.0600 
    227 H227       -2.0053  -21.6559  -57.7888 H         1 UNK         0.0600 
    228 H228       -1.7274  -22.1120  -56.1116 H         1 UNK         0.0600 
    229 H229       -2.4898  -23.2470  -57.2231 H         1 UNK         0.0600 
    230 H230       -2.8947  -20.5121  -54.4541 H         1 UNK         0.3000 
    231 H231       -2.5842  -17.8543  -55.6370 H         1 UNK         0.0600 
    232 H232       -1.7973  -18.9964  -52.9050 H         1 UNK         0.0600 
    233 H233       -1.2416  -17.4739  -53.5879 H         1 UNK         0.0600 
    234 H234       -0.7732  -18.9904  -54.3408 H         1 UNK         0.0600 
    235 H235       -5.0455  -19.3165  -53.8772 H         1 UNK         0.3000 
    236 H236       -6.8365  -18.6716  -52.7150 H         1 UNK         0.0600 
    237 H237       -6.6994  -16.2727  -53.7145 H         1 UNK         0.0600 
    238 H238       -7.4829  -16.4350  -52.1631 H         1 UNK         0.0600 
    239 H239       -5.8365  -15.8277  -52.2425 H         1 UNK         0.0600 
    240 H240       -5.5227  -18.6917  -49.2422 H         1 UNK         0.3000 
    241 H241       -7.7125  -17.2154  -50.1015 H         1 UNK         0.0600 
    242 H242       -8.8890  -20.7740  -51.5538 H         1 UNK         0.3800 
    243 H243       -7.2008  -20.4588  -51.2968 H         1 UNK         0.3800 
    244 H244       -8.7325  -18.0106  -47.9631 H         1 UNK         0.0800 
    245 H245       -7.1424  -17.3523  -47.7887 H         1 UNK         0.0800 
    246 H246       -5.5401  -20.0148  -45.6252 H         1 UNK         0.0800 
    247 H247       -6.2393  -18.4145  -45.5776 H         1 UNK         0.0800 
@<TRIPOS>BOND
     1    1    2 1    
     2    1  127 1    
     3    1  128 1    
     4    1  129 1    
     5    2    3 2    
     6    2    4 am   BACKBONE|DICT|INTERRES
     7    4    5 1    
     8    4  130 1    
     9    5    6 1    
    10    5   65 1    
    11    5  131 1    
    12    6    7 1    
    13    6  132 1    
    14    6  133 1    
    15    7    8 1    
    16    8    9 1    
    17    8  134 1    
    18    8  135 1    
    19    9   10 ar   
    20    9   14 ar   
    21   10   11 ar   
    22   10  136 1    
    23   11   12 ar   
    24   11  126 1    
    25   12   13 ar   
    26   12  137 1    
    27   13   14 ar   
    28   13   15 1    
    29   14  138 1    
    30   15   16 1    
    31   15  139 1    
    32   15  140 1    
    33   16   17 1    
    34   17   18 1    
    35   17  141 1    
    36   17  142 1    
    37   18   19 1    
    38   18   67 1    
    39   18  143 1    
    40   19   20 am   BACKBONE|DICT|INTERRES
    41   19  144 1    
    42   20   21 2    
    43   20   22 1    
    44   22   23 1    
    45   22   24 1    
    46   22  145 1    
    47   23  146 1    
    48   23  147 1    
    49   23  148 1    
    50   24   25 am   BACKBONE|DICT|INTERRES
    51   24  149 1    
    52   25   26 2    
    53   25   27 1    
    54   27   28 1    
    55   27   29 1    
    56   27  150 1    
    57   28  151 1    
    58   28  152 1    
    59   28  153 1    
    60   29   30 am   BACKBONE|DICT|INTERRES
    61   29  154 1    
    62   30   31 2    
    63   30   32 1    
    64   32   33 1    
    65   32   34 1    
    66   32  155 1    
    67   33  156 1    
    68   33  157 1    
    69   33  158 1    
    70   34   35 am   BACKBONE|DICT|INTERRES
    71   34  159 1    
    72   35   36 2    
    73   35   37 1    
    74   37   38 1    
    75   37   39 1    
    76   37  160 1    
    77   38  161 1    
    78   38  162 1    
    79   38  163 1    
    80   39   40 am   BACKBONE|DICT|INTERRES
    81   39  164 1    
    82   40   41 2    
    83   40   42 1    
    84   42   43 1    
    85   42   44 1    
    86   42  165 1    
    87   43  166 1    
    88   43  167 1    
    89   43  168 1    
    90   44   45 am   BACKBONE|DICT|INTERRES
    91   44  169 1    
    92   45   46 2    
    93   45   47 1    
    94   47   48 1    
    95   47   49 1    
    96   47  170 1    
    97   48  171 1    
    98   48  172 1    
    99   48  173 1    
   100   49   50 am   BACKBONE|DICT|INTERRES
   101   49  174 1    
   102   50   51 2    
   103   50   52 1    
   104   52   53 1    
   105   52   54 1    
   106   52  175 1    
   107   53  176 1    
   108   53  177 1    
   109   53  178 1    
   110   54   55 am   BACKBONE|DICT|INTERRES
   111   54  179 1    
   112   55   56 2    
   113   55   57 1    
   114   57   58 1    
   115   57   59 1    
   116   57  180 1    
   117   58  181 1    
   118   58  182 1    
   119   58  183 1    
   120   59   60 am   BACKBONE|DICT|INTERRES
   121   59  184 1    
   122   60   61 2    
   123   60   62 1    
   124   62   63 1    
   125   62   64 1    
   126   62  185 1    
   127   63  186 1    
   128   63  187 1    
   129   63  188 1    
   130   64   65 am   BACKBONE|DICT|INTERRES
   131   64  189 1    
   132   65   66 2    
   133   67   68 2    
   134   67   69 am   BACKBONE|DICT|INTERRES
   135   69   70 1    
   136   69  190 1    
   137   70   71 1    
   138   70   72 1    
   139   70  191 1    
   140   71  192 1    
   141   71  193 1    
   142   71  194 1    
   143   72   73 2    
   144   72   74 am   BACKBONE|DICT|INTERRES
   145   74   75 1    
   146   74  195 1    
   147   75   76 1    
   148   75   77 1    
   149   75  196 1    
   150   76  197 1    
   151   76  198 1    
   152   76  199 1    
   153   77   78 2    
   154   77   79 am   BACKBONE|DICT|INTERRES
   155   79   80 1    
   156   79  200 1    
   157   80   81 1    
   158   80   82 1    
   159   80  201 1    
   160   81  202 1    
   161   81  203 1    
   162   81  204 1    
   163   82   83 2    
   164   82   84 am   BACKBONE|DICT|INTERRES
   165   84   85 1    
   166   84  205 1    
   167   85   86 1    
   168   85   87 1    
   169   85  206 1    
   170   86  207 1    
   171   86  208 1    
   172   86  209 1    
   173   87   88 2    
   174   87   89 am   BACKBONE|DICT|INTERRES
   175   89   90 1    
   176   89  210 1    
   177   90   91 1    
   178   90   92 1    
   179   90  211 1    
   180   91  212 1    
   181   91  213 1    
   182   91  214 1    
   183   92   93 2    
   184   92   94 am   BACKBONE|DICT|INTERRES
   185   94   95 1    
   186   94  215 1    
   187   95   96 1    
   188   95   97 1    
   189   95  216 1    
   190   96  217 1    
   191   96  218 1    
   192   96  219 1    
   193   97   98 2    
   194   97   99 am   BACKBONE|DICT|INTERRES
   195   99  100 1    
   196   99  220 1    
   197  100  101 1    
   198  100  102 1    
   199  100  221 1    
   200  101  222 1    
   201  101  223 1    
   202  101  224 1    
   203  102  103 2    
   204  102  104 am   BACKBONE|DICT|INTERRES
   205  104  105 1    
   206  104  225 1    
   207  105  106 1    
   208  105  107 1    
   209  105  226 1    
   210  106  227 1    
   211  106  228 1    
   212  106  229 1    
   213  107  108 2    
   214  107  109 am   BACKBONE|DICT|INTERRES
   215  109  110 1    
   216  109  230 1    
   217  110  111 1    
   218  110  112 1    
   219  110  231 1    
   220  111  232 1    
   221  111  233 1    
   222  111  234 1    
   223  112  113 2    
   224  112  114 am   BACKBONE|DICT|INTERRES
   225  114  115 1    
   226  114  235 1    
   227  115  116 1    
   228  115  117 1    
   229  115  236 1    
   230  116  237 1    
   231  116  238 1    
   232  116  239 1    
   233  117  118 2    
   234  117  119 am   BACKBONE|DICT|INTERRES
   235  119  120 1    
   236  119  240 1    
   237  120  121 1    
   238  120  124 1    
   239  120  241 1    
   240  121  122 am   BACKBONE|DICT|INTERRES
   241  121  123 2    
   242  122  242 1    
   243  122  243 1    
   244  124  125 1    
   245  124  244 1    
   246  124  245 1    
   247  125  126 1    
   248  126  246 1    
   249  126  247 1    
@<TRIPOS>SUBSTRUCTURE
     1 UNK         1 GROUP             0       ****    0 ROOT    
