@<TRIPOS>MOLECULE
3R540
247   249    1
SMALL
USER_CHARGES


@<TRIPOS>ATOM
      1 CA          5.5417  -11.8283  -49.4973 C.3       0 UNK        -0.1800 
      2 C           4.0163  -11.7327  -49.4976 C.2       0 UNK         0.5000 
      3 O           3.4847  -10.6462  -49.2769 O.2       0 UNK        -0.5000 
      4 N           3.2685  -12.8157  -49.7539 N.am      1 UNK        -0.5000 
      5 CA          3.7206  -14.1968  -49.9662 C.3       1 UNK         0.1400 
      6 C6          2.5458  -15.1166  -50.3807 C.3       23 UNK        -0.0398 
      7 S7          1.7863  -14.6169  -51.9603 S.3       23 UNK        -0.2404 
      8 C8          0.6676  -16.0196  -52.2693 C.3       23 UNK        -0.0205 
      9 C9         -0.5820  -15.9603  -51.4026 C.ar      23 UNK        -0.0193 
     10 C10        -1.6798  -15.2020  -51.8137 C.ar      23 UNK        -0.1150 
     11 C11        -2.8519  -15.1726  -51.0524 C.ar      23 UNK        -0.0193 
     12 C12        -2.9129  -15.8999  -49.8607 C.ar      23 UNK        -0.1150 
     13 C13        -1.8153  -16.6471  -49.4226 C.ar      23 UNK        -0.0193 
     14 C14        -0.6513  -16.6716  -50.2022 C.ar      23 UNK        -0.1150 
     15 C15        -1.8945  -17.3733  -48.0834 C.3       23 UNK        -0.0205 
     16 S16        -1.0432  -18.9801  -48.0719 S.3       23 UNK        -0.2404 
     17 C17        -1.1833  -19.3948  -46.3065 C.3       23 UNK        -0.0398 
     18 CA         -0.8206  -20.8686  -46.0218 C.3       11 UNK         0.1400 
     19 N          -0.4770  -21.0804  -44.6158 N.am      11 UNK        -0.5000 
     20 C          -0.0376  -22.2322  -44.0906 C.2       10 UNK         0.5000 
     21 O           0.1690  -23.2508  -44.7476 O.2       10 UNK        -0.5000 
     22 CA          0.1252  -22.2740  -42.5641 C.3       10 UNK         0.1400 
     23 CB          1.4402  -21.6091  -42.1276 C.3       10 UNK        -0.1800 
     24 N          -1.0141  -21.6428  -41.8965 N.am      10 UNK        -0.5000 
     25 C          -2.2505  -22.1640  -41.8694 C.2       9 UNK         0.5000 
     26 O          -2.5369  -23.2680  -42.3323 O.2       9 UNK        -0.5000 
     27 CA         -3.3600  -21.2925  -41.2509 C.3       9 UNK         0.1400 
     28 CB         -3.4338  -21.5118  -39.7326 C.3       9 UNK        -0.1800 
     29 N          -3.1806  -19.8653  -41.5234 N.am      9 UNK        -0.5000 
     30 C          -3.2868  -19.2992  -42.7345 C.2       8 UNK         0.5000 
     31 O          -3.5857  -19.9173  -43.7555 O.2       8 UNK        -0.5000 
     32 CA         -2.9316  -17.8015  -42.8254 C.3       8 UNK         0.1400 
     33 CB         -4.1458  -16.9310  -42.4713 C.3       8 UNK        -0.1800 
     34 N          -1.7987  -17.4407  -41.9657 N.am      8 UNK        -0.5000 
     35 C          -0.5644  -17.9353  -42.1224 C.2       7 UNK         0.5000 
     36 O          -0.2578  -18.7030  -43.0354 O.2       7 UNK        -0.5000 
     37 CA          0.4632  -17.6029  -41.0348 C.3       7 UNK         0.1400 
     38 CB          0.2738  -18.5761  -39.8497 C.3       7 UNK        -0.1800 
     39 N           1.8029  -17.7031  -41.6136 N.am      7 UNK        -0.5000 
     40 C           2.9678  -17.5025  -40.9836 C.2       6 UNK         0.5000 
     41 O           3.0743  -17.2560  -39.7817 O.2       6 UNK        -0.5000 
     42 CA          4.2323  -17.5223  -41.8611 C.3       6 UNK         0.1400 
     43 CB          4.4739  -18.9041  -42.4916 C.3       6 UNK        -0.1800 
     44 N           4.1600  -16.4959  -42.9003 N.am      6 UNK        -0.5000 
     45 C           4.2228  -15.1764  -42.6626 C.2       5 UNK         0.5000 
     46 O           4.4762  -14.6926  -41.5585 O.2       5 UNK        -0.5000 
     47 CA          3.9417  -14.2269  -43.8432 C.3       5 UNK         0.1400 
     48 CB          5.2534  -13.7796  -44.5060 C.3       5 UNK        -0.1800 
     49 N           3.0626  -14.8035  -44.8589 N.am      5 UNK        -0.5000 
     50 C           1.7756  -15.1311  -44.6765 C.2       4 UNK         0.5000 
     51 O           1.1588  -14.9541  -43.6258 O.2       4 UNK        -0.5000 
     52 CA          1.0703  -15.7912  -45.8731 C.3       4 UNK         0.1400 
     53 CB          0.5691  -14.7163  -46.8529 C.3       4 UNK        -0.1800 
     54 N           1.9441  -16.7327  -46.5781 N.am      4 UNK        -0.5000 
     55 C           2.3793  -17.8948  -46.0681 C.2       3 UNK         0.5000 
     56 O           2.0709  -18.3086  -44.9526 O.2       3 UNK        -0.5000 
     57 CA          3.3647  -18.7054  -46.9308 C.3       3 UNK         0.1400 
     58 CB          2.6233  -19.5213  -48.0002 C.3       3 UNK        -0.1800 
     59 N           4.3587  -17.8541  -47.5828 N.am      3 UNK        -0.5000 
     60 C           5.3209  -17.1797  -46.9378 C.2       2 UNK         0.5000 
     61 O           5.5119  -17.2508  -45.7240 O.2       2 UNK        -0.5000 
     62 CA          6.1822  -16.2298  -47.7933 C.3       2 UNK         0.1400 
     63 CB          7.3929  -16.9743  -48.3751 C.3       2 UNK        -0.1800 
     64 N           5.4353  -15.5891  -48.8832 N.am      2 UNK        -0.5000 
     65 C           4.3942  -14.7656  -48.7011 C.2       1 UNK         0.5000 
     66 O           3.9403  -14.4830  -47.5914 O.2       1 UNK        -0.5000 
     67 C          -1.9265  -21.8278  -46.5016 C.2       11 UNK         0.5000 
     68 O          -1.7580  -22.4748  -47.5344 O.2       11 UNK        -0.5000 
     69 N          -3.0035  -21.9530  -45.7147 N.am      12 UNK        -0.5000 
     70 CA         -4.1254  -22.8584  -45.9691 C.3       12 UNK         0.1400 
     71 CB         -5.2228  -22.6029  -44.9262 C.3       12 UNK        -0.1800 
     72 C          -3.7397  -24.3523  -45.9959 C.2       12 UNK         0.5000 
     73 O          -4.4366  -25.1367  -46.6390 O.2       12 UNK        -0.5000 
     74 N          -2.6442  -24.7200  -45.3199 N.am      13 UNK        -0.5000 
     75 CA         -2.0788  -26.0655  -45.3431 C.3       13 UNK         0.1400 
     76 CB         -1.4027  -26.3565  -43.9933 C.3       13 UNK        -0.1800 
     77 C          -1.0873  -26.2443  -46.5071 C.2       13 UNK         0.5000 
     78 O          -1.1951  -27.2202  -47.2503 O.2       13 UNK        -0.5000 
     79 N          -0.1229  -25.3219  -46.6259 N.am      14 UNK        -0.5000 
     80 CA          1.0226  -25.4364  -47.5282 C.3       14 UNK         0.1400 
     81 CB          2.1643  -24.5488  -47.0062 C.3       14 UNK        -0.1800 
     82 C           0.7025  -25.0842  -48.9900 C.2       14 UNK         0.5000 
     83 O           1.1251  -25.8100  -49.8912 O.2       14 UNK        -0.5000 
     84 N          -0.0016  -23.9664  -49.1999 N.am      15 UNK        -0.5000 
     85 CA         -0.2791  -23.3909  -50.5188 C.3       15 UNK         0.1400 
     86 CB          0.1312  -21.9091  -50.4955 C.3       15 UNK        -0.1800 
     87 C          -1.7581  -23.5213  -50.9199 C.2       15 UNK         0.5000 
     88 O          -2.0720  -23.3663  -52.0981 O.2       15 UNK        -0.5000 
     89 N          -2.6324  -23.7686  -49.9349 N.am      16 UNK        -0.5000 
     90 CA         -4.0974  -23.8369  -49.9973 C.3       16 UNK         0.1400 
     91 CB         -4.5926  -24.8110  -51.0838 C.3       16 UNK        -0.1800 
     92 C          -4.7879  -22.4586  -50.0708 C.2       16 UNK         0.5000 
     93 O          -6.0171  -22.4052  -50.0216 O.2       16 UNK        -0.5000 
     94 N          -4.0032  -21.3711  -50.1246 N.am      17 UNK        -0.5000 
     95 CA         -4.4186  -19.9675  -50.0527 C.3       17 UNK         0.1400 
     96 CB         -4.8077  -19.6284  -48.5946 C.3       17 UNK        -0.1800 
     97 C          -5.5123  -19.6194  -51.0881 C.2       17 UNK         0.5000 
     98 O          -5.2671  -19.7124  -52.2932 O.2       17 UNK        -0.5000 
     99 N          -6.7078  -19.2558  -50.6060 N.am      18 UNK        -0.5000 
    100 CA        -7.8803  -18.9133  -51.4087 C.3       18 UNK         0.1400 
    101 CB        -8.9610  -18.3268  -50.4889 C.3       18 UNK        -0.1800 
    102 C         -8.4479  -20.0898  -52.2261 C.2       18 UNK         0.5000 
    103 O         -9.0630  -19.8458  -53.2637 O.2       18 UNK        -0.5000 
    104 N         -8.2090  -21.3389  -51.7958 N.am      19 UNK        -0.5000 
    105 CA        -8.6085  -22.5401  -52.5395 C.3       19 UNK         0.1400 
    106 CB        -8.6324  -23.7555  -51.6021 C.3       19 UNK        -0.1800 
    107 C         -7.7163  -22.7993  -53.7709 C.2       19 UNK         0.5000 
    108 O         -8.1572  -23.4692  -54.7048 O.2       19 UNK        -0.5000 
    109 N         -6.5064  -22.2221  -53.7761 N.am      20 UNK        -0.5000 
    110 CA        -5.6138  -22.1368  -54.9343 C.3       20 UNK         0.1400 
    111 CB        -4.1658  -22.3475  -54.4634 C.3       20 UNK        -0.1800 
    112 C         -5.7694  -20.7910  -55.6744 C.2       20 UNK         0.5000 
    113 O         -4.9350  -20.4651  -56.5210 O.2       20 UNK        -0.5000 
    114 N         -6.8079  -20.0137  -55.3245 N.am      21 UNK        -0.5000 
    115 CA        -7.1511  -18.6868  -55.8456 C.3       21 UNK         0.1400 
    116 CB        -7.6426  -18.7972  -57.3039 C.3       21 UNK        -0.1800 
    117 C         -6.0226  -17.6490  -55.6696 C.2       21 UNK         0.5000 
    118 O         -5.8880  -16.7510  -56.5027 O.2       21 UNK        -0.5000 
    119 N         -5.2203  -17.8058  -54.6047 N.am      22 UNK        -0.5000 
    120 CA        -4.0068  -17.0215  -54.3161 C.3       22 UNK         0.1400 
    121 C         -2.8425  -17.2377  -55.3348 C.2       22 UNK         0.5000 
    122 N         -2.8663  -18.2715  -56.1700 N.am      22 UNK        -0.7600 
    123 O         -1.8777  -16.4782  -55.3503 O.2       22 UNK        -0.5000 
    124 C124       -4.3159  -15.5202  -54.0466 C.3       23 UNK        -0.0398 
    125 S125       -5.2370  -15.2880  -52.4868 S.3       23 UNK        -0.2404 
    126 C126       -4.0418  -14.3328  -51.4966 C.3       23 UNK        -0.0205 
    127 H127        5.9110  -12.4735  -50.2934 H         1 UNK         0.0600 
    128 H128        5.8989  -12.2086  -48.5402 H         1 UNK         0.0600 
    129 H129        5.9815  -10.8423  -49.6488 H         1 UNK         0.0600 
    130 H130        2.2657  -12.7029  -49.7556 H         1 UNK         0.3000 
    131 H131        4.4515  -14.1932  -50.7767 H         1 UNK         0.0600 
    132 H132        2.8853  -16.1488  -50.4866 H         1 UNK         0.0800 
    133 H133        1.7711  -15.1204  -49.6129 H         1 UNK         0.0800 
    134 H134        0.3764  -16.0086  -53.3212 H         1 UNK         0.0800 
    135 H135        1.1976  -16.9608  -52.1157 H         1 UNK         0.0800 
    136 H136       -1.6126  -14.6340  -52.7302 H         1 UNK         0.1150 
    137 H137       -3.8143  -15.8675  -49.2647 H         1 UNK         0.1150 
    138 H138        0.2063  -17.2415  -49.8751 H         1 UNK         0.1150 
    139 H139       -1.4674  -16.7362  -47.3111 H         1 UNK         0.0800 
    140 H140       -2.9355  -17.5321  -47.8021 H         1 UNK         0.0800 
    141 H141       -0.5076  -18.7332  -45.7648 H         1 UNK         0.0800 
    142 H142       -2.1863  -19.1566  -45.9491 H         1 UNK         0.0800 
    143 H143        0.0784  -21.1167  -46.5870 H         1 UNK         0.0600 
    144 H144       -0.5531  -20.2697  -44.0058 H         1 UNK         0.3000 
    145 H145        0.1620  -23.3226  -42.2603 H         1 UNK         0.0600 
    146 H146        1.5772  -21.6750  -41.0485 H         1 UNK         0.0600 
    147 H147        2.2951  -22.1013  -42.5927 H         1 UNK         0.0600 
    148 H148        1.4818  -20.5574  -42.4094 H         1 UNK         0.0600 
    149 H149       -0.8726  -20.7119  -41.5371 H         1 UNK         0.3000 
    150 H150       -4.3106  -21.6046  -41.6885 H         1 UNK         0.0600 
    151 H151       -3.5873  -22.5660  -39.4979 H         1 UNK         0.0600 
    152 H152       -4.2645  -20.9585  -39.2942 H         1 UNK         0.0600 
    153 H153       -2.5173  -21.1943  -39.2334 H         1 UNK         0.0600 
    154 H154       -2.9368  -19.2797  -40.7389 H         1 UNK         0.3000 
    155 H155       -2.6507  -17.5902  -43.8595 H         1 UNK         0.0600 
    156 H156       -3.9252  -15.8724  -42.6094 H         1 UNK         0.0600 
    157 H157       -4.4606  -17.0769  -41.4373 H         1 UNK         0.0600 
    158 H158       -4.9966  -17.1705  -43.1107 H         1 UNK         0.0600 
    159 H159       -1.9923  -16.8203  -41.1926 H         1 UNK         0.3000 
    160 H160        0.3044  -16.5751  -40.7037 H         1 UNK         0.0600 
    161 H161        0.5642  -19.5928  -40.1127 H         1 UNK         0.0600 
    162 H162       -0.7657  -18.6063  -39.5212 H         1 UNK         0.0600 
    163 H163        0.8607  -18.2772  -38.9821 H         1 UNK         0.0600 
    164 H164        1.8039  -17.9045  -42.6092 H         1 UNK         0.3000 
    165 H165        5.0890  -17.2975  -41.2221 H         1 UNK         0.0600 
    166 H166        3.6518  -19.2154  -43.1343 H         1 UNK         0.0600 
    167 H167        5.3843  -18.9083  -43.0914 H         1 UNK         0.0600 
    168 H168        4.5879  -19.6663  -41.7200 H         1 UNK         0.0600 
    169 H169        3.9753  -16.8094  -43.8436 H         1 UNK         0.3000 
    170 H170        3.4449  -13.3417  -43.4411 H         1 UNK         0.0600 
    171 H171        5.9058  -13.2848  -43.7855 H         1 UNK         0.0600 
    172 H172        5.8030  -14.6257  -44.9180 H         1 UNK         0.0600 
    173 H173        5.0675  -13.0736  -45.3158 H         1 UNK         0.0600 
    174 H174        3.4586  -14.9149  -45.7881 H         1 UNK         0.3000 
    175 H175        0.2095  -16.3460  -45.4943 H         1 UNK         0.0600 
    176 H176       -0.2007  -14.1000  -46.3875 H         1 UNK         0.0600 
    177 H177        1.3697  -14.0478  -47.1699 H         1 UNK         0.0600 
    178 H178        0.1360  -15.1548  -47.7499 H         1 UNK         0.0600 
    179 H179        2.2993  -16.4356  -47.4726 H         1 UNK         0.3000 
    180 H180        3.8899  -19.4015  -46.2731 H         1 UNK         0.0600 
    181 H181        2.0621  -18.8828  -48.6836 H         1 UNK         0.0600 
    182 H182        1.9181  -20.2118  -47.5410 H         1 UNK         0.0600 
    183 H183        3.3162  -20.1193  -48.5924 H         1 UNK         0.0600 
    184 H184        4.2906  -17.7542  -48.5841 H         1 UNK         0.3000 
    185 H185        6.5530  -15.4409  -47.1358 H         1 UNK         0.0600 
    186 H186        8.0565  -16.2928  -48.9078 H         1 UNK         0.0600 
    187 H187        7.9793  -17.4437  -47.5839 H         1 UNK         0.0600 
    188 H188        7.0893  -17.7594  -49.0686 H         1 UNK         0.0600 
    189 H189        5.7583  -15.7834  -49.8205 H         1 UNK         0.3000 
    190 H190       -3.0870  -21.3518  -44.8986 H         1 UNK         0.3000 
    191 H191       -4.5288  -22.6093  -46.9524 H         1 UNK         0.0600 
    192 H192       -6.0898  -23.2402  -45.1047 H         1 UNK         0.0600 
    193 H193       -5.5671  -21.5691  -44.9614 H         1 UNK         0.0600 
    194 H194       -4.8682  -22.8045  -43.9150 H         1 UNK         0.0600 
    195 H195       -2.1300  -24.0168  -44.8067 H         1 UNK         0.3000 
    196 H196       -2.8806  -26.7961  -45.4709 H         1 UNK         0.0600 
    197 H197       -0.9835  -27.3631  -43.9761 H         1 UNK         0.0600 
    198 H198       -2.1187  -26.2875  -43.1740 H         1 UNK         0.0600 
    199 H199       -0.5915  -25.6593  -43.7827 H         1 UNK         0.0600 
    200 H200       -0.0950  -24.5495  -45.9623 H         1 UNK         0.3000 
    201 H201        1.3729  -26.4707  -47.5069 H         1 UNK         0.0600 
    202 H202        2.4566  -24.8371  -45.9963 H         1 UNK         0.0600 
    203 H203        1.8789  -23.4961  -46.9822 H         1 UNK         0.0600 
    204 H204        3.0488  -24.6354  -47.6385 H         1 UNK         0.0600 
    205 H205       -0.3664  -23.4524  -48.4033 H         1 UNK         0.3000 
    206 H206        0.3101  -23.8915  -51.2897 H         1 UNK         0.0600 
    207 H207        1.1890  -21.7960  -50.2573 H         1 UNK         0.0600 
    208 H208       -0.0359  -21.4385  -51.4652 H         1 UNK         0.0600 
    209 H209       -0.4384  -21.3474  -49.7556 H         1 UNK         0.0600 
    210 H210       -2.2533  -23.7744  -48.9944 H         1 UNK         0.3000 
    211 H211       -4.4005  -24.2600  -49.0419 H         1 UNK         0.0600 
    212 H212       -4.5200  -24.3808  -52.0809 H         1 UNK         0.0600 
    213 H213       -5.6366  -25.0740  -50.9195 H         1 UNK         0.0600 
    214 H214       -4.0235  -25.7406  -51.0733 H         1 UNK         0.0600 
    215 H215       -3.0081  -21.5279  -50.1798 H         1 UNK         0.3000 
    216 H216       -3.5460  -19.3667  -50.3144 H         1 UNK         0.0600 
    217 H217       -3.9825  -19.8372  -47.9145 H         1 UNK         0.0600 
    218 H218       -5.0539  -18.5716  -48.4850 H         1 UNK         0.0600 
    219 H219       -5.6618  -20.2113  -48.2480 H         1 UNK         0.0600 
    220 H220       -6.8299  -19.2353  -49.6043 H         1 UNK         0.3000 
    221 H221       -7.5804  -18.1394  -52.1188 H         1 UNK         0.0600 
    222 H222       -9.2833  -19.0475  -49.7364 H         1 UNK         0.0600 
    223 H223       -8.5989  -17.4381  -49.9716 H         1 UNK         0.0600 
    224 H224       -9.8424  -18.0315  -51.0599 H         1 UNK         0.0600 
    225 H225       -7.6456  -21.4861  -50.9644 H         1 UNK         0.3000 
    226 H226       -9.6269  -22.3911  -52.9050 H         1 UNK         0.0600 
    227 H227       -7.6390  -24.0024  -51.2345 H         1 UNK         0.0600 
    228 H228       -9.2755  -23.5779  -50.7401 H         1 UNK         0.0600 
    229 H229       -9.0156  -24.6365  -52.1184 H         1 UNK         0.0600 
    230 H230       -6.2333  -21.6675  -52.9744 H         1 UNK         0.3000 
    231 H231       -5.8511  -22.9233  -55.6531 H         1 UNK         0.0600 
    232 H232       -3.4583  -22.2530  -55.2879 H         1 UNK         0.0600 
    233 H233       -4.0328  -23.3462  -54.0514 H         1 UNK         0.0600 
    234 H234       -3.8775  -21.6256  -53.6985 H         1 UNK         0.0600 
    235 H235       -7.4366  -20.3594  -54.6112 H         1 UNK         0.3000 
    236 H236       -7.9856  -18.3250  -55.2441 H         1 UNK         0.0600 
    237 H237       -8.4468  -19.5274  -57.3939 H         1 UNK         0.0600 
    238 H238       -8.0325  -17.8432  -57.6605 H         1 UNK         0.0600 
    239 H239       -6.8404  -19.0963  -57.9792 H         1 UNK         0.0600 
    240 H240       -5.3910  -18.5779  -53.9685 H         1 UNK         0.3000 
    241 H241       -3.6115  -17.4386  -53.3888 H         1 UNK         0.0600 
    242 H242       -3.6452  -18.9209  -56.1874 H         1 UNK         0.3800 
    243 H243       -2.1006  -18.4006  -56.8116 H         1 UNK         0.3800 
    244 H244       -3.4045  -14.9271  -54.0097 H         1 UNK         0.0800 
    245 H245       -4.8950  -15.0819  -54.8586 H         1 UNK         0.0800 
    246 H246       -3.7050  -13.4637  -52.0640 H         1 UNK         0.0800 
    247 H247       -4.5553  -13.9361  -50.6196 H         1 UNK         0.0800 
@<TRIPOS>BOND
     1    1    2 1    
     2    1  127 1    
     3    1  128 1    
     4    1  129 1    
     5    2    3 2    
     6    2    4 am   BACKBONE|DICT|INTERRES
     7    4    5 1    
     8    4  130 1    
     9    5    6 1    
    10    5   65 1    
    11    5  131 1    
    12    6    7 1    
    13    6  132 1    
    14    6  133 1    
    15    7    8 1    
    16    8    9 1    
    17    8  134 1    
    18    8  135 1    
    19    9   10 ar   
    20    9   14 ar   
    21   10   11 ar   
    22   10  136 1    
    23   11   12 ar   
    24   11  126 1    
    25   12   13 ar   
    26   12  137 1    
    27   13   14 ar   
    28   13   15 1    
    29   14  138 1    
    30   15   16 1    
    31   15  139 1    
    32   15  140 1    
    33   16   17 1    
    34   17   18 1    
    35   17  141 1    
    36   17  142 1    
    37   18   19 1    
    38   18   67 1    
    39   18  143 1    
    40   19   20 am   BACKBONE|DICT|INTERRES
    41   19  144 1    
    42   20   21 2    
    43   20   22 1    
    44   22   23 1    
    45   22   24 1    
    46   22  145 1    
    47   23  146 1    
    48   23  147 1    
    49   23  148 1    
    50   24   25 am   BACKBONE|DICT|INTERRES
    51   24  149 1    
    52   25   26 2    
    53   25   27 1    
    54   27   28 1    
    55   27   29 1    
    56   27  150 1    
    57   28  151 1    
    58   28  152 1    
    59   28  153 1    
    60   29   30 am   BACKBONE|DICT|INTERRES
    61   29  154 1    
    62   30   31 2    
    63   30   32 1    
    64   32   33 1    
    65   32   34 1    
    66   32  155 1    
    67   33  156 1    
    68   33  157 1    
    69   33  158 1    
    70   34   35 am   BACKBONE|DICT|INTERRES
    71   34  159 1    
    72   35   36 2    
    73   35   37 1    
    74   37   38 1    
    75   37   39 1    
    76   37  160 1    
    77   38  161 1    
    78   38  162 1    
    79   38  163 1    
    80   39   40 am   BACKBONE|DICT|INTERRES
    81   39  164 1    
    82   40   41 2    
    83   40   42 1    
    84   42   43 1    
    85   42   44 1    
    86   42  165 1    
    87   43  166 1    
    88   43  167 1    
    89   43  168 1    
    90   44   45 am   BACKBONE|DICT|INTERRES
    91   44  169 1    
    92   45   46 2    
    93   45   47 1    
    94   47   48 1    
    95   47   49 1    
    96   47  170 1    
    97   48  171 1    
    98   48  172 1    
    99   48  173 1    
   100   49   50 am   BACKBONE|DICT|INTERRES
   101   49  174 1    
   102   50   51 2    
   103   50   52 1    
   104   52   53 1    
   105   52   54 1    
   106   52  175 1    
   107   53  176 1    
   108   53  177 1    
   109   53  178 1    
   110   54   55 am   BACKBONE|DICT|INTERRES
   111   54  179 1    
   112   55   56 2    
   113   55   57 1    
   114   57   58 1    
   115   57   59 1    
   116   57  180 1    
   117   58  181 1    
   118   58  182 1    
   119   58  183 1    
   120   59   60 am   BACKBONE|DICT|INTERRES
   121   59  184 1    
   122   60   61 2    
   123   60   62 1    
   124   62   63 1    
   125   62   64 1    
   126   62  185 1    
   127   63  186 1    
   128   63  187 1    
   129   63  188 1    
   130   64   65 am   BACKBONE|DICT|INTERRES
   131   64  189 1    
   132   65   66 2    
   133   67   68 2    
   134   67   69 am   BACKBONE|DICT|INTERRES
   135   69   70 1    
   136   69  190 1    
   137   70   71 1    
   138   70   72 1    
   139   70  191 1    
   140   71  192 1    
   141   71  193 1    
   142   71  194 1    
   143   72   73 2    
   144   72   74 am   BACKBONE|DICT|INTERRES
   145   74   75 1    
   146   74  195 1    
   147   75   76 1    
   148   75   77 1    
   149   75  196 1    
   150   76  197 1    
   151   76  198 1    
   152   76  199 1    
   153   77   78 2    
   154   77   79 am   BACKBONE|DICT|INTERRES
   155   79   80 1    
   156   79  200 1    
   157   80   81 1    
   158   80   82 1    
   159   80  201 1    
   160   81  202 1    
   161   81  203 1    
   162   81  204 1    
   163   82   83 2    
   164   82   84 am   BACKBONE|DICT|INTERRES
   165   84   85 1    
   166   84  205 1    
   167   85   86 1    
   168   85   87 1    
   169   85  206 1    
   170   86  207 1    
   171   86  208 1    
   172   86  209 1    
   173   87   88 2    
   174   87   89 am   BACKBONE|DICT|INTERRES
   175   89   90 1    
   176   89  210 1    
   177   90   91 1    
   178   90   92 1    
   179   90  211 1    
   180   91  212 1    
   181   91  213 1    
   182   91  214 1    
   183   92   93 2    
   184   92   94 am   BACKBONE|DICT|INTERRES
   185   94   95 1    
   186   94  215 1    
   187   95   96 1    
   188   95   97 1    
   189   95  216 1    
   190   96  217 1    
   191   96  218 1    
   192   96  219 1    
   193   97   98 2    
   194   97   99 am   BACKBONE|DICT|INTERRES
   195   99  100 1    
   196   99  220 1    
   197  100  101 1    
   198  100  102 1    
   199  100  221 1    
   200  101  222 1    
   201  101  223 1    
   202  101  224 1    
   203  102  103 2    
   204  102  104 am   BACKBONE|DICT|INTERRES
   205  104  105 1    
   206  104  225 1    
   207  105  106 1    
   208  105  107 1    
   209  105  226 1    
   210  106  227 1    
   211  106  228 1    
   212  106  229 1    
   213  107  108 2    
   214  107  109 am   BACKBONE|DICT|INTERRES
   215  109  110 1    
   216  109  230 1    
   217  110  111 1    
   218  110  112 1    
   219  110  231 1    
   220  111  232 1    
   221  111  233 1    
   222  111  234 1    
   223  112  113 2    
   224  112  114 am   BACKBONE|DICT|INTERRES
   225  114  115 1    
   226  114  235 1    
   227  115  116 1    
   228  115  117 1    
   229  115  236 1    
   230  116  237 1    
   231  116  238 1    
   232  116  239 1    
   233  117  118 2    
   234  117  119 am   BACKBONE|DICT|INTERRES
   235  119  120 1    
   236  119  240 1    
   237  120  121 1    
   238  120  124 1    
   239  120  241 1    
   240  121  122 am   BACKBONE|DICT|INTERRES
   241  121  123 2    
   242  122  242 1    
   243  122  243 1    
   244  124  125 1    
   245  124  244 1    
   246  124  245 1    
   247  125  126 1    
   248  126  246 1    
   249  126  247 1    
@<TRIPOS>SUBSTRUCTURE
     1 UNK         1 GROUP             0       ****    0 ROOT    
