@<TRIPOS>MOLECULE
3R540
247   249    1
SMALL
USER_CHARGES


@<TRIPOS>ATOM
      1 CA         -2.1170  -13.0850  -48.2254 C.3       0 UNK        -0.1800 
      2 C          -0.7237  -12.7546  -47.7079 C.2       0 UNK         0.5000 
      3 O          -0.4266  -13.0192  -46.5457 O.2       0 UNK        -0.5000 
      4 N           0.1229  -12.1739  -48.5696 N.am      1 UNK        -0.5000 
      5 CA          1.5140  -11.7730  -48.2967 C.3       1 UNK         0.1400 
      6 C6          2.4698  -12.9569  -47.9817 C.3       23 UNK        -0.0398 
      7 S7          2.4154  -14.2773  -49.2414 S.3       23 UNK        -0.2404 
      8 C8          1.8392  -15.6722  -48.2273 C.3       23 UNK        -0.0205 
      9 C9          1.0880  -16.7005  -49.0528 C.ar      23 UNK        -0.0193 
     10 C10        -0.1958  -16.4070  -49.5190 C.ar      23 UNK        -0.1150 
     11 C11        -0.9333  -17.3598  -50.2234 C.ar      23 UNK        -0.0193 
     12 C12        -0.3646  -18.6130  -50.4737 C.ar      23 UNK        -0.1150 
     13 C13         0.9238  -18.9165  -50.0258 C.ar      23 UNK        -0.0193 
     14 C14         1.6469  -17.9549  -49.3138 C.ar      23 UNK        -0.1150 
     15 C15         1.5405  -20.2752  -50.3294 C.3       23 UNK        -0.0205 
     16 S16         1.5851  -21.3639  -48.8699 S.3       23 UNK        -0.2404 
     17 C17        -0.1796  -21.7583  -48.6443 C.3       23 UNK        -0.0398 
     18 CA         -0.3931  -22.8836  -47.6007 C.3       11 UNK         0.1400 
     19 N          -0.0576  -22.4615  -46.2333 N.am      11 UNK        -0.5000 
     20 C          -0.0612  -23.2705  -45.1625 C.2       10 UNK         0.5000 
     21 O          -0.3030  -24.4749  -45.2185 O.2       10 UNK        -0.5000 
     22 CA          0.1776  -22.6268  -43.7856 C.3       10 UNK         0.1400 
     23 CB          1.6691  -22.3443  -43.5544 C.3       10 UNK        -0.1800 
     24 N          -0.6104  -21.4088  -43.5942 N.am      10 UNK        -0.5000 
     25 C          -1.9514  -21.3753  -43.5724 C.2       9 UNK         0.5000 
     26 O          -2.6588  -22.3784  -43.6557 O.2       9 UNK        -0.5000 
     27 CA         -2.6208  -19.9913  -43.4927 C.3       9 UNK         0.1400 
     28 CB         -2.6810  -19.4935  -42.0413 C.3       9 UNK        -0.1800 
     29 N          -1.9545  -18.9933  -44.3272 N.am      9 UNK        -0.5000 
     30 C          -1.8416  -19.0618  -45.6616 C.2       8 UNK         0.5000 
     31 O          -2.3392  -19.9528  -46.3507 O.2       8 UNK        -0.5000 
     32 CA         -0.9689  -17.9826  -46.3248 C.3       8 UNK         0.1400 
     33 CB         -1.7419  -16.6619  -46.4639 C.3       8 UNK        -0.1800 
     34 N           0.2755  -17.7585  -45.5847 N.am      8 UNK        -0.5000 
     35 C           1.2325  -18.6862  -45.4323 C.2       7 UNK         0.5000 
     36 O           1.1840  -19.8040  -45.9419 O.2       7 UNK        -0.5000 
     37 CA          2.4034  -18.3376  -44.4979 C.3       7 UNK         0.1400 
     38 CB          3.5097  -17.5756  -45.2407 C.3       7 UNK        -0.1800 
     39 N           1.9597  -17.5688  -43.3354 N.am      7 UNK        -0.5000 
     40 C           1.2683  -18.0995  -42.3152 C.2       6 UNK         0.5000 
     41 O           0.9861  -19.2944  -42.2361 O.2       6 UNK        -0.5000 
     42 CA          0.7700  -17.1350  -41.2213 C.3       6 UNK         0.1400 
     43 CB          1.8300  -16.9723  -40.1222 C.3       6 UNK        -0.1800 
     44 N           0.4106  -15.8166  -41.7430 N.am      6 UNK        -0.5000 
     45 C          -0.5654  -15.5858  -42.6325 C.2       5 UNK         0.5000 
     46 O          -1.3283  -16.4607  -43.0411 O.2       5 UNK        -0.5000 
     47 CA         -0.6775  -14.1560  -43.1968 C.3       5 UNK         0.1400 
     48 CB         -1.7991  -13.3806  -42.4915 C.3       5 UNK        -0.1800 
     49 N           0.5660  -13.3856  -43.1046 N.am      5 UNK        -0.5000 
     50 C           1.7147  -13.6798  -43.7281 C.2       4 UNK         0.5000 
     51 O           1.8566  -14.6737  -44.4424 O.2       4 UNK        -0.5000 
     52 CA          2.9047  -12.7320  -43.4633 C.3       4 UNK         0.1400 
     53 CB          4.0953  -12.9751  -44.4074 C.3       4 UNK        -0.1800 
     54 N           2.5256  -11.3164  -43.5137 N.am      4 UNK        -0.5000 
     55 C           1.9919  -10.6285  -42.4935 C.2       3 UNK         0.5000 
     56 O           1.7137  -11.1434  -41.4099 O.2       3 UNK        -0.5000 
     57 CA          1.7022   -9.1298  -42.7047 C.3       3 UNK         0.1400 
     58 CB          2.8410   -8.2783  -42.1230 C.3       3 UNK        -0.1800 
     59 N           1.5064   -8.7628  -44.1062 N.am      3 UNK        -0.5000 
     60 C           0.4275   -9.0728  -44.8362 C.2       2 UNK         0.5000 
     61 O          -0.5419   -9.6907  -44.3938 O.2       2 UNK        -0.5000 
     62 CA          0.4265   -8.6259  -46.3133 C.3       2 UNK         0.1400 
     63 CB          1.4530   -7.5169  -46.6390 C.3       2 UNK        -0.1800 
     64 N           0.5964   -9.7629  -47.2214 N.am      2 UNK        -0.5000 
     65 C           1.6077  -10.6459  -47.2398 C.2       1 UNK         0.5000 
     66 O           2.5752  -10.5899  -46.4769 O.2       1 UNK        -0.5000 
     67 C          -1.8279  -23.4430  -47.6926 C.2       11 UNK         0.5000 
     68 O          -2.0331  -24.4949  -48.3038 O.2       11 UNK        -0.5000 
     69 N          -2.7849  -22.7520  -47.0569 N.am      12 UNK        -0.5000 
     70 CA         -4.1905  -23.1492  -46.9897 C.3       12 UNK         0.1400 
     71 CB         -5.0197  -22.0176  -46.3653 C.3       12 UNK        -0.1800 
     72 C          -4.4107  -24.4746  -46.2390 C.2       12 UNK         0.5000 
     73 O          -5.2168  -25.2925  -46.6815 O.2       12 UNK        -0.5000 
     74 N          -3.6866  -24.6660  -45.1301 N.am      13 UNK        -0.5000 
     75 CA         -3.7455  -25.8701  -44.3070 C.3       13 UNK         0.1400 
     76 CB         -3.1425  -25.5719  -42.9251 C.3       13 UNK        -0.1800 
     77 C          -3.0419  -27.0743  -44.9565 C.2       13 UNK         0.5000 
     78 O          -3.6098  -28.1673  -44.9752 O.2       13 UNK        -0.5000 
     79 N          -1.8096  -26.8678  -45.4399 N.am      14 UNK        -0.5000 
     80 CA         -0.9325  -27.9400  -45.9078 C.3       14 UNK         0.1400 
     81 CB          0.5304  -27.4731  -45.8470 C.3       14 UNK        -0.1800 
     82 C          -1.2700  -28.4392  -47.3203 C.2       14 UNK         0.5000 
     83 O          -1.2214  -29.6486  -47.5512 O.2       14 UNK        -0.5000 
     84 N          -1.5667  -27.5126  -48.2406 N.am      15 UNK        -0.5000 
     85 CA         -1.7283  -27.8085  -49.6651 C.3       15 UNK         0.1400 
     86 CB         -0.6638  -27.0353  -50.4579 C.3       15 UNK        -0.1800 
     87 C          -3.1310  -27.4694  -50.1838 C.2       15 UNK         0.5000 
     88 O          -3.6464  -28.2045  -51.0270 O.2       15 UNK        -0.5000 
     89 N          -3.7082  -26.3549  -49.7103 N.am      16 UNK        -0.5000 
     90 CA         -4.9912  -25.7530  -50.1044 C.3       16 UNK         0.1400 
     91 CB         -6.1780  -26.7107  -49.8880 C.3       16 UNK        -0.1800 
     92 C          -4.9771  -25.1712  -51.5299 C.2       16 UNK         0.5000 
     93 O          -5.2640  -23.9872  -51.7080 O.2       16 UNK        -0.5000 
     94 N          -4.5725  -25.9841  -52.5130 N.am      17 UNK        -0.5000 
     95 CA         -4.3996  -25.6132  -53.9194 C.3       17 UNK         0.1400 
     96 CB         -4.0600  -26.8743  -54.7274 C.3       17 UNK        -0.1800 
     97 C          -3.3306  -24.5246  -54.1424 C.2       17 UNK         0.5000 
     98 O          -3.4192  -23.7812  -55.1184 O.2       17 UNK        -0.5000 
     99 N          -2.3585  -24.4331  -53.2231 N.am      18 UNK        -0.5000 
    100 CA        -1.3433  -23.3803  -53.1922 C.3       18 UNK         0.1400 
    101 CB        -0.1957  -23.8114  -52.2667 C.3       18 UNK        -0.1800 
    102 C         -1.9052  -22.0217  -52.7333 C.2       18 UNK         0.5000 
    103 O         -1.3524  -20.9907  -53.1137 O.2       18 UNK        -0.5000 
    104 N         -2.9699  -22.0397  -51.9171 N.am      19 UNK        -0.5000 
    105 CA        -3.6401  -20.8409  -51.4157 C.3       19 UNK         0.1400 
    106 CB        -4.1903  -21.0982  -50.0079 C.3       19 UNK        -0.1800 
    107 C         -4.7472  -20.3493  -52.3577 C.2       19 UNK         0.5000 
    108 O         -4.9626  -19.1403  -52.4492 O.2       19 UNK        -0.5000 
    109 N         -5.4218  -21.2873  -53.0361 N.am      20 UNK        -0.5000 
    110 CA        -6.4771  -21.0433  -54.0176 C.3       20 UNK         0.1400 
    111 CB        -7.0533  -22.3960  -54.4686 C.3       20 UNK        -0.1800 
    112 C         -5.9671  -20.2132  -55.2130 C.2       20 UNK         0.5000 
    113 O         -5.3152  -20.7610  -56.1036 O.2       20 UNK        -0.5000 
    114 N         -6.2570  -18.9039  -55.1825 N.am      21 UNK        -0.5000 
    115 CA        -5.8244  -17.8762  -56.1359 C.3       21 UNK         0.1400 
    116 CB        -6.4925  -18.0891  -57.5112 C.3       21 UNK        -0.1800 
    117 C         -4.2868  -17.7531  -56.2142 C.2       21 UNK         0.5000 
    118 O         -3.7165  -17.7870  -57.3071 O.2       21 UNK        -0.5000 
    119 N         -3.6461  -17.6375  -55.0425 N.am      22 UNK        -0.5000 
    120 CA        -2.1919  -17.4704  -54.8863 C.3       22 UNK         0.1400 
    121 C         -1.6017  -16.2058  -55.5810 C.2       22 UNK         0.5000 
    122 N         -0.3261  -16.2338  -55.9450 N.am      22 UNK        -0.7600 
    123 O         -2.2735  -15.1930  -55.7693 O.2       22 UNK        -0.5000 
    124 C124       -1.7612  -17.5677  -53.3995 C.3       23 UNK        -0.0398 
    125 S125       -2.3868  -16.2336  -52.3172 S.3       23 UNK        -0.2404 
    126 C126       -2.3489  -17.0335  -50.6820 C.3       23 UNK        -0.0205 
    127 H127       -2.8603  -12.4771  -47.7098 H         1 UNK         0.0600 
    128 H128       -2.3510  -14.1334  -48.0439 H         1 UNK         0.0600 
    129 H129       -2.2067  -12.9000  -49.2961 H         1 UNK         0.0600 
    130 H130       -0.1917  -11.9958  -49.5131 H         1 UNK         0.3000 
    131 H131        1.8697  -11.3200  -49.2232 H         1 UNK         0.0600 
    132 H132        2.2437  -13.3708  -46.9985 H         1 UNK         0.0800 
    133 H133        3.5013  -12.6050  -47.9295 H         1 UNK         0.0800 
    134 H134        2.7020  -16.1251  -47.7404 H         1 UNK         0.0800 
    135 H135        1.1818  -15.3210  -47.4308 H         1 UNK         0.0800 
    136 H136       -0.6264  -15.4369  -49.3185 H         1 UNK         0.1150 
    137 H137       -0.9130  -19.3567  -51.0271 H         1 UNK         0.1150 
    138 H138        2.6382  -18.1911  -48.9534 H         1 UNK         0.1150 
    139 H139        1.0045  -20.7723  -51.1396 H         1 UNK         0.0800 
    140 H140        2.5606  -20.1298  -50.6870 H         1 UNK         0.0800 
    141 H141       -0.5818  -22.0480  -49.6165 H         1 UNK         0.0800 
    142 H142       -0.7093  -20.8509  -48.3499 H         1 UNK         0.0800 
    143 H143        0.2754  -23.7095  -47.8537 H         1 UNK         0.0600 
    144 H144        0.2023  -21.4860  -46.1119 H         1 UNK         0.3000 
    145 H145       -0.1441  -23.3446  -43.0281 H         1 UNK         0.0600 
    146 H146        1.8444  -21.9396  -42.5576 H         1 UNK         0.0600 
    147 H147        2.2545  -23.2605  -43.6404 H         1 UNK         0.0600 
    148 H148        2.0669  -21.6355  -44.2792 H         1 UNK         0.0600 
    149 H149       -0.0940  -20.5466  -43.4612 H         1 UNK         0.3000 
    150 H150       -3.6442  -20.0953  -43.8580 H         1 UNK         0.0600 
    151 H151       -3.2179  -20.2015  -41.4088 H         1 UNK         0.0600 
    152 H152       -3.1994  -18.5369  -41.9736 H         1 UNK         0.0600 
    153 H153       -1.6854  -19.3646  -41.6174 H         1 UNK         0.0600 
    154 H154       -1.5570  -18.1898  -43.8483 H         1 UNK         0.3000 
    155 H155       -0.7034  -18.3348  -47.3231 H         1 UNK         0.0600 
    156 H156       -2.1596  -16.3264  -45.5153 H         1 UNK         0.0600 
    157 H157       -2.5713  -16.7738  -47.1630 H         1 UNK         0.0600 
    158 H158       -1.1021  -15.8653  -46.8397 H         1 UNK         0.0600 
    159 H159        0.3780  -16.8723  -45.1117 H         1 UNK         0.3000 
    160 H160        2.8330  -19.2777  -44.1454 H         1 UNK         0.0600 
    161 H161        3.1801  -16.5870  -45.5544 H         1 UNK         0.0600 
    162 H162        3.8264  -18.1170  -46.1332 H         1 UNK         0.0600 
    163 H163        4.3883  -17.4464  -44.6088 H         1 UNK         0.0600 
    164 H164        2.1023  -16.5671  -43.3731 H         1 UNK         0.3000 
    165 H165       -0.1241  -17.5735  -40.7735 H         1 UNK         0.0600 
    166 H166        1.4593  -16.3536  -39.3047 H         1 UNK         0.0600 
    167 H167        2.1033  -17.9395  -39.6981 H         1 UNK         0.0600 
    168 H168        2.7416  -16.5125  -40.5059 H         1 UNK         0.0600 
    169 H169        0.9841  -15.0387  -41.4530 H         1 UNK         0.3000 
    170 H170       -0.9363  -14.2482  -44.2528 H         1 UNK         0.0600 
    171 H171       -2.7483  -13.9133  -42.5644 H         1 UNK         0.0600 
    172 H172       -1.5829  -13.2344  -41.4325 H         1 UNK         0.0600 
    173 H173       -1.9423  -12.3992  -42.9448 H         1 UNK         0.0600 
    174 H174        0.5526  -12.5658  -42.5105 H         1 UNK         0.3000 
    175 H175        3.2546  -12.9635  -42.4552 H         1 UNK         0.0600 
    176 H176        3.8471  -12.7420  -45.4405 H         1 UNK         0.0600 
    177 H177        4.9493  -12.3591  -44.1257 H         1 UNK         0.0600 
    178 H178        4.4233  -14.0148  -44.3729 H         1 UNK         0.0600 
    179 H179        2.6493  -10.8523  -44.4077 H         1 UNK         0.3000 
    180 H180        0.7872   -8.8927  -42.1577 H         1 UNK         0.0600 
    181 H181        3.7839   -8.4596  -42.6407 H         1 UNK         0.0600 
    182 H182        2.9976   -8.5036  -41.0672 H         1 UNK         0.0600 
    183 H183        2.6157   -7.2142  -42.1965 H         1 UNK         0.0600 
    184 H184        2.2675   -8.2777  -44.5588 H         1 UNK         0.3000 
    185 H185       -0.5670   -8.2185  -46.5066 H         1 UNK         0.0600 
    186 H186        1.3169   -6.6519  -45.9885 H         1 UNK         0.0600 
    187 H187        2.4836   -7.8565  -46.5316 H         1 UNK         0.0600 
    188 H188        1.3308   -7.1668  -47.6641 H         1 UNK         0.0600 
    189 H189       -0.1687   -9.9253  -47.8604 H         1 UNK         0.3000 
    190 H190       -2.5405  -21.8730  -46.6084 H         1 UNK         0.3000 
    191 H191       -4.5392  -23.2866  -48.0123 H         1 UNK         0.0600 
    192 H192       -4.9171  -21.0932  -46.9339 H         1 UNK         0.0600 
    193 H193       -6.0796  -22.2741  -46.3493 H         1 UNK         0.0600 
    194 H194       -4.7159  -21.8137  -45.3389 H         1 UNK         0.0600 
    195 H195       -3.0896  -23.9141  -44.7980 H         1 UNK         0.3000 
    196 H196       -4.7950  -26.1356  -44.1625 H         1 UNK         0.0600 
    197 H197       -3.1730  -26.4544  -42.2850 H         1 UNK         0.0600 
    198 H198       -3.6963  -24.7820  -42.4174 H         1 UNK         0.0600 
    199 H199       -2.1019  -25.2533  -42.9993 H         1 UNK         0.0600 
    200 H200       -1.3957  -25.9392  -45.3776 H         1 UNK         0.3000 
    201 H201       -1.0336  -28.7869  -45.2252 H         1 UNK         0.0600 
    202 H202        0.8035  -27.1605  -44.8389 H         1 UNK         0.0600 
    203 H203        0.7144  -26.6342  -46.5193 H         1 UNK         0.0600 
    204 H204        1.2093  -28.2772  -46.1336 H         1 UNK         0.0600 
    205 H205       -1.6151  -26.5384  -47.9656 H         1 UNK         0.3000 
    206 H206       -1.5733  -28.8711  -49.8630 H         1 UNK         0.0600 
    207 H207        0.3391  -27.3755  -50.1995 H         1 UNK         0.0600 
    208 H208       -0.7878  -27.1756  -51.5326 H         1 UNK         0.0600 
    209 H209       -0.7132  -25.9672  -50.2521 H         1 UNK         0.0600 
    210 H210       -3.1601  -25.7849  -49.0711 H         1 UNK         0.3000 
    211 H211       -5.1412  -24.9099  -49.4329 H         1 UNK         0.0600 
    212 H212       -6.1433  -27.5737  -50.5528 H         1 UNK         0.0600 
    213 H213       -7.1238  -26.1996  -50.0711 H         1 UNK         0.0600 
    214 H214       -6.2011  -27.0776  -48.8617 H         1 UNK         0.0600 
    215 H215       -4.3239  -26.9350  -52.2518 H         1 UNK         0.3000 
    216 H216       -5.3519  -25.2192  -54.2791 H         1 UNK         0.0600 
    217 H217       -3.9459  -26.6418  -55.7871 H         1 UNK         0.0600 
    218 H218       -4.8496  -27.6212  -54.6426 H         1 UNK         0.0600 
    219 H219       -3.1291  -27.3302  -54.3877 H         1 UNK         0.0600 
    220 H220       -2.3530  -25.0985  -52.4655 H         1 UNK         0.3000 
    221 H221       -0.9427  -23.2549  -54.2004 H         1 UNK         0.0600 
    222 H222       -0.5259  -23.8965  -51.2316 H         1 UNK         0.0600 
    223 H223        0.2220  -24.7712  -52.5709 H         1 UNK         0.0600 
    224 H224        0.6163  -23.0834  -52.2892 H         1 UNK         0.0600 
    225 H225       -3.4090  -22.9241  -51.6986 H         1 UNK         0.3000 
    226 H226       -2.9143  -20.0383  -51.3346 H         1 UNK         0.0600 
    227 H227       -3.3818  -21.3254  -49.3157 H         1 UNK         0.0600 
    228 H228       -4.7044  -20.2174  -49.6211 H         1 UNK         0.0600 
    229 H229       -4.8997  -21.9255  -49.9931 H         1 UNK         0.0600 
    230 H230       -5.2036  -22.2583  -52.8482 H         1 UNK         0.3000 
    231 H231       -7.2759  -20.4892  -53.5204 H         1 UNK         0.0600 
    232 H232       -7.4578  -22.9548  -53.6243 H         1 UNK         0.0600 
    233 H233       -6.2951  -23.0170  -54.9470 H         1 UNK         0.0600 
    234 H234       -7.8629  -22.2552  -55.1856 H         1 UNK         0.0600 
    235 H235       -6.7473  -18.5552  -54.3702 H         1 UNK         0.3000 
    236 H236       -6.1840  -16.9234  -55.7446 H         1 UNK         0.0600 
    237 H237       -6.2614  -17.2656  -58.1878 H         1 UNK         0.0600 
    238 H238       -6.1558  -19.0088  -57.9903 H         1 UNK         0.0600 
    239 H239       -7.5775  -18.1373  -57.4189 H         1 UNK         0.0600 
    240 H240       -4.1844  -17.6465  -54.1864 H         1 UNK         0.3000 
    241 H241       -1.7500  -18.3293  -55.3956 H         1 UNK         0.0600 
    242 H242        0.2504  -17.0484  -55.8013 H         1 UNK         0.3800 
    243 H243        0.0732  -15.4197  -56.3861 H         1 UNK         0.3800 
    244 H244       -0.6732  -17.5933  -53.3200 H         1 UNK         0.0800 
    245 H245       -2.1075  -18.5190  -53.0003 H         1 UNK         0.0800 
    246 H246       -2.8162  -16.3609  -49.9611 H         1 UNK         0.0800 
    247 H247       -2.9715  -17.9259  -50.6915 H         1 UNK         0.0800 
@<TRIPOS>BOND
     1    1    2 1    
     2    1  127 1    
     3    1  128 1    
     4    1  129 1    
     5    2    3 2    
     6    2    4 am   BACKBONE|DICT|INTERRES
     7    4    5 1    
     8    4  130 1    
     9    5    6 1    
    10    5   65 1    
    11    5  131 1    
    12    6    7 1    
    13    6  132 1    
    14    6  133 1    
    15    7    8 1    
    16    8    9 1    
    17    8  134 1    
    18    8  135 1    
    19    9   10 ar   
    20    9   14 ar   
    21   10   11 ar   
    22   10  136 1    
    23   11   12 ar   
    24   11  126 1    
    25   12   13 ar   
    26   12  137 1    
    27   13   14 ar   
    28   13   15 1    
    29   14  138 1    
    30   15   16 1    
    31   15  139 1    
    32   15  140 1    
    33   16   17 1    
    34   17   18 1    
    35   17  141 1    
    36   17  142 1    
    37   18   19 1    
    38   18   67 1    
    39   18  143 1    
    40   19   20 am   BACKBONE|DICT|INTERRES
    41   19  144 1    
    42   20   21 2    
    43   20   22 1    
    44   22   23 1    
    45   22   24 1    
    46   22  145 1    
    47   23  146 1    
    48   23  147 1    
    49   23  148 1    
    50   24   25 am   BACKBONE|DICT|INTERRES
    51   24  149 1    
    52   25   26 2    
    53   25   27 1    
    54   27   28 1    
    55   27   29 1    
    56   27  150 1    
    57   28  151 1    
    58   28  152 1    
    59   28  153 1    
    60   29   30 am   BACKBONE|DICT|INTERRES
    61   29  154 1    
    62   30   31 2    
    63   30   32 1    
    64   32   33 1    
    65   32   34 1    
    66   32  155 1    
    67   33  156 1    
    68   33  157 1    
    69   33  158 1    
    70   34   35 am   BACKBONE|DICT|INTERRES
    71   34  159 1    
    72   35   36 2    
    73   35   37 1    
    74   37   38 1    
    75   37   39 1    
    76   37  160 1    
    77   38  161 1    
    78   38  162 1    
    79   38  163 1    
    80   39   40 am   BACKBONE|DICT|INTERRES
    81   39  164 1    
    82   40   41 2    
    83   40   42 1    
    84   42   43 1    
    85   42   44 1    
    86   42  165 1    
    87   43  166 1    
    88   43  167 1    
    89   43  168 1    
    90   44   45 am   BACKBONE|DICT|INTERRES
    91   44  169 1    
    92   45   46 2    
    93   45   47 1    
    94   47   48 1    
    95   47   49 1    
    96   47  170 1    
    97   48  171 1    
    98   48  172 1    
    99   48  173 1    
   100   49   50 am   BACKBONE|DICT|INTERRES
   101   49  174 1    
   102   50   51 2    
   103   50   52 1    
   104   52   53 1    
   105   52   54 1    
   106   52  175 1    
   107   53  176 1    
   108   53  177 1    
   109   53  178 1    
   110   54   55 am   BACKBONE|DICT|INTERRES
   111   54  179 1    
   112   55   56 2    
   113   55   57 1    
   114   57   58 1    
   115   57   59 1    
   116   57  180 1    
   117   58  181 1    
   118   58  182 1    
   119   58  183 1    
   120   59   60 am   BACKBONE|DICT|INTERRES
   121   59  184 1    
   122   60   61 2    
   123   60   62 1    
   124   62   63 1    
   125   62   64 1    
   126   62  185 1    
   127   63  186 1    
   128   63  187 1    
   129   63  188 1    
   130   64   65 am   BACKBONE|DICT|INTERRES
   131   64  189 1    
   132   65   66 2    
   133   67   68 2    
   134   67   69 am   BACKBONE|DICT|INTERRES
   135   69   70 1    
   136   69  190 1    
   137   70   71 1    
   138   70   72 1    
   139   70  191 1    
   140   71  192 1    
   141   71  193 1    
   142   71  194 1    
   143   72   73 2    
   144   72   74 am   BACKBONE|DICT|INTERRES
   145   74   75 1    
   146   74  195 1    
   147   75   76 1    
   148   75   77 1    
   149   75  196 1    
   150   76  197 1    
   151   76  198 1    
   152   76  199 1    
   153   77   78 2    
   154   77   79 am   BACKBONE|DICT|INTERRES
   155   79   80 1    
   156   79  200 1    
   157   80   81 1    
   158   80   82 1    
   159   80  201 1    
   160   81  202 1    
   161   81  203 1    
   162   81  204 1    
   163   82   83 2    
   164   82   84 am   BACKBONE|DICT|INTERRES
   165   84   85 1    
   166   84  205 1    
   167   85   86 1    
   168   85   87 1    
   169   85  206 1    
   170   86  207 1    
   171   86  208 1    
   172   86  209 1    
   173   87   88 2    
   174   87   89 am   BACKBONE|DICT|INTERRES
   175   89   90 1    
   176   89  210 1    
   177   90   91 1    
   178   90   92 1    
   179   90  211 1    
   180   91  212 1    
   181   91  213 1    
   182   91  214 1    
   183   92   93 2    
   184   92   94 am   BACKBONE|DICT|INTERRES
   185   94   95 1    
   186   94  215 1    
   187   95   96 1    
   188   95   97 1    
   189   95  216 1    
   190   96  217 1    
   191   96  218 1    
   192   96  219 1    
   193   97   98 2    
   194   97   99 am   BACKBONE|DICT|INTERRES
   195   99  100 1    
   196   99  220 1    
   197  100  101 1    
   198  100  102 1    
   199  100  221 1    
   200  101  222 1    
   201  101  223 1    
   202  101  224 1    
   203  102  103 2    
   204  102  104 am   BACKBONE|DICT|INTERRES
   205  104  105 1    
   206  104  225 1    
   207  105  106 1    
   208  105  107 1    
   209  105  226 1    
   210  106  227 1    
   211  106  228 1    
   212  106  229 1    
   213  107  108 2    
   214  107  109 am   BACKBONE|DICT|INTERRES
   215  109  110 1    
   216  109  230 1    
   217  110  111 1    
   218  110  112 1    
   219  110  231 1    
   220  111  232 1    
   221  111  233 1    
   222  111  234 1    
   223  112  113 2    
   224  112  114 am   BACKBONE|DICT|INTERRES
   225  114  115 1    
   226  114  235 1    
   227  115  116 1    
   228  115  117 1    
   229  115  236 1    
   230  116  237 1    
   231  116  238 1    
   232  116  239 1    
   233  117  118 2    
   234  117  119 am   BACKBONE|DICT|INTERRES
   235  119  120 1    
   236  119  240 1    
   237  120  121 1    
   238  120  124 1    
   239  120  241 1    
   240  121  122 am   BACKBONE|DICT|INTERRES
   241  121  123 2    
   242  122  242 1    
   243  122  243 1    
   244  124  125 1    
   245  124  244 1    
   246  124  245 1    
   247  125  126 1    
   248  126  246 1    
   249  126  247 1    
@<TRIPOS>SUBSTRUCTURE
     1 UNK         1 GROUP             0       ****    0 ROOT    
