@<TRIPOS>MOLECULE
3R540
247   249    1
SMALL
USER_CHARGES


@<TRIPOS>ATOM
      1 CA          5.3099  -11.8227  -48.2378 C.3       0 UNK        -0.1800 
      2 C           3.9012  -12.1262  -47.7488 C.2       0 UNK         0.5000 
      3 O           3.7305  -12.6126  -46.6306 O.2       0 UNK        -0.5000 
      4 N           2.8884  -11.8314  -48.5730 N.am      1 UNK        -0.5000 
      5 CA          1.4648  -12.0641  -48.2993 C.3       1 UNK         0.1400 
      6 C6          0.6424  -12.2305  -49.6039 C.3       23 UNK        -0.0398 
      7 S7          1.1238  -13.6986  -50.5740 S.3       23 UNK        -0.2404 
      8 C8          0.4244  -15.0097  -49.5255 C.3       23 UNK        -0.0205 
      9 C9          0.0882  -16.2583  -50.3188 C.ar      23 UNK        -0.0193 
     10 C10        -1.1414  -16.3542  -50.9734 C.ar      23 UNK        -0.1150 
     11 C11        -1.4859  -17.5138  -51.6717 C.ar      23 UNK        -0.0193 
     12 C12        -0.5839  -18.5793  -51.7217 C.ar      23 UNK        -0.1150 
     13 C13         0.6526  -18.4939  -51.0723 C.ar      23 UNK        -0.0193 
     14 C14         0.9833  -17.3293  -50.3725 C.ar      23 UNK        -0.1150 
     15 C15         1.6350  -19.6554  -51.1231 C.3       23 UNK        -0.0205 
     16 S16         0.9629  -21.1764  -50.3829 S.3       23 UNK        -0.2404 
     17 C17         0.7013  -20.6680  -48.6501 C.3       23 UNK        -0.0398 
     18 CA         -0.2332  -21.6352  -47.8863 C.3       11 UNK         0.1400 
     19 N          -0.1165  -21.4738  -46.4345 N.am      11 UNK        -0.5000 
     20 C          -0.6623  -22.3034  -45.5337 C.2       10 UNK         0.5000 
     21 O          -1.2997  -23.3118  -45.8317 O.2       10 UNK        -0.5000 
     22 CA         -0.5105  -21.9276  -44.0509 C.3       10 UNK         0.1400 
     23 CB          0.8858  -22.3055  -43.5351 C.3       10 UNK        -0.1800 
     24 N          -0.7707  -20.5113  -43.7961 N.am      10 UNK        -0.5000 
     25 C          -1.9456  -19.9012  -44.0086 C.2       9 UNK         0.5000 
     26 O          -2.9510  -20.4778  -44.4223 O.2       9 UNK        -0.5000 
     27 CA         -1.9943  -18.3820  -43.7639 C.3       9 UNK         0.1400 
     28 CB         -2.0950  -18.0657  -42.2642 C.3       9 UNK        -0.1800 
     29 N          -0.8436  -17.6831  -44.3345 N.am      9 UNK        -0.5000 
     30 C          -0.5380  -17.6576  -45.6401 C.2       8 UNK         0.5000 
     31 O          -1.2063  -18.2012  -46.5197 O.2       8 UNK        -0.5000 
     32 CA          0.7748  -16.9515  -46.0114 C.3       8 UNK         0.1400 
     33 CB          0.6104  -15.4245  -45.9544 C.3       8 UNK        -0.1800 
     34 N           1.8717  -17.3634  -45.1352 N.am      8 UNK        -0.5000 
     35 C           2.3821  -18.6031  -45.0928 C.2       7 UNK         0.5000 
     36 O           2.0075  -19.5236  -45.8187 O.2       7 UNK        -0.5000 
     37 CA          3.4630  -18.8694  -44.0298 C.3       7 UNK         0.1400 
     38 CB          4.8427  -18.4256  -44.5380 C.3       7 UNK        -0.1800 
     39 N           3.1780  -18.2073  -42.7560 N.am      7 UNK        -0.5000 
     40 C           2.1358  -18.4976  -41.9635 C.2       6 UNK         0.5000 
     41 O           1.3138  -19.3776  -42.2105 O.2       6 UNK        -0.5000 
     42 CA          1.9557  -17.6282  -40.7067 C.3       6 UNK         0.1400 
     43 CB          2.7408  -18.2161  -39.5250 C.3       6 UNK        -0.1800 
     44 N           2.3598  -16.2365  -40.9163 N.am      6 UNK        -0.5000 
     45 C           1.7532  -15.3918  -41.7597 C.2       5 UNK         0.5000 
     46 O           0.7787  -15.6969  -42.4515 O.2       5 UNK        -0.5000 
     47 CA          2.3653  -13.9860  -41.8702 C.3       5 UNK         0.1400 
     48 CB          2.8807  -13.7157  -43.2926 C.3       5 UNK        -0.1800 
     49 N           1.4017  -12.9580  -41.4799 N.am      5 UNK        -0.5000 
     50 C           1.0695  -12.6975  -40.2057 C.2       4 UNK         0.5000 
     51 O           1.5433  -13.3130  -39.2491 O.2       4 UNK        -0.5000 
     52 CA          0.0819  -11.5464  -39.9247 C.3       4 UNK         0.1400 
     53 CB          0.8047  -10.3798  -39.2309 C.3       4 UNK        -0.1800 
     54 N          -0.5695  -11.0309  -41.1270 N.am      4 UNK        -0.5000 
     55 C          -1.6866  -11.5290  -41.6719 C.2       3 UNK         0.5000 
     56 O          -2.3157  -12.4770  -41.2011 O.2       3 UNK        -0.5000 
     57 CA         -2.1784  -10.8545  -42.9698 C.3       3 UNK         0.1400 
     58 CB         -3.2650   -9.8144  -42.6564 C.3       3 UNK        -0.1800 
     59 N          -1.1089  -10.2112  -43.7438 N.am      3 UNK        -0.5000 
     60 C          -0.0993  -10.8736  -44.3214 C.2       2 UNK         0.5000 
     61 O           0.0496  -12.0936  -44.2302 O.2       2 UNK        -0.5000 
     62 CA          0.9441  -10.0344  -45.0779 C.3       2 UNK         0.1400 
     63 CB          2.0926   -9.6341  -44.1392 C.3       2 UNK        -0.1800 
     64 N           1.4878  -10.8088  -46.1900 N.am      2 UNK        -0.5000 
     65 C           0.8693  -10.9882  -47.3619 C.2       1 UNK         0.5000 
     66 O          -0.1304  -10.3508  -47.6999 O.2       1 UNK        -0.5000 
     67 C          -1.6997  -21.5295  -48.3585 C.2       11 UNK         0.5000 
     68 O          -2.1515  -22.3828  -49.1219 O.2       11 UNK        -0.5000 
     69 N          -2.4344  -20.5299  -47.8491 N.am      12 UNK        -0.5000 
     70 CA         -3.8579  -20.3338  -48.1269 C.3       12 UNK         0.1400 
     71 CB         -4.3170  -18.9970  -47.5264 C.3       12 UNK        -0.1800 
     72 C          -4.7377  -21.4949  -47.6233 C.2       12 UNK         0.5000 
     73 O          -5.6631  -21.8986  -48.3286 O.2       12 UNK        -0.5000 
     74 N          -4.4203  -22.0227  -46.4314 N.am      13 UNK        -0.5000 
     75 CA         -5.0878  -23.1743  -45.8226 C.3       13 UNK         0.1400 
     76 CB         -4.6887  -23.2779  -44.3427 C.3       13 UNK        -0.1800 
     77 C          -4.7969  -24.4954  -46.5585 C.2       13 UNK         0.5000 
     78 O          -5.7159  -25.2919  -46.7542 O.2       13 UNK        -0.5000 
     79 N          -3.5350  -24.7014  -46.9636 N.am      14 UNK        -0.5000 
     80 CA         -3.0903  -25.8439  -47.7680 C.3       14 UNK         0.1400 
     81 CB         -1.5578  -25.8934  -47.7741 C.3       14 UNK        -0.1800 
     82 C          -3.6431  -25.8192  -49.2060 C.2       14 UNK         0.5000 
     83 O          -3.8248  -26.8801  -49.8051 O.2       14 UNK        -0.5000 
     84 N          -3.9393  -24.6145  -49.7095 N.am      15 UNK        -0.5000 
     85 CA         -4.6384  -24.3234  -50.9558 C.3       15 UNK         0.1400 
     86 CB         -6.0877  -24.8639  -50.8894 C.3       15 UNK        -0.1800 
     87 C          -3.8393  -24.7835  -52.1909 C.2       15 UNK         0.5000 
     88 O          -2.6311  -24.5459  -52.2623 O.2       15 UNK        -0.5000 
     89 N          -4.5184  -25.4245  -53.1516 N.am      16 UNK        -0.5000 
     90 CA         -3.9706  -25.8846  -54.4306 C.3       16 UNK         0.1400 
     91 CB         -5.1191  -26.4344  -55.2890 C.3       16 UNK        -0.1800 
     92 C          -2.8336  -26.9194  -54.3108 C.2       16 UNK         0.5000 
     93 O          -2.0584  -27.0700  -55.2552 O.2       16 UNK        -0.5000 
     94 N          -2.7335  -27.5951  -53.1568 N.am      17 UNK        -0.5000 
     95 CA         -1.6293  -28.4952  -52.8249 C.3       17 UNK         0.1400 
     96 CB         -2.0212  -29.3553  -51.6140 C.3       17 UNK        -0.1800 
     97 C          -0.3092  -27.7467  -52.5512 C.2       17 UNK         0.5000 
     98 O           0.7577  -28.3292  -52.7505 O.2       17 UNK        -0.5000 
     99 N          -0.3977  -26.4841  -52.1084 N.am      18 UNK        -0.5000 
    100 CA         0.7489  -25.6122  -51.8650 C.3       18 UNK         0.1400 
    101 CB         0.5492  -24.8481  -50.5494 C.3       18 UNK        -0.1800 
    102 C          0.9713  -24.6450  -53.0367 C.2       18 UNK         0.5000 
    103 O          2.1082  -24.5141  -53.4934 O.2       18 UNK        -0.5000 
    104 N         -0.1011  -24.0008  -53.5174 N.am      19 UNK        -0.5000 
    105 CA        -0.0480  -23.0480  -54.6234 C.3       19 UNK         0.1400 
    106 CB         0.5301  -21.6979  -54.1566 C.3       19 UNK        -0.1800 
    107 C         -1.4264  -22.8867  -55.2747 C.2       19 UNK         0.5000 
    108 O         -1.6282  -23.3667  -56.3907 O.2       19 UNK        -0.5000 
    109 N         -2.3464  -22.2061  -54.5822 N.am      20 UNK        -0.5000 
    110 CA        -3.6732  -21.8550  -55.0783 C.3       20 UNK         0.1400 
    111 CB        -3.5966  -20.5506  -55.8905 C.3       20 UNK        -0.1800 
    112 C         -4.6331  -21.7019  -53.8951 C.2       20 UNK         0.5000 
    113 O         -4.2034  -21.3413  -52.7972 O.2       20 UNK        -0.5000 
    114 N         -5.9198  -21.9706  -54.1409 N.am      21 UNK        -0.5000 
    115 CA        -7.0021  -21.9486  -53.1559 C.3       21 UNK         0.1400 
    116 CB        -8.1292  -22.8739  -53.6504 C.3       21 UNK        -0.1800 
    117 C         -7.4947  -20.5224  -52.8395 C.2       21 UNK         0.5000 
    118 O         -8.6737  -20.2165  -53.0272 O.2       21 UNK        -0.5000 
    119 N         -6.5779  -19.6717  -52.3684 N.am      22 UNK        -0.5000 
    120 CA        -6.8585  -18.2968  -51.9284 C.3       22 UNK         0.1400 
    121 C         -7.4848  -18.1776  -50.5060 C.2       22 UNK         0.5000 
    122 N         -7.5512  -19.2394  -49.7108 N.am      22 UNK        -0.7600 
    123 O         -7.9395  -17.1024  -50.1248 O.2       22 UNK        -0.5000 
    124 C124       -5.6261  -17.3768  -52.1084 C.3       23 UNK        -0.0398 
    125 S125       -4.1605  -17.8991  -51.1523 S.3       23 UNK        -0.2404 
    126 C126       -2.8359  -17.6049  -52.3617 C.3       23 UNK        -0.0205 
    127 H127        5.3078  -11.3960  -49.2411 H         1 UNK         0.0600 
    128 H128        5.9040  -12.7363  -48.2579 H         1 UNK         0.0600 
    129 H129        5.7948  -11.1137  -47.5669 H         1 UNK         0.0600 
    130 H130        3.0927  -11.4167  -49.4710 H         1 UNK         0.3000 
    131 H131        1.3792  -13.0000  -47.7454 H         1 UNK         0.0600 
    132 H132       -0.4247  -12.3123  -49.3886 H         1 UNK         0.0800 
    133 H133        0.7515  -11.3482  -50.2367 H         1 UNK         0.0800 
    134 H134        1.1434  -15.2473  -48.7416 H         1 UNK         0.0800 
    135 H135       -0.4779  -14.6541  -49.0259 H         1 UNK         0.0800 
    136 H136       -1.8398  -15.5302  -50.9278 H         1 UNK         0.1150 
    137 H137       -0.8514  -19.4801  -52.2535 H         1 UNK         0.1150 
    138 H138        1.9343  -17.2573  -49.8634 H         1 UNK         0.1150 
    139 H139        1.8946  -19.8523  -52.1636 H         1 UNK         0.0800 
    140 H140        2.5681  -19.4011  -50.6180 H         1 UNK         0.0800 
    141 H141        1.6840  -20.6491  -48.1781 H         1 UNK         0.0800 
    142 H142        0.3207  -19.6466  -48.6009 H         1 UNK         0.0800 
    143 H143        0.0989  -22.6528  -48.1045 H         1 UNK         0.0600 
    144 H144        0.4246  -20.6784  -46.1089 H         1 UNK         0.3000 
    145 H145       -1.2460  -22.5048  -43.4869 H         1 UNK         0.0600 
    146 H146        0.9681  -22.1352  -42.4616 H         1 UNK         0.0600 
    147 H147        1.0964  -23.3607  -43.7134 H         1 UNK         0.0600 
    148 H148        1.6674  -21.7259  -44.0269 H         1 UNK         0.0600 
    149 H149       -0.0019  -19.9754  -43.4008 H         1 UNK         0.3000 
    150 H150       -2.8907  -17.9962  -44.2537 H         1 UNK         0.0600 
    151 H151       -2.9704  -18.5440  -41.8233 H         1 UNK         0.0600 
    152 H152       -2.1882  -16.9930  -42.0931 H         1 UNK         0.0600 
    153 H153       -1.2194  -18.4156  -41.7172 H         1 UNK         0.0600 
    154 H154       -0.2380  -17.1937  -43.6856 H         1 UNK         0.3000 
    155 H155        1.0319  -17.2329  -47.0349 H         1 UNK         0.0600 
    156 H156        1.5304  -14.9163  -46.2432 H         1 UNK         0.0600 
    157 H157        0.3375  -15.0799  -44.9574 H         1 UNK         0.0600 
    158 H158       -0.1785  -15.0916  -46.6285 H         1 UNK         0.0600 
    159 H159        2.2015  -16.6805  -44.4701 H         1 UNK         0.3000 
    160 H160        3.4951  -19.9461  -43.8507 H         1 UNK         0.0600 
    161 H161        4.8838  -17.3492  -44.7093 H         1 UNK         0.0600 
    162 H162        5.0876  -18.9177  -45.4803 H         1 UNK         0.0600 
    163 H163        5.6266  -18.6828  -43.8255 H         1 UNK         0.0600 
    164 H164        3.8067  -17.4706  -42.4725 H         1 UNK         0.3000 
    165 H165        0.8945  -17.6351  -40.4491 H         1 UNK         0.0600 
    166 H166        3.8153  -18.2134  -39.7123 H         1 UNK         0.0600 
    167 H167        2.5572  -17.6524  -38.6102 H         1 UNK         0.0600 
    168 H168        2.4433  -19.2482  -39.3344 H         1 UNK         0.0600 
    169 H169        3.1404  -15.9059  -40.3673 H         1 UNK         0.3000 
    170 H170        3.2254  -13.9223  -41.1999 H         1 UNK         0.0600 
    171 H171        3.6001  -14.4755  -43.6002 H         1 UNK         0.0600 
    172 H172        2.0757  -13.7156  -44.0257 H         1 UNK         0.0600 
    173 H173        3.3859  -12.7523  -43.3531 H         1 UNK         0.0600 
    174 H174        0.9143  -12.4861  -42.2311 H         1 UNK         0.3000 
    175 H175       -0.6774  -11.9289  -39.2392 H         1 UNK         0.0600 
    176 H176        0.1089   -9.5798  -38.9771 H         1 UNK         0.0600 
    177 H177        1.2740  -10.7052  -38.3015 H         1 UNK         0.0600 
    178 H178        1.5869   -9.9577  -39.8632 H         1 UNK         0.0600 
    179 H179       -0.1250  -10.2475  -41.5821 H         1 UNK         0.3000 
    180 H180       -2.6217  -11.6339  -43.5933 H         1 UNK         0.0600 
    181 H181       -3.6819   -9.3909  -43.5704 H         1 UNK         0.0600 
    182 H182       -4.0902  -10.2656  -42.1037 H         1 UNK         0.0600 
    183 H183       -2.8749   -8.9943  -42.0522 H         1 UNK         0.0600 
    184 H184       -1.1674   -9.2082  -43.8480 H         1 UNK         0.3000 
    185 H185        0.4706   -9.1282  -45.4617 H         1 UNK         0.0600 
    186 H186        2.8445   -9.0465  -44.6662 H         1 UNK         0.0600 
    187 H187        1.7279   -9.0259  -43.3106 H         1 UNK         0.0600 
    188 H188        2.5890  -10.5061  -43.7127 H         1 UNK         0.0600 
    189 H189        2.2872  -11.4015  -45.9892 H         1 UNK         0.3000 
    190 H190       -1.9917  -19.8458  -47.2417 H         1 UNK         0.3000 
    191 H191       -3.9771  -20.2783  -49.2109 H         1 UNK         0.0600 
    192 H192       -5.3692  -18.8112  -47.7441 H         1 UNK         0.0600 
    193 H193       -3.7484  -18.1648  -47.9421 H         1 UNK         0.0600 
    194 H194       -4.1942  -18.9778  -46.4431 H         1 UNK         0.0600 
    195 H195       -3.6813  -21.5879  -45.8868 H         1 UNK         0.3000 
    196 H196       -6.1648  -23.0001  -45.8689 H         1 UNK         0.0600 
    197 H197       -5.1826  -24.1233  -43.8621 H         1 UNK         0.0600 
    198 H198       -4.9742  -22.3799  -43.7945 H         1 UNK         0.0600 
    199 H199       -3.6133  -23.4137  -44.2239 H         1 UNK         0.0600 
    200 H200       -2.8186  -24.0279  -46.7031 H         1 UNK         0.3000 
    201 H201       -3.4575  -26.7563  -47.2938 H         1 UNK         0.0600 
    202 H202       -1.1653  -26.0486  -46.7691 H         1 UNK         0.0600 
    203 H203       -1.1366  -24.9632  -48.1551 H         1 UNK         0.0600 
    204 H204       -1.1923  -26.7100  -48.3981 H         1 UNK         0.0600 
    205 H205       -3.6146  -23.7999  -49.1990 H         1 UNK         0.3000 
    206 H206       -4.6896  -23.2365  -51.0141 H         1 UNK         0.0600 
    207 H207       -6.6111  -24.4526  -50.0257 H         1 UNK         0.0600 
    208 H208       -6.6681  -24.5935  -51.7692 H         1 UNK         0.0600 
    209 H209       -6.1190  -25.9505  -50.8038 H         1 UNK         0.0600 
    210 H210       -5.4994  -25.6066  -52.9986 H         1 UNK         0.3000 
    211 H211       -3.5545  -25.0149  -54.9405 H         1 UNK         0.0600 
    212 H212       -5.5974  -27.2935  -54.8171 H         1 UNK         0.0600 
    213 H213       -4.7579  -26.7556  -56.2670 H         1 UNK         0.0600 
    214 H214       -5.8826  -25.6752  -55.4607 H         1 UNK         0.0600 
    215 H215       -3.4042  -27.4089  -52.4238 H         1 UNK         0.3000 
    216 H216       -1.4635  -29.1618  -53.6739 H         1 UNK         0.0600 
    217 H217       -1.2461  -30.0899  -51.3923 H         1 UNK         0.0600 
    218 H218       -2.9450  -29.9035  -51.7989 H         1 UNK         0.0600 
    219 H219       -2.1616  -28.7501  -50.7182 H         1 UNK         0.0600 
    220 H220       -1.3124  -26.0552  -52.0203 H         1 UNK         0.3000 
    221 H221        1.6581  -26.2073  -51.7557 H         1 UNK         0.0600 
    222 H222       -0.3810  -24.2779  -50.5419 H         1 UNK         0.0600 
    223 H223        0.5370  -25.5364  -49.7062 H         1 UNK         0.0600 
    224 H224        1.3683  -24.1495  -50.3770 H         1 UNK         0.0600 
    225 H225       -1.0152  -24.1646  -53.0992 H         1 UNK         0.3000 
    226 H226        0.6135  -23.4480  -55.3951 H         1 UNK         0.0600 
    227 H227        1.5797  -21.7913  -53.8783 H         1 UNK         0.0600 
    228 H228        0.4705  -20.9472  -54.9455 H         1 UNK         0.0600 
    229 H229       -0.0072  -21.3144  -53.2911 H         1 UNK         0.0600 
    230 H230       -2.1544  -21.9007  -53.6363 H         1 UNK         0.3000 
    231 H231       -4.0471  -22.6579  -55.7173 H         1 UNK         0.0600 
    232 H232       -4.5810  -20.2563  -56.2565 H         1 UNK         0.0600 
    233 H233       -2.9488  -20.6633  -56.7599 H         1 UNK         0.0600 
    234 H234       -3.2090  -19.7269  -55.2897 H         1 UNK         0.0600 
    235 H235       -6.1938  -22.2065  -55.0839 H         1 UNK         0.3000 
    236 H236       -6.6268  -22.3515  -52.2154 H         1 UNK         0.0600 
    237 H237       -8.5727  -22.5081  -54.5774 H         1 UNK         0.0600 
    238 H238       -7.7630  -23.8840  -53.8341 H         1 UNK         0.0600 
    239 H239       -8.9272  -22.9487  -52.9105 H         1 UNK         0.0600 
    240 H240       -5.6227  -19.9977  -52.2582 H         1 UNK         0.3000 
    241 H241       -7.6239  -17.8991  -52.5977 H         1 UNK         0.0600 
    242 H242       -7.9740  -19.1472  -48.8012 H         1 UNK         0.3800 
    243 H243       -7.1684  -20.1262  -49.9958 H         1 UNK         0.3800 
    244 H244       -5.3676  -17.3422  -53.1675 H         1 UNK         0.0800 
    245 H245       -5.8693  -16.3490  -51.8335 H         1 UNK         0.0800 
    246 H246       -2.8423  -18.4043  -53.1044 H         1 UNK         0.0800 
    247 H247       -3.0237  -16.6742  -52.8992 H         1 UNK         0.0800 
@<TRIPOS>BOND
     1    1    2 1    
     2    1  127 1    
     3    1  128 1    
     4    1  129 1    
     5    2    3 2    
     6    2    4 am   BACKBONE|DICT|INTERRES
     7    4    5 1    
     8    4  130 1    
     9    5    6 1    
    10    5   65 1    
    11    5  131 1    
    12    6    7 1    
    13    6  132 1    
    14    6  133 1    
    15    7    8 1    
    16    8    9 1    
    17    8  134 1    
    18    8  135 1    
    19    9   10 ar   
    20    9   14 ar   
    21   10   11 ar   
    22   10  136 1    
    23   11   12 ar   
    24   11  126 1    
    25   12   13 ar   
    26   12  137 1    
    27   13   14 ar   
    28   13   15 1    
    29   14  138 1    
    30   15   16 1    
    31   15  139 1    
    32   15  140 1    
    33   16   17 1    
    34   17   18 1    
    35   17  141 1    
    36   17  142 1    
    37   18   19 1    
    38   18   67 1    
    39   18  143 1    
    40   19   20 am   BACKBONE|DICT|INTERRES
    41   19  144 1    
    42   20   21 2    
    43   20   22 1    
    44   22   23 1    
    45   22   24 1    
    46   22  145 1    
    47   23  146 1    
    48   23  147 1    
    49   23  148 1    
    50   24   25 am   BACKBONE|DICT|INTERRES
    51   24  149 1    
    52   25   26 2    
    53   25   27 1    
    54   27   28 1    
    55   27   29 1    
    56   27  150 1    
    57   28  151 1    
    58   28  152 1    
    59   28  153 1    
    60   29   30 am   BACKBONE|DICT|INTERRES
    61   29  154 1    
    62   30   31 2    
    63   30   32 1    
    64   32   33 1    
    65   32   34 1    
    66   32  155 1    
    67   33  156 1    
    68   33  157 1    
    69   33  158 1    
    70   34   35 am   BACKBONE|DICT|INTERRES
    71   34  159 1    
    72   35   36 2    
    73   35   37 1    
    74   37   38 1    
    75   37   39 1    
    76   37  160 1    
    77   38  161 1    
    78   38  162 1    
    79   38  163 1    
    80   39   40 am   BACKBONE|DICT|INTERRES
    81   39  164 1    
    82   40   41 2    
    83   40   42 1    
    84   42   43 1    
    85   42   44 1    
    86   42  165 1    
    87   43  166 1    
    88   43  167 1    
    89   43  168 1    
    90   44   45 am   BACKBONE|DICT|INTERRES
    91   44  169 1    
    92   45   46 2    
    93   45   47 1    
    94   47   48 1    
    95   47   49 1    
    96   47  170 1    
    97   48  171 1    
    98   48  172 1    
    99   48  173 1    
   100   49   50 am   BACKBONE|DICT|INTERRES
   101   49  174 1    
   102   50   51 2    
   103   50   52 1    
   104   52   53 1    
   105   52   54 1    
   106   52  175 1    
   107   53  176 1    
   108   53  177 1    
   109   53  178 1    
   110   54   55 am   BACKBONE|DICT|INTERRES
   111   54  179 1    
   112   55   56 2    
   113   55   57 1    
   114   57   58 1    
   115   57   59 1    
   116   57  180 1    
   117   58  181 1    
   118   58  182 1    
   119   58  183 1    
   120   59   60 am   BACKBONE|DICT|INTERRES
   121   59  184 1    
   122   60   61 2    
   123   60   62 1    
   124   62   63 1    
   125   62   64 1    
   126   62  185 1    
   127   63  186 1    
   128   63  187 1    
   129   63  188 1    
   130   64   65 am   BACKBONE|DICT|INTERRES
   131   64  189 1    
   132   65   66 2    
   133   67   68 2    
   134   67   69 am   BACKBONE|DICT|INTERRES
   135   69   70 1    
   136   69  190 1    
   137   70   71 1    
   138   70   72 1    
   139   70  191 1    
   140   71  192 1    
   141   71  193 1    
   142   71  194 1    
   143   72   73 2    
   144   72   74 am   BACKBONE|DICT|INTERRES
   145   74   75 1    
   146   74  195 1    
   147   75   76 1    
   148   75   77 1    
   149   75  196 1    
   150   76  197 1    
   151   76  198 1    
   152   76  199 1    
   153   77   78 2    
   154   77   79 am   BACKBONE|DICT|INTERRES
   155   79   80 1    
   156   79  200 1    
   157   80   81 1    
   158   80   82 1    
   159   80  201 1    
   160   81  202 1    
   161   81  203 1    
   162   81  204 1    
   163   82   83 2    
   164   82   84 am   BACKBONE|DICT|INTERRES
   165   84   85 1    
   166   84  205 1    
   167   85   86 1    
   168   85   87 1    
   169   85  206 1    
   170   86  207 1    
   171   86  208 1    
   172   86  209 1    
   173   87   88 2    
   174   87   89 am   BACKBONE|DICT|INTERRES
   175   89   90 1    
   176   89  210 1    
   177   90   91 1    
   178   90   92 1    
   179   90  211 1    
   180   91  212 1    
   181   91  213 1    
   182   91  214 1    
   183   92   93 2    
   184   92   94 am   BACKBONE|DICT|INTERRES
   185   94   95 1    
   186   94  215 1    
   187   95   96 1    
   188   95   97 1    
   189   95  216 1    
   190   96  217 1    
   191   96  218 1    
   192   96  219 1    
   193   97   98 2    
   194   97   99 am   BACKBONE|DICT|INTERRES
   195   99  100 1    
   196   99  220 1    
   197  100  101 1    
   198  100  102 1    
   199  100  221 1    
   200  101  222 1    
   201  101  223 1    
   202  101  224 1    
   203  102  103 2    
   204  102  104 am   BACKBONE|DICT|INTERRES
   205  104  105 1    
   206  104  225 1    
   207  105  106 1    
   208  105  107 1    
   209  105  226 1    
   210  106  227 1    
   211  106  228 1    
   212  106  229 1    
   213  107  108 2    
   214  107  109 am   BACKBONE|DICT|INTERRES
   215  109  110 1    
   216  109  230 1    
   217  110  111 1    
   218  110  112 1    
   219  110  231 1    
   220  111  232 1    
   221  111  233 1    
   222  111  234 1    
   223  112  113 2    
   224  112  114 am   BACKBONE|DICT|INTERRES
   225  114  115 1    
   226  114  235 1    
   227  115  116 1    
   228  115  117 1    
   229  115  236 1    
   230  116  237 1    
   231  116  238 1    
   232  116  239 1    
   233  117  118 2    
   234  117  119 am   BACKBONE|DICT|INTERRES
   235  119  120 1    
   236  119  240 1    
   237  120  121 1    
   238  120  124 1    
   239  120  241 1    
   240  121  122 am   BACKBONE|DICT|INTERRES
   241  121  123 2    
   242  122  242 1    
   243  122  243 1    
   244  124  125 1    
   245  124  244 1    
   246  124  245 1    
   247  125  126 1    
   248  126  246 1    
   249  126  247 1    
@<TRIPOS>SUBSTRUCTURE
     1 UNK         1 GROUP             0       ****    0 ROOT    
