@<TRIPOS>MOLECULE
3R540
247   249    1
SMALL
USER_CHARGES


@<TRIPOS>ATOM
      1 CA         -1.7198  -17.3565  -40.6723 C.3       0 UNK        -0.1800 
      2 C          -1.2441  -16.0864  -41.3643 C.2       0 UNK         0.5000 
      3 O          -0.1176  -16.0503  -41.8564 O.2       0 UNK        -0.5000 
      4 N          -2.1048  -15.0586  -41.3813 N.am      1 UNK        -0.5000 
      5 CA         -1.9139  -13.7172  -41.9495 C.3       1 UNK         0.1400 
      6 C6         -2.3123  -13.5991  -43.4489 C.3       23 UNK        -0.0398 
      7 S7         -1.3467  -14.5741  -44.6565 S.3       23 UNK        -0.2404 
      8 C8         -2.4534  -14.4757  -46.1004 C.3       23 UNK        -0.0205 
      9 C9         -3.0492  -15.8286  -46.4630 C.ar      23 UNK        -0.0193 
     10 C10        -2.8120  -16.3698  -47.7291 C.ar      23 UNK        -0.1150 
     11 C11        -3.3341  -17.6139  -48.0810 C.ar      23 UNK        -0.0193 
     12 C12        -4.1216  -18.3120  -47.1644 C.ar      23 UNK        -0.1150 
     13 C13        -4.3742  -17.7849  -45.8936 C.ar      23 UNK        -0.0193 
     14 C14        -3.8424  -16.5365  -45.5518 C.ar      23 UNK        -0.1150 
     15 C15        -5.2363  -18.5674  -44.9083 C.3       23 UNK        -0.0205 
     16 S16        -4.3835  -19.0251  -43.3563 S.3       23 UNK        -0.2404 
     17 C17        -2.7273  -19.6000  -43.8696 C.3       23 UNK        -0.0398 
     18 CA         -2.6933  -20.6844  -44.9748 C.3       11 UNK         0.1400 
     19 N          -1.4260  -20.6403  -45.6983 N.am      11 UNK        -0.5000 
     20 C          -1.2025  -21.1710  -46.9052 C.2       10 UNK         0.5000 
     21 O          -2.0587  -21.7490  -47.5757 O.2       10 UNK        -0.5000 
     22 CA          0.2361  -21.0484  -47.4361 C.3       10 UNK         0.1400 
     23 CB          0.4122  -19.7232  -48.1913 C.3       10 UNK        -0.1800 
     24 N           1.2328  -21.1326  -46.3649 N.am      10 UNK        -0.5000 
     25 C           1.4932  -22.2484  -45.6675 C.2       9 UNK         0.5000 
     26 O           0.9296  -23.3235  -45.8665 O.2       9 UNK        -0.5000 
     27 CA          2.5124  -22.1317  -44.5191 C.3       9 UNK         0.1400 
     28 CB          3.9488  -22.1992  -45.0586 C.3       9 UNK        -0.1800 
     29 N           2.3486  -20.9119  -43.7272 N.am      9 UNK        -0.5000 
     30 C           1.2440  -20.5840  -43.0424 C.2       8 UNK         0.5000 
     31 O           0.2400  -21.2912  -42.9884 O.2       8 UNK        -0.5000 
     32 CA          1.2336  -19.2254  -42.3229 C.3       8 UNK         0.1400 
     33 CB          1.5637  -19.4011  -40.8338 C.3       8 UNK        -0.1800 
     34 N           2.1370  -18.2317  -42.9034 N.am      8 UNK        -0.5000 
     35 C           2.0191  -17.7157  -44.1336 C.2       7 UNK         0.5000 
     36 O           1.1843  -18.1000  -44.9575 O.2       7 UNK        -0.5000 
     37 CA          3.0275  -16.6011  -44.4695 C.3       7 UNK         0.1400 
     38 CB          4.4558  -17.1663  -44.6353 C.3       7 UNK        -0.1800 
     39 N           2.6109  -15.7835  -45.6140 N.am      7 UNK        -0.5000 
     40 C           2.6284  -16.1099  -46.9153 C.2       6 UNK         0.5000 
     41 O           3.1570  -17.1273  -47.3657 O.2       6 UNK        -0.5000 
     42 CA          1.9180  -15.1617  -47.8970 C.3       6 UNK         0.1400 
     43 CB          0.5698  -15.7899  -48.2985 C.3       6 UNK        -0.1800 
     44 N           1.7244  -13.8018  -47.3745 N.am      6 UNK        -0.5000 
     45 C           1.3266  -12.7573  -48.1156 C.2       5 UNK         0.5000 
     46 O           1.0951  -12.8178  -49.3237 O.2       5 UNK        -0.5000 
     47 CA          1.1877  -11.4056  -47.3975 C.3       5 UNK         0.1400 
     48 CB         -0.0169  -11.3908  -46.4417 C.3       5 UNK        -0.1800 
     49 N           2.4077  -11.0688  -46.6688 N.am      5 UNK        -0.5000 
     50 C           3.4819  -10.4886  -47.2240 C.2       4 UNK         0.5000 
     51 O           3.5381  -10.1427  -48.4047 O.2       4 UNK        -0.5000 
     52 CA          4.6986  -10.2373  -46.3114 C.3       4 UNK         0.1400 
     53 CB          4.6854   -8.7930  -45.7870 C.3       4 UNK        -0.1800 
     54 N           4.7565  -11.1522  -45.1722 N.am      4 UNK        -0.5000 
     55 C           5.0869  -12.4481  -45.2516 C.2       3 UNK         0.5000 
     56 O           5.4485  -13.0034  -46.2889 O.2       3 UNK        -0.5000 
     57 CA          4.9528  -13.2673  -43.9548 C.3       3 UNK         0.1400 
     58 CB          6.2778  -13.2787  -43.1789 C.3       3 UNK        -0.1800 
     59 N           3.8776  -12.7986  -43.0737 N.am      3 UNK        -0.5000 
     60 C           2.5758  -12.8014  -43.3865 C.2       2 UNK         0.5000 
     61 O           2.1300  -13.1989  -44.4684 O.2       2 UNK        -0.5000 
     62 CA          1.6251  -12.2091  -42.3418 C.3       2 UNK         0.1400 
     63 CB          1.5337  -10.6820  -42.4993 C.3       2 UNK        -0.1800 
     64 N           0.3041  -12.7941  -42.5245 N.am      2 UNK        -0.5000 
     65 C          -0.5711  -13.0593  -41.5507 C.2       1 UNK         0.5000 
     66 O          -0.3690  -12.7916  -40.3638 O.2       1 UNK        -0.5000 
     67 C          -2.9879  -22.1034  -44.4508 C.2       11 UNK         0.5000 
     68 O          -4.0924  -22.6074  -44.6547 O.2       11 UNK        -0.5000 
     69 N          -1.9759  -22.7528  -43.8574 N.am      12 UNK        -0.5000 
     70 CA         -2.0182  -24.1398  -43.3883 C.3       12 UNK         0.1400 
     71 CB         -0.7325  -24.4497  -42.6069 C.3       12 UNK        -0.1800 
     72 C          -2.2171  -25.1553  -44.5292 C.2       12 UNK         0.5000 
     73 O          -2.9433  -26.1337  -44.3527 O.2       12 UNK        -0.5000 
     74 N          -1.6034  -24.8836  -45.6893 N.am      13 UNK        -0.5000 
     75 CA         -1.7681  -25.6521  -46.9248 C.3       13 UNK         0.1400 
     76 CB         -0.5842  -25.3504  -47.8575 C.3       13 UNK        -0.1800 
     77 C          -3.1007  -25.3783  -47.6522 C.2       13 UNK         0.5000 
     78 O          -3.3779  -26.0451  -48.6501 O.2       13 UNK        -0.5000 
     79 N          -3.8794  -24.3911  -47.1817 N.am      14 UNK        -0.5000 
     80 CA         -5.1507  -23.9201  -47.7393 C.3       14 UNK         0.1400 
     81 CB         -6.2519  -24.9832  -47.5459 C.3       14 UNK        -0.1800 
     82 C          -5.0059  -23.4619  -49.2037 C.2       14 UNK         0.5000 
     83 O          -5.7705  -23.8936  -50.0685 O.2       14 UNK        -0.5000 
     84 N          -3.9793  -22.6363  -49.4601 N.am      15 UNK        -0.5000 
     85 CA         -3.5687  -22.1357  -50.7763 C.3       15 UNK         0.1400 
     86 CB         -4.6609  -21.2251  -51.3700 C.3       15 UNK        -0.1800 
     87 C          -3.1462  -23.2722  -51.7315 C.2       15 UNK         0.5000 
     88 O          -3.4608  -23.2290  -52.9233 O.2       15 UNK        -0.5000 
     89 N          -2.4651  -24.2808  -51.1651 N.am      16 UNK        -0.5000 
     90 CA         -2.0707  -25.5525  -51.7810 C.3       16 UNK         0.1400 
     91 CB         -1.0221  -25.3254  -52.8893 C.3       16 UNK        -0.1800 
     92 C          -3.3004  -26.3458  -52.2636 C.2       16 UNK         0.5000 
     93 O          -3.3667  -26.7370  -53.4282 O.2       16 UNK        -0.5000 
     94 N          -4.2855  -26.5056  -51.3673 N.am      17 UNK        -0.5000 
     95 CA         -5.6235  -27.0567  -51.6211 C.3       17 UNK         0.1400 
     96 CB         -5.5461  -28.5800  -51.8501 C.3       17 UNK        -0.1800 
     97 C          -6.3559  -26.3073  -52.7582 C.2       17 UNK         0.5000 
     98 O          -6.9321  -26.9302  -53.6516 O.2       17 UNK        -0.5000 
     99 N          -6.2649  -24.9711  -52.7110 N.am      18 UNK        -0.5000 
    100 CA        -6.7528  -23.9831  -53.6778 C.3       18 UNK         0.1400 
    101 CB        -8.2888  -24.0480  -53.8021 C.3       18 UNK        -0.1800 
    102 C         -6.0565  -23.9988  -55.0579 C.2       18 UNK         0.5000 
    103 O         -6.4819  -23.2481  -55.9374 O.2       18 UNK        -0.5000 
    104 N         -5.0034  -24.8088  -55.2469 N.am      19 UNK        -0.5000 
    105 CA        -4.2893  -24.9254  -56.5212 C.3       19 UNK         0.1400 
    106 CB        -3.5010  -26.2426  -56.5637 C.3       19 UNK        -0.1800 
    107 C         -3.3551  -23.7358  -56.8055 C.2       19 UNK         0.5000 
    108 O         -3.1910  -23.3716  -57.9708 O.2       19 UNK        -0.5000 
    109 N         -2.7589  -23.1526  -55.7555 N.am      20 UNK        -0.5000 
    110 CA        -1.8724  -21.9908  -55.8684 C.3       20 UNK         0.1400 
    111 CB        -0.8152  -22.0357  -54.7538 C.3       20 UNK        -0.1800 
    112 C         -2.6493  -20.6648  -55.8160 C.2       20 UNK         0.5000 
    113 O         -2.1452  -19.6514  -56.3031 O.2       20 UNK        -0.5000 
    114 N         -3.8439  -20.6878  -55.2019 N.am      21 UNK        -0.5000 
    115 CA        -4.7932  -19.5742  -55.0519 C.3       21 UNK         0.1400 
    116 CB        -5.4339  -19.2413  -56.4144 C.3       21 UNK        -0.1800 
    117 C         -4.1985  -18.3271  -54.3550 C.2       21 UNK         0.5000 
    118 O         -4.6532  -17.2079  -54.5974 O.2       21 UNK        -0.5000 
    119 N         -3.1808  -18.5539  -53.5133 N.am      22 UNK        -0.5000 
    120 CA        -2.3695  -17.5447  -52.8113 C.3       22 UNK         0.1400 
    121 C         -1.4453  -16.7036  -53.7456 C.2       22 UNK         0.5000 
    122 N         -1.1965  -17.1168  -54.9841 N.am      22 UNK        -0.7600 
    123 O         -0.9156  -15.6744  -53.3359 O.2       22 UNK        -0.5000 
    124 C124       -3.1793  -16.6638  -51.8138 C.3       23 UNK        -0.0398 
    125 S125       -4.2397  -17.6331  -50.6860 S.3       23 UNK        -0.2404 
    126 C126       -3.0396  -18.2078  -49.4462 C.3       23 UNK        -0.0205 
    127 H127       -0.9799  -17.6895  -39.9447 H         1 UNK         0.0600 
    128 H128       -1.8640  -18.1503  -41.4028 H         1 UNK         0.0600 
    129 H129       -2.6639  -17.2046  -40.1486 H         1 UNK         0.0600 
    130 H130       -2.9960  -15.1881  -40.9242 H         1 UNK         0.3000 
    131 H131       -2.6522  -13.1127  -41.4199 H         1 UNK         0.0600 
    132 H132       -3.3572  -13.8975  -43.5440 H         1 UNK         0.0800 
    133 H133       -2.2840  -12.5531  -43.7592 H         1 UNK         0.0800 
    134 H134       -3.2617  -13.7644  -45.9274 H         1 UNK         0.0800 
    135 H135       -1.8770  -14.0752  -46.9357 H         1 UNK         0.0800 
    136 H136       -2.2207  -15.8234  -48.4486 H         1 UNK         0.1150 
    137 H137       -4.5341  -19.2710  -47.4450 H         1 UNK         0.1150 
    138 H138       -4.0337  -16.1238  -44.5714 H         1 UNK         0.1150 
    139 H139       -6.1114  -17.9666  -44.6574 H         1 UNK         0.0800 
    140 H140       -5.6236  -19.4763  -45.3713 H         1 UNK         0.0800 
    141 H141       -2.1900  -19.9388  -42.9828 H         1 UNK         0.0800 
    142 H142       -2.1906  -18.7112  -44.2074 H         1 UNK         0.0800 
    143 H143       -3.4704  -20.4702  -45.7048 H         1 UNK         0.0600 
    144 H144       -0.6506  -20.1960  -45.2276 H         1 UNK         0.3000 
    145 H145        0.4092  -21.8700  -48.1341 H         1 UNK         0.0600 
    146 H146        1.4213  -19.6256  -48.5920 H         1 UNK         0.0600 
    147 H147       -0.2797  -19.6582  -49.0315 H         1 UNK         0.0600 
    148 H148        0.2261  -18.8654  -47.5431 H         1 UNK         0.0600 
    149 H149        1.6989  -20.2724  -46.1085 H         1 UNK         0.3000 
    150 H150        2.3573  -22.9829  -43.8528 H         1 UNK         0.0600 
    151 H151        4.1035  -23.1068  -45.6437 H         1 UNK         0.0600 
    152 H152        4.6752  -22.2105  -44.2459 H         1 UNK         0.0600 
    153 H153        4.1786  -21.3495  -45.7030 H         1 UNK         0.0600 
    154 H154        3.1227  -20.2648  -43.7194 H         1 UNK         0.3000 
    155 H155        0.2198  -18.8311  -42.4050 H         1 UNK         0.0600 
    156 H156        0.8780  -20.1065  -40.3623 H         1 UNK         0.0600 
    157 H157        1.4748  -18.4564  -40.2968 H         1 UNK         0.0600 
    158 H158        2.5765  -19.7783  -40.6874 H         1 UNK         0.0600 
    159 H159        2.8460  -17.8638  -42.2862 H         1 UNK         0.3000 
    160 H160        3.0334  -15.9175  -43.6195 H         1 UNK         0.0600 
    161 H161        4.4787  -18.0215  -45.3116 H         1 UNK         0.0600 
    162 H162        4.8539  -17.5051  -43.6785 H         1 UNK         0.0600 
    163 H163        5.1455  -16.4191  -45.0264 H         1 UNK         0.0600 
    164 H164        2.1341  -14.9331  -45.3391 H         1 UNK         0.3000 
    165 H165        2.5501  -15.0911  -48.7845 H         1 UNK         0.0600 
    166 H166        0.0320  -15.1901  -49.0313 H         1 UNK         0.0600 
    167 H167        0.7155  -16.7742  -48.7440 H         1 UNK         0.0600 
    168 H168       -0.0681  -15.9184  -47.4242 H         1 UNK         0.0600 
    169 H169        1.9329  -13.6428  -46.3955 H         1 UNK         0.3000 
    170 H170        1.0057  -10.6419  -48.1571 H         1 UNK         0.0600 
    171 H171       -0.9392  -11.6218  -46.9757 H         1 UNK         0.0600 
    172 H172        0.0852  -12.1190  -45.6394 H         1 UNK         0.0600 
    173 H173       -0.1436  -10.4093  -45.9850 H         1 UNK         0.0600 
    174 H174        2.4622  -11.3816  -45.7101 H         1 UNK         0.3000 
    175 H175        5.5993  -10.3747  -46.9136 H         1 UNK         0.0600 
    176 H176        3.8099   -8.5977  -45.1662 H         1 UNK         0.0600 
    177 H177        5.5740   -8.5808  -45.1922 H         1 UNK         0.0600 
    178 H178        4.6694   -8.0784  -46.6110 H         1 UNK         0.0600 
    179 H179        4.4873  -10.7788  -44.2742 H         1 UNK         0.3000 
    180 H180        4.7231  -14.2907  -44.2451 H         1 UNK         0.0600 
    181 H181        6.5518  -12.2809  -42.8342 H         1 UNK         0.0600 
    182 H182        7.0931  -13.6460  -43.8038 H         1 UNK         0.0600 
    183 H183        6.2191  -13.9318  -42.3080 H         1 UNK         0.0600 
    184 H184        4.1631  -12.4456  -42.1713 H         1 UNK         0.3000 
    185 H185        2.0086  -12.4561  -41.3495 H         1 UNK         0.0600 
    186 H186        1.1598  -10.4010  -43.4849 H         1 UNK         0.0600 
    187 H187        0.8659  -10.2493  -41.7542 H         1 UNK         0.0600 
    188 H188        2.5095  -10.2124  -42.3699 H         1 UNK         0.0600 
    189 H189        0.1163  -13.1372  -43.4597 H         1 UNK         0.3000 
    190 H190       -1.1050  -22.2518  -43.6894 H         1 UNK         0.3000 
    191 H191       -2.8655  -24.2356  -42.7064 H         1 UNK         0.0600 
    192 H192        0.1540  -24.3381  -43.2323 H         1 UNK         0.0600 
    193 H193       -0.6223  -23.7845  -41.7503 H         1 UNK         0.0600 
    194 H194       -0.7417  -25.4720  -42.2267 H         1 UNK         0.0600 
    195 H195       -0.9593  -24.1004  -45.7296 H         1 UNK         0.3000 
    196 H196       -1.7453  -26.7157  -46.6793 H         1 UNK         0.0600 
    197 H197        0.3655  -25.5804  -47.3742 H         1 UNK         0.0600 
    198 H198       -0.5635  -24.3011  -48.1542 H         1 UNK         0.0600 
    199 H199       -0.6334  -25.9511  -48.7659 H         1 UNK         0.0600 
    200 H200       -3.5623  -23.8900  -46.3615 H         1 UNK         0.3000 
    201 H201       -5.4351  -23.0369  -47.1657 H         1 UNK         0.0600 
    202 H202       -7.2222  -24.6024  -47.8665 H         1 UNK         0.0600 
    203 H203       -6.3444  -25.2657  -46.4972 H         1 UNK         0.0600 
    204 H204       -6.0501  -25.8880  -48.1201 H         1 UNK         0.0600 
    205 H205       -3.3765  -22.3605  -48.6854 H         1 UNK         0.3000 
    206 H206       -2.6789  -21.5265  -50.6125 H         1 UNK         0.0600 
    207 H207       -4.9475  -20.4471  -50.6645 H         1 UNK         0.0600 
    208 H208       -5.5636  -21.7778  -51.6219 H         1 UNK         0.0600 
    209 H209       -4.3129  -20.7365  -52.2770 H         1 UNK         0.0600 
    210 H210       -2.3095  -24.2222  -50.1696 H         1 UNK         0.3000 
    211 H211       -1.6028  -26.1510  -50.9988 H         1 UNK         0.0600 
    212 H212       -0.1799  -24.7381  -52.5238 H         1 UNK         0.0600 
    213 H213       -0.6261  -26.2759  -53.2482 H         1 UNK         0.0600 
    214 H214       -1.4454  -24.8076  -53.7491 H         1 UNK         0.0600 
    215 H215       -4.1193  -26.1732  -50.4204 H         1 UNK         0.3000 
    216 H216       -6.2049  -26.8844  -50.7142 H         1 UNK         0.0600 
    217 H217       -6.5434  -29.0137  -51.9312 H         1 UNK         0.0600 
    218 H218       -5.0067  -28.8257  -52.7654 H         1 UNK         0.0600 
    219 H219       -5.0429  -29.0770  -51.0207 H         1 UNK         0.0600 
    220 H220       -5.8093  -24.5740  -51.8933 H         1 UNK         0.3000 
    221 H221       -6.5092  -23.0126  -53.2486 H         1 UNK         0.0600 
    222 H222       -8.6184  -24.9624  -54.2957 H         1 UNK         0.0600 
    223 H223       -8.7656  -24.0031  -52.8229 H         1 UNK         0.0600 
    224 H224       -8.6712  -23.2091  -54.3848 H         1 UNK         0.0600 
    225 H225       -4.6739  -25.3882  -54.4832 H         1 UNK         0.3000 
    226 H226       -5.0314  -24.9625  -57.3218 H         1 UNK         0.0600 
    227 H227       -4.1338  -27.0941  -56.3124 H         1 UNK         0.0600 
    228 H228       -3.0965  -26.4190  -57.5610 H         1 UNK         0.0600 
    229 H229       -2.6586  -26.2310  -55.8717 H         1 UNK         0.0600 
    230 H230       -2.9766  -23.4728  -54.8158 H         1 UNK         0.3000 
    231 H231       -1.3449  -22.0245  -56.8241 H         1 UNK         0.0600 
    232 H232       -0.1224  -21.1977  -54.8415 H         1 UNK         0.0600 
    233 H233       -0.2232  -22.9490  -54.8096 H         1 UNK         0.0600 
    234 H234       -1.2630  -21.9838  -53.7620 H         1 UNK         0.0600 
    235 H235       -4.1425  -21.5736  -54.8179 H         1 UNK         0.3000 
    236 H236       -5.5859  -19.9357  -54.3954 H         1 UNK         0.0600 
    237 H237       -5.8638  -20.1318  -56.8736 H         1 UNK         0.0600 
    238 H238       -6.2393  -18.5144  -56.3045 H         1 UNK         0.0600 
    239 H239       -4.7061  -18.8228  -57.1104 H         1 UNK         0.0600 
    240 H240       -2.8732  -19.5079  -53.4059 H         1 UNK         0.3000 
    241 H241       -1.6694  -18.1269  -52.2119 H         1 UNK         0.0600 
    242 H242       -0.5894  -16.5684  -55.5722 H         1 UNK         0.3800 
    243 H243       -1.6115  -17.9669  -55.3519 H         1 UNK         0.3800 
    244 H244       -2.5104  -16.0453  -51.2130 H         1 UNK         0.0800 
    245 H245       -3.8183  -15.9680  -52.3589 H         1 UNK         0.0800 
    246 H246       -2.0216  -17.9565  -49.7461 H         1 UNK         0.0800 
    247 H247       -3.0769  -19.2966  -49.3933 H         1 UNK         0.0800 
@<TRIPOS>BOND
     1    1    2 1    
     2    1  127 1    
     3    1  128 1    
     4    1  129 1    
     5    2    3 2    
     6    2    4 am   BACKBONE|DICT|INTERRES
     7    4    5 1    
     8    4  130 1    
     9    5    6 1    
    10    5   65 1    
    11    5  131 1    
    12    6    7 1    
    13    6  132 1    
    14    6  133 1    
    15    7    8 1    
    16    8    9 1    
    17    8  134 1    
    18    8  135 1    
    19    9   10 ar   
    20    9   14 ar   
    21   10   11 ar   
    22   10  136 1    
    23   11   12 ar   
    24   11  126 1    
    25   12   13 ar   
    26   12  137 1    
    27   13   14 ar   
    28   13   15 1    
    29   14  138 1    
    30   15   16 1    
    31   15  139 1    
    32   15  140 1    
    33   16   17 1    
    34   17   18 1    
    35   17  141 1    
    36   17  142 1    
    37   18   19 1    
    38   18   67 1    
    39   18  143 1    
    40   19   20 am   BACKBONE|DICT|INTERRES
    41   19  144 1    
    42   20   21 2    
    43   20   22 1    
    44   22   23 1    
    45   22   24 1    
    46   22  145 1    
    47   23  146 1    
    48   23  147 1    
    49   23  148 1    
    50   24   25 am   BACKBONE|DICT|INTERRES
    51   24  149 1    
    52   25   26 2    
    53   25   27 1    
    54   27   28 1    
    55   27   29 1    
    56   27  150 1    
    57   28  151 1    
    58   28  152 1    
    59   28  153 1    
    60   29   30 am   BACKBONE|DICT|INTERRES
    61   29  154 1    
    62   30   31 2    
    63   30   32 1    
    64   32   33 1    
    65   32   34 1    
    66   32  155 1    
    67   33  156 1    
    68   33  157 1    
    69   33  158 1    
    70   34   35 am   BACKBONE|DICT|INTERRES
    71   34  159 1    
    72   35   36 2    
    73   35   37 1    
    74   37   38 1    
    75   37   39 1    
    76   37  160 1    
    77   38  161 1    
    78   38  162 1    
    79   38  163 1    
    80   39   40 am   BACKBONE|DICT|INTERRES
    81   39  164 1    
    82   40   41 2    
    83   40   42 1    
    84   42   43 1    
    85   42   44 1    
    86   42  165 1    
    87   43  166 1    
    88   43  167 1    
    89   43  168 1    
    90   44   45 am   BACKBONE|DICT|INTERRES
    91   44  169 1    
    92   45   46 2    
    93   45   47 1    
    94   47   48 1    
    95   47   49 1    
    96   47  170 1    
    97   48  171 1    
    98   48  172 1    
    99   48  173 1    
   100   49   50 am   BACKBONE|DICT|INTERRES
   101   49  174 1    
   102   50   51 2    
   103   50   52 1    
   104   52   53 1    
   105   52   54 1    
   106   52  175 1    
   107   53  176 1    
   108   53  177 1    
   109   53  178 1    
   110   54   55 am   BACKBONE|DICT|INTERRES
   111   54  179 1    
   112   55   56 2    
   113   55   57 1    
   114   57   58 1    
   115   57   59 1    
   116   57  180 1    
   117   58  181 1    
   118   58  182 1    
   119   58  183 1    
   120   59   60 am   BACKBONE|DICT|INTERRES
   121   59  184 1    
   122   60   61 2    
   123   60   62 1    
   124   62   63 1    
   125   62   64 1    
   126   62  185 1    
   127   63  186 1    
   128   63  187 1    
   129   63  188 1    
   130   64   65 am   BACKBONE|DICT|INTERRES
   131   64  189 1    
   132   65   66 2    
   133   67   68 2    
   134   67   69 am   BACKBONE|DICT|INTERRES
   135   69   70 1    
   136   69  190 1    
   137   70   71 1    
   138   70   72 1    
   139   70  191 1    
   140   71  192 1    
   141   71  193 1    
   142   71  194 1    
   143   72   73 2    
   144   72   74 am   BACKBONE|DICT|INTERRES
   145   74   75 1    
   146   74  195 1    
   147   75   76 1    
   148   75   77 1    
   149   75  196 1    
   150   76  197 1    
   151   76  198 1    
   152   76  199 1    
   153   77   78 2    
   154   77   79 am   BACKBONE|DICT|INTERRES
   155   79   80 1    
   156   79  200 1    
   157   80   81 1    
   158   80   82 1    
   159   80  201 1    
   160   81  202 1    
   161   81  203 1    
   162   81  204 1    
   163   82   83 2    
   164   82   84 am   BACKBONE|DICT|INTERRES
   165   84   85 1    
   166   84  205 1    
   167   85   86 1    
   168   85   87 1    
   169   85  206 1    
   170   86  207 1    
   171   86  208 1    
   172   86  209 1    
   173   87   88 2    
   174   87   89 am   BACKBONE|DICT|INTERRES
   175   89   90 1    
   176   89  210 1    
   177   90   91 1    
   178   90   92 1    
   179   90  211 1    
   180   91  212 1    
   181   91  213 1    
   182   91  214 1    
   183   92   93 2    
   184   92   94 am   BACKBONE|DICT|INTERRES
   185   94   95 1    
   186   94  215 1    
   187   95   96 1    
   188   95   97 1    
   189   95  216 1    
   190   96  217 1    
   191   96  218 1    
   192   96  219 1    
   193   97   98 2    
   194   97   99 am   BACKBONE|DICT|INTERRES
   195   99  100 1    
   196   99  220 1    
   197  100  101 1    
   198  100  102 1    
   199  100  221 1    
   200  101  222 1    
   201  101  223 1    
   202  101  224 1    
   203  102  103 2    
   204  102  104 am   BACKBONE|DICT|INTERRES
   205  104  105 1    
   206  104  225 1    
   207  105  106 1    
   208  105  107 1    
   209  105  226 1    
   210  106  227 1    
   211  106  228 1    
   212  106  229 1    
   213  107  108 2    
   214  107  109 am   BACKBONE|DICT|INTERRES
   215  109  110 1    
   216  109  230 1    
   217  110  111 1    
   218  110  112 1    
   219  110  231 1    
   220  111  232 1    
   221  111  233 1    
   222  111  234 1    
   223  112  113 2    
   224  112  114 am   BACKBONE|DICT|INTERRES
   225  114  115 1    
   226  114  235 1    
   227  115  116 1    
   228  115  117 1    
   229  115  236 1    
   230  116  237 1    
   231  116  238 1    
   232  116  239 1    
   233  117  118 2    
   234  117  119 am   BACKBONE|DICT|INTERRES
   235  119  120 1    
   236  119  240 1    
   237  120  121 1    
   238  120  124 1    
   239  120  241 1    
   240  121  122 am   BACKBONE|DICT|INTERRES
   241  121  123 2    
   242  122  242 1    
   243  122  243 1    
   244  124  125 1    
   245  124  244 1    
   246  124  245 1    
   247  125  126 1    
   248  126  246 1    
   249  126  247 1    
@<TRIPOS>SUBSTRUCTURE
     1 UNK         1 GROUP             0       ****    0 ROOT    
