@<TRIPOS>MOLECULE
3R540
247   249    1
SMALL
USER_CHARGES


@<TRIPOS>ATOM
      1 CA          4.3795   -8.8594  -49.9607 C.3       0 UNK        -0.1800 
      2 C           4.4118  -10.3106  -49.5015 C.2       0 UNK         0.5000 
      3 O           5.4791  -10.8214  -49.1604 O.2       0 UNK        -0.5000 
      4 N           3.2506  -10.9770  -49.5003 N.am      1 UNK        -0.5000 
      5 CA          3.0756  -12.3512  -49.0235 C.3       1 UNK         0.1400 
      6 C6          1.7403  -12.9470  -49.5325 C.3       23 UNK        -0.0398 
      7 S7          1.6042  -14.7523  -49.2950 S.3       23 UNK        -0.2404 
      8 C8          2.3823  -15.3838  -50.8123 C.3       23 UNK        -0.0205 
      9 C9          2.1126  -16.8696  -51.0028 C.ar      23 UNK        -0.0193 
     10 C10         1.3353  -17.3099  -52.0785 C.ar      23 UNK        -0.1150 
     11 C11         1.1120  -18.6744  -52.2808 C.ar      23 UNK        -0.0193 
     12 C12         1.6413  -19.5990  -51.3775 C.ar      23 UNK        -0.1150 
     13 C13         2.4093  -19.1758  -50.2892 C.ar      23 UNK        -0.0193 
     14 C14         2.6582  -17.8079  -50.1202 C.ar      23 UNK        -0.1150 
     15 C15         2.9748  -20.2192  -49.3289 C.3       23 UNK        -0.0205 
     16 S16         2.9135  -19.7520  -47.5652 S.3       23 UNK        -0.2404 
     17 C17         1.1680  -19.2817  -47.3243 C.3       23 UNK        -0.0398 
     18 CA          0.2948  -20.4292  -46.7627 C.3       11 UNK         0.1400 
     19 N          -0.7761  -19.9263  -45.8990 N.am      11 UNK        -0.5000 
     20 C          -1.5341  -20.6865  -45.0981 C.2       10 UNK         0.5000 
     21 O          -1.4357  -21.9108  -45.0365 O.2       10 UNK        -0.5000 
     22 CA         -2.5883  -19.9706  -44.2379 C.3       10 UNK         0.1400 
     23 CB         -1.9805  -19.4735  -42.9184 C.3       10 UNK        -0.1800 
     24 N          -3.1859  -18.8423  -44.9484 N.am      10 UNK        -0.5000 
     25 C          -4.3108  -18.9201  -45.6699 C.2       9 UNK         0.5000 
     26 O          -4.9816  -19.9446  -45.7908 O.2       9 UNK        -0.5000 
     27 CA         -4.7440  -17.6430  -46.4132 C.3       9 UNK         0.1400 
     28 CB         -5.6007  -16.7463  -45.5093 C.3       9 UNK        -0.1800 
     29 N          -3.6181  -16.8733  -46.9432 N.am      9 UNK        -0.5000 
     30 C          -2.7759  -17.3228  -47.8846 C.2       8 UNK         0.5000 
     31 O          -2.8691  -18.4340  -48.4040 O.2       8 UNK        -0.5000 
     32 CA         -1.6170  -16.3967  -48.2955 C.3       8 UNK         0.1400 
     33 CB         -2.0616  -15.4975  -49.4598 C.3       8 UNK        -0.1800 
     34 N          -1.0856  -15.5606  -47.2135 N.am      8 UNK        -0.5000 
     35 C          -0.6656  -15.9896  -46.0148 C.2       7 UNK         0.5000 
     36 O          -0.7648  -17.1586  -45.6373 O.2       7 UNK        -0.5000 
     37 CA         -0.0747  -14.9509  -45.0403 C.3       7 UNK         0.1400 
     38 CB         -0.1461  -13.4907  -45.5382 C.3       7 UNK        -0.1800 
     39 N          -0.6785  -15.0813  -43.7110 N.am      7 UNK        -0.5000 
     40 C          -1.9875  -15.0175  -43.4153 C.2       6 UNK         0.5000 
     41 O          -2.8582  -14.7365  -44.2411 O.2       6 UNK        -0.5000 
     42 CA         -2.4000  -15.3569  -41.9697 C.3       6 UNK         0.1400 
     43 CB         -3.7326  -16.1265  -41.9230 C.3       6 UNK        -0.1800 
     44 N          -1.3707  -16.1483  -41.2895 N.am      6 UNK        -0.5000 
     45 C          -0.6643  -15.7411  -40.2287 C.2       5 UNK         0.5000 
     46 O          -0.8200  -14.6515  -39.6761 O.2       5 UNK        -0.5000 
     47 CA          0.4088  -16.7094  -39.6917 C.3       5 UNK         0.1400 
     48 CB         -0.1787  -17.5814  -38.5712 C.3       5 UNK        -0.1800 
     49 N           1.0373  -17.5837  -40.6912 N.am      5 UNK        -0.5000 
     50 C           1.7165  -17.1742  -41.7705 C.2       4 UNK         0.5000 
     51 O           1.7492  -16.0032  -42.1618 O.2       4 UNK        -0.5000 
     52 CA          2.4911  -18.2553  -42.5394 C.3       4 UNK         0.1400 
     53 CB          1.5651  -19.0764  -43.4509 C.3       4 UNK        -0.1800 
     54 N           3.5149  -17.5913  -43.3331 N.am      4 UNK        -0.5000 
     55 C           4.6007  -18.1554  -43.8694 C.2       3 UNK         0.5000 
     56 O           4.8674  -19.3525  -43.7514 O.2       3 UNK        -0.5000 
     57 CA          5.5846  -17.2305  -44.6209 C.3       3 UNK         0.1400 
     58 CB          6.0149  -17.8229  -45.9793 C.3       3 UNK        -0.1800 
     59 N           5.1447  -15.8341  -44.7747 N.am      3 UNK        -0.5000 
     60 C           4.1199  -15.3691  -45.5044 C.2       2 UNK         0.5000 
     61 O           3.3295  -16.0890  -46.1153 O.2       2 UNK        -0.5000 
     62 CA          3.9449  -13.8428  -45.5848 C.3       2 UNK         0.1400 
     63 CB          5.1044  -13.0263  -44.9715 C.3       2 UNK        -0.1800 
     64 N           3.7765  -13.5102  -46.9925 N.am      2 UNK        -0.5000 
     65 C           3.1923  -12.4158  -47.4843 C.2       1 UNK         0.5000 
     66 O           2.7385  -11.5031  -46.7891 O.2       1 UNK        -0.5000 
     67 C          -0.2454  -21.3420  -47.8825 C.2       11 UNK         0.5000 
     68 O           0.3407  -22.3932  -48.1413 O.2       11 UNK        -0.5000 
     69 N          -1.3832  -20.9661  -48.4879 N.am      12 UNK        -0.5000 
     70 CA         -2.0758  -21.7886  -49.4806 C.3       12 UNK         0.1400 
     71 CB         -3.1809  -20.9725  -50.1589 C.3       12 UNK        -0.1800 
     72 C          -2.6636  -23.0675  -48.8606 C.2       12 UNK         0.5000 
     73 O          -2.5899  -24.1245  -49.4832 O.2       12 UNK        -0.5000 
     74 N          -3.1885  -22.9628  -47.6303 N.am      13 UNK        -0.5000 
     75 CA         -3.7105  -24.0936  -46.8609 C.3       13 UNK         0.1400 
     76 CB         -4.4557  -23.5835  -45.6187 C.3       13 UNK        -0.1800 
     77 C          -2.6087  -25.1017  -46.4864 C.2       13 UNK         0.5000 
     78 O          -2.8220  -26.3073  -46.6142 O.2       13 UNK        -0.5000 
     79 N          -1.4288  -24.5947  -46.1007 N.am      14 UNK        -0.5000 
     80 CA         -0.2165  -25.3823  -45.8602 C.3       14 UNK         0.1400 
     81 CB          0.8626  -24.4803  -45.2421 C.3       14 UNK        -0.1800 
     82 C           0.3118  -26.0797  -47.1313 C.2       14 UNK         0.5000 
     83 O           0.8411  -27.1876  -47.0407 O.2       14 UNK        -0.5000 
     84 N           0.1172  -25.4424  -48.2938 N.am      15 UNK        -0.5000 
     85 CA          0.4076  -25.9862  -49.6231 C.3       15 UNK         0.1400 
     86 CB          0.6486  -24.8174  -50.5940 C.3       15 UNK        -0.1800 
     87 C          -0.6890  -26.9381  -50.1567 C.2       15 UNK         0.5000 
     88 O          -0.5443  -27.4476  -51.2688 O.2       15 UNK        -0.5000 
     89 N          -1.7525  -27.1658  -49.3699 N.am      16 UNK        -0.5000 
     90 CA         -2.9119  -28.0234  -49.6410 C.3       16 UNK         0.1400 
     91 CB         -2.4890  -29.4951  -49.8363 C.3       16 UNK        -0.1800 
     92 C          -3.8372  -27.5026  -50.7626 C.2       16 UNK         0.5000 
     93 O          -4.5529  -28.2927  -51.3819 O.2       16 UNK        -0.5000 
     94 N          -3.8400  -26.1833  -50.9799 N.am      17 UNK        -0.5000 
     95 CA         -4.7968  -25.4627  -51.8162 C.3       17 UNK         0.1400 
     96 CB         -4.0280  -24.4120  -52.6378 C.3       17 UNK        -0.1800 
     97 C          -5.8646  -24.7987  -50.9246 C.2       17 UNK         0.5000 
     98 O          -5.7790  -24.8584  -49.6952 O.2       17 UNK        -0.5000 
     99 N          -6.8604  -24.1641  -51.5543 N.am      18 UNK        -0.5000 
    100 CA        -7.8288  -23.3042  -50.8713 C.3       18 UNK         0.1400 
    101 CB        -9.0320  -23.0646  -51.7953 C.3       18 UNK        -0.1800 
    102 C         -7.1734  -21.9763  -50.4418 C.2       18 UNK         0.5000 
    103 O         -6.2637  -21.4989  -51.1243 O.2       18 UNK        -0.5000 
    104 N         -7.6466  -21.4116  -49.3226 N.am      19 UNK        -0.5000 
    105 CA        -7.1132  -20.2153  -48.6640 C.3       19 UNK         0.1400 
    106 CB        -8.0007  -19.8706  -47.4569 C.3       19 UNK        -0.1800 
    107 C         -6.9703  -19.0059  -49.6100 C.2       19 UNK         0.5000 
    108 O         -7.9791  -18.4615  -50.0615 O.2       19 UNK        -0.5000 
    109 N         -5.7130  -18.6424  -49.9025 N.am      20 UNK        -0.5000 
    110 CA        -5.2609  -17.5659  -50.7900 C.3       20 UNK         0.1400 
    111 CB        -5.6888  -16.1899  -50.2399 C.3       20 UNK        -0.1800 
    112 C         -5.6325  -17.7407  -52.2793 C.2       20 UNK         0.5000 
    113 O         -5.4277  -16.8092  -53.0602 O.2       20 UNK        -0.5000 
    114 N         -6.1312  -18.9218  -52.6759 N.am      21 UNK        -0.5000 
    115 CA        -6.5837  -19.2100  -54.0413 C.3       21 UNK         0.1400 
    116 CB        -7.3964  -20.5107  -54.0449 C.3       21 UNK        -0.1800 
    117 C         -5.4395  -19.2824  -55.0688 C.2       21 UNK         0.5000 
    118 O         -5.6849  -19.1001  -56.2619 O.2       21 UNK        -0.5000 
    119 N         -4.2143  -19.5249  -54.5885 N.am      22 UNK        -0.5000 
    120 CA        -2.9771  -19.4731  -55.3773 C.3       22 UNK         0.1400 
    121 C         -2.4897  -18.0351  -55.7355 C.2       22 UNK         0.5000 
    122 N         -3.0869  -16.9706  -55.2090 N.am      22 UNK        -0.7600 
    123 O         -1.5570  -17.8833  -56.5196 O.2       22 UNK        -0.5000 
    124 C124       -1.8639  -20.3364  -54.7318 C.3       23 UNK        -0.0398 
    125 S125       -1.3173  -19.7544  -53.0861 S.3       23 UNK        -0.2404 
    126 C126        0.3487  -19.1582  -53.5030 C.3       23 UNK        -0.0205 
    127 H127        5.0324   -8.7238  -50.8229 H         1 UNK         0.0600 
    128 H128        4.7281   -8.2055  -49.1613 H         1 UNK         0.0600 
    129 H129        3.3743   -8.5451  -50.2427 H         1 UNK         0.0600 
    130 H130        2.4046  -10.4900  -49.7594 H         1 UNK         0.3000 
    131 H131        3.8886  -12.9422  -49.4516 H         1 UNK         0.0600 
    132 H132        1.6159  -12.7323  -50.5947 H         1 UNK         0.0800 
    133 H133        0.8935  -12.4699  -49.0358 H         1 UNK         0.0800 
    134 H134        3.4587  -15.2135  -50.7663 H         1 UNK         0.0800 
    135 H135        2.0144  -14.8201  -51.6708 H         1 UNK         0.0800 
    136 H136        0.9234  -16.5921  -52.7739 H         1 UNK         0.1150 
    137 H137        1.4608  -20.6538  -51.5327 H         1 UNK         0.1150 
    138 H138        3.2623  -17.4677  -49.2905 H         1 UNK         0.1150 
    139 H139        2.4497  -21.1682  -49.4470 H         1 UNK         0.0800 
    140 H140        4.0136  -20.4102  -49.6000 H         1 UNK         0.0800 
    141 H141        0.7387  -18.8504  -48.2286 H         1 UNK         0.0800 
    142 H142        1.2084  -18.4607  -46.6092 H         1 UNK         0.0800 
    143 H143        0.9252  -21.0503  -46.1222 H         1 UNK         0.0600 
    144 H144       -0.8846  -18.9147  -45.8619 H         1 UNK         0.3000 
    145 H145       -3.3575  -20.7048  -43.9884 H         1 UNK         0.0600 
    146 H146       -2.7591  -19.1479  -42.2294 H         1 UNK         0.0600 
    147 H147       -1.4261  -20.2678  -42.4171 H         1 UNK         0.0600 
    148 H148       -1.3018  -18.6365  -43.0797 H         1 UNK         0.0600 
    149 H149       -2.6505  -17.9835  -44.9777 H         1 UNK         0.3000 
    150 H150       -5.3611  -17.9494  -47.2570 H         1 UNK         0.0600 
    151 H151       -6.4597  -17.2924  -45.1174 H         1 UNK         0.0600 
    152 H152       -5.9851  -15.8865  -46.0582 H         1 UNK         0.0600 
    153 H153       -5.0323  -16.3732  -44.6577 H         1 UNK         0.0600 
    154 H154       -3.4487  -15.9653  -46.5318 H         1 UNK         0.3000 
    155 H155       -0.7989  -17.0281  -48.6462 H         1 UNK         0.0600 
    156 H156       -2.8974  -14.8563  -49.1773 H         1 UNK         0.0600 
    157 H157       -1.2529  -14.8556  -49.8057 H         1 UNK         0.0600 
    158 H158       -2.3778  -16.0953  -50.3150 H         1 UNK         0.0600 
    159 H159       -0.9849  -14.5792  -47.4244 H         1 UNK         0.3000 
    160 H160        0.9770  -15.2136  -44.9250 H         1 UNK         0.0600 
    161 H161       -1.1723  -13.1595  -45.7004 H         1 UNK         0.0600 
    162 H162        0.3992  -13.3657  -46.4742 H         1 UNK         0.0600 
    163 H163        0.3088  -12.8125  -44.8162 H         1 UNK         0.0600 
    164 H164       -0.0315  -15.3340  -42.9720 H         1 UNK         0.3000 
    165 H165       -2.5489  -14.4026  -41.4612 H         1 UNK         0.0600 
    166 H166       -3.9846  -16.4208  -40.9041 H         1 UNK         0.0600 
    167 H167       -4.5528  -15.5091  -42.2912 H         1 UNK         0.0600 
    168 H168       -3.7020  -17.0264  -42.5363 H         1 UNK         0.0600 
    169 H169       -1.1623  -17.0544  -41.6815 H         1 UNK         0.3000 
    170 H170        1.2019  -16.0952  -39.2602 H         1 UNK         0.0600 
    171 H171       -0.6329  -16.9666  -37.7927 H         1 UNK         0.0600 
    172 H172       -0.9495  -18.2546  -38.9487 H         1 UNK         0.0600 
    173 H173        0.5928  -18.1862  -38.0944 H         1 UNK         0.0600 
    174 H174        1.0517  -18.5670  -40.4612 H         1 UNK         0.3000 
    175 H175        2.9784  -18.9150  -41.8185 H         1 UNK         0.0600 
    176 H176        0.9864  -18.4318  -44.1115 H         1 UNK         0.0600 
    177 H177        2.1248  -19.7726  -44.0754 H         1 UNK         0.0600 
    178 H178        0.8700  -19.6713  -42.8608 H         1 UNK         0.0600 
    179 H179        3.3712  -16.5953  -43.4378 H         1 UNK         0.3000 
    180 H180        6.4757  -17.1882  -43.9931 H         1 UNK         0.0600 
    181 H181        5.1713  -17.9319  -46.6606 H         1 UNK         0.0600 
    182 H182        6.4602  -18.8106  -45.8554 H         1 UNK         0.0600 
    183 H183        6.7588  -17.1925  -46.4662 H         1 UNK         0.0600 
    184 H184        5.7216  -15.1534  -44.3003 H         1 UNK         0.3000 
    185 H185        3.0238  -13.6006  -45.0512 H         1 UNK         0.0600 
    186 H186        5.2197  -13.2356  -43.9074 H         1 UNK         0.0600 
    187 H187        6.0538  -13.2379  -45.4651 H         1 UNK         0.0600 
    188 H188        4.9213  -11.9554  -45.0609 H         1 UNK         0.0600 
    189 H189        4.0392  -14.2519  -47.6283 H         1 UNK         0.3000 
    190 H190       -1.8200  -20.0805  -48.2499 H         1 UNK         0.3000 
    191 H191       -1.3514  -22.0770  -50.2451 H         1 UNK         0.0600 
    192 H192       -3.9921  -20.7572  -49.4656 H         1 UNK         0.0600 
    193 H193       -3.6038  -21.5176  -51.0023 H         1 UNK         0.0600 
    194 H194       -2.8011  -20.0269  -50.5435 H         1 UNK         0.0600 
    195 H195       -3.1815  -22.0641  -47.1719 H         1 UNK         0.3000 
    196 H196       -4.4323  -24.6184  -47.4880 H         1 UNK         0.0600 
    197 H197       -4.9088  -24.4114  -45.0723 H         1 UNK         0.0600 
    198 H198       -5.2576  -22.8980  -45.8941 H         1 UNK         0.0600 
    199 H199       -3.7928  -23.0626  -44.9290 H         1 UNK         0.0600 
    200 H200       -1.3555  -23.5912  -45.9555 H         1 UNK         0.3000 
    201 H201       -0.4646  -26.1606  -45.1358 H         1 UNK         0.0600 
    202 H202        0.5142  -24.0282  -44.3132 H         1 UNK         0.0600 
    203 H203        1.1507  -23.6745  -45.9173 H         1 UNK         0.0600 
    204 H204        1.7623  -25.0511  -45.0098 H         1 UNK         0.0600 
    205 H205       -0.2793  -24.5104  -48.2697 H         1 UNK         0.3000 
    206 H206        1.3312  -26.5654  -49.5650 H         1 UNK         0.0600 
    207 H207        1.4252  -24.1480  -50.2229 H         1 UNK         0.0600 
    208 H208        0.9724  -25.1793  -51.5705 H         1 UNK         0.0600 
    209 H209       -0.2544  -24.2281  -50.7489 H         1 UNK         0.0600 
    210 H210       -1.7920  -26.6743  -48.4854 H         1 UNK         0.3000 
    211 H211       -3.5153  -27.9852  -48.7332 H         1 UNK         0.0600 
    212 H212       -1.9543  -29.6439  -50.7745 H         1 UNK         0.0600 
    213 H213       -3.3588  -30.1528  -49.8511 H         1 UNK         0.0600 
    214 H214       -1.8447  -29.8315  -49.0241 H         1 UNK         0.0600 
    215 H215       -3.2736  -25.5893  -50.3769 H         1 UNK         0.3000 
    216 H216       -5.3010  -26.1454  -52.5028 H         1 UNK         0.0600 
    217 H217       -4.6906  -23.8652  -53.3092 H         1 UNK         0.0600 
    218 H218       -3.2606  -24.8815  -53.2534 H         1 UNK         0.0600 
    219 H219       -3.5360  -23.6806  -51.9971 H         1 UNK         0.0600 
    220 H220       -6.8591  -24.1256  -52.5625 H         1 UNK         0.3000 
    221 H221       -8.1849  -23.8183  -49.9758 H         1 UNK         0.0600 
    222 H222       -8.7280  -22.6723  -52.7645 H         1 UNK         0.0600 
    223 H223       -9.5773  -23.9918  -51.9721 H         1 UNK         0.0600 
    224 H224       -9.7338  -22.3548  -51.3554 H         1 UNK         0.0600 
    225 H225       -8.4172  -21.8609  -48.8502 H         1 UNK         0.3000 
    226 H226       -6.1248  -20.4759  -48.2811 H         1 UNK         0.0600 
    227 H227       -7.9997  -20.6779  -46.7243 H         1 UNK         0.0600 
    228 H228       -7.6417  -18.9753  -46.9483 H         1 UNK         0.0600 
    229 H229       -9.0335  -19.6861  -47.7551 H         1 UNK         0.0600 
    230 H230       -4.9579  -19.1743  -49.4912 H         1 UNK         0.3000 
    231 H231       -4.1721  -17.6068  -50.7616 H         1 UNK         0.0600 
    232 H232       -5.2148  -15.3804  -50.7962 H         1 UNK         0.0600 
    233 H233       -5.4013  -16.0730  -49.1954 H         1 UNK         0.0600 
    234 H234       -6.7670  -16.0446  -50.3087 H         1 UNK         0.0600 
    235 H235       -6.2289  -19.6717  -51.9981 H         1 UNK         0.3000 
    236 H236       -7.2466  -18.3995  -54.3513 H         1 UNK         0.0600 
    237 H237       -8.2363  -20.4441  -53.3536 H         1 UNK         0.0600 
    238 H238       -7.8051  -20.7150  -55.0352 H         1 UNK         0.0600 
    239 H239       -6.7846  -21.3672  -53.7597 H         1 UNK         0.0600 
    240 H240       -4.1028  -19.6563  -53.5941 H         1 UNK         0.3000 
    241 H241       -3.2002  -19.9384  -56.3394 H         1 UNK         0.0600 
    242 H242       -3.8604  -17.0671  -54.5640 H         1 UNK         0.3800 
    243 H243       -2.7613  -16.0506  -55.4591 H         1 UNK         0.3800 
    244 H244       -2.2229  -21.3601  -54.6161 H         1 UNK         0.0800 
    245 H245       -1.0086  -20.4092  -55.4055 H         1 UNK         0.0800 
    246 H246        0.9132  -19.9632  -53.9760 H         1 UNK         0.0800 
    247 H247        0.2696  -18.3611  -54.2440 H         1 UNK         0.0800 
@<TRIPOS>BOND
     1    1    2 1    
     2    1  127 1    
     3    1  128 1    
     4    1  129 1    
     5    2    3 2    
     6    2    4 am   BACKBONE|DICT|INTERRES
     7    4    5 1    
     8    4  130 1    
     9    5    6 1    
    10    5   65 1    
    11    5  131 1    
    12    6    7 1    
    13    6  132 1    
    14    6  133 1    
    15    7    8 1    
    16    8    9 1    
    17    8  134 1    
    18    8  135 1    
    19    9   10 ar   
    20    9   14 ar   
    21   10   11 ar   
    22   10  136 1    
    23   11   12 ar   
    24   11  126 1    
    25   12   13 ar   
    26   12  137 1    
    27   13   14 ar   
    28   13   15 1    
    29   14  138 1    
    30   15   16 1    
    31   15  139 1    
    32   15  140 1    
    33   16   17 1    
    34   17   18 1    
    35   17  141 1    
    36   17  142 1    
    37   18   19 1    
    38   18   67 1    
    39   18  143 1    
    40   19   20 am   BACKBONE|DICT|INTERRES
    41   19  144 1    
    42   20   21 2    
    43   20   22 1    
    44   22   23 1    
    45   22   24 1    
    46   22  145 1    
    47   23  146 1    
    48   23  147 1    
    49   23  148 1    
    50   24   25 am   BACKBONE|DICT|INTERRES
    51   24  149 1    
    52   25   26 2    
    53   25   27 1    
    54   27   28 1    
    55   27   29 1    
    56   27  150 1    
    57   28  151 1    
    58   28  152 1    
    59   28  153 1    
    60   29   30 am   BACKBONE|DICT|INTERRES
    61   29  154 1    
    62   30   31 2    
    63   30   32 1    
    64   32   33 1    
    65   32   34 1    
    66   32  155 1    
    67   33  156 1    
    68   33  157 1    
    69   33  158 1    
    70   34   35 am   BACKBONE|DICT|INTERRES
    71   34  159 1    
    72   35   36 2    
    73   35   37 1    
    74   37   38 1    
    75   37   39 1    
    76   37  160 1    
    77   38  161 1    
    78   38  162 1    
    79   38  163 1    
    80   39   40 am   BACKBONE|DICT|INTERRES
    81   39  164 1    
    82   40   41 2    
    83   40   42 1    
    84   42   43 1    
    85   42   44 1    
    86   42  165 1    
    87   43  166 1    
    88   43  167 1    
    89   43  168 1    
    90   44   45 am   BACKBONE|DICT|INTERRES
    91   44  169 1    
    92   45   46 2    
    93   45   47 1    
    94   47   48 1    
    95   47   49 1    
    96   47  170 1    
    97   48  171 1    
    98   48  172 1    
    99   48  173 1    
   100   49   50 am   BACKBONE|DICT|INTERRES
   101   49  174 1    
   102   50   51 2    
   103   50   52 1    
   104   52   53 1    
   105   52   54 1    
   106   52  175 1    
   107   53  176 1    
   108   53  177 1    
   109   53  178 1    
   110   54   55 am   BACKBONE|DICT|INTERRES
   111   54  179 1    
   112   55   56 2    
   113   55   57 1    
   114   57   58 1    
   115   57   59 1    
   116   57  180 1    
   117   58  181 1    
   118   58  182 1    
   119   58  183 1    
   120   59   60 am   BACKBONE|DICT|INTERRES
   121   59  184 1    
   122   60   61 2    
   123   60   62 1    
   124   62   63 1    
   125   62   64 1    
   126   62  185 1    
   127   63  186 1    
   128   63  187 1    
   129   63  188 1    
   130   64   65 am   BACKBONE|DICT|INTERRES
   131   64  189 1    
   132   65   66 2    
   133   67   68 2    
   134   67   69 am   BACKBONE|DICT|INTERRES
   135   69   70 1    
   136   69  190 1    
   137   70   71 1    
   138   70   72 1    
   139   70  191 1    
   140   71  192 1    
   141   71  193 1    
   142   71  194 1    
   143   72   73 2    
   144   72   74 am   BACKBONE|DICT|INTERRES
   145   74   75 1    
   146   74  195 1    
   147   75   76 1    
   148   75   77 1    
   149   75  196 1    
   150   76  197 1    
   151   76  198 1    
   152   76  199 1    
   153   77   78 2    
   154   77   79 am   BACKBONE|DICT|INTERRES
   155   79   80 1    
   156   79  200 1    
   157   80   81 1    
   158   80   82 1    
   159   80  201 1    
   160   81  202 1    
   161   81  203 1    
   162   81  204 1    
   163   82   83 2    
   164   82   84 am   BACKBONE|DICT|INTERRES
   165   84   85 1    
   166   84  205 1    
   167   85   86 1    
   168   85   87 1    
   169   85  206 1    
   170   86  207 1    
   171   86  208 1    
   172   86  209 1    
   173   87   88 2    
   174   87   89 am   BACKBONE|DICT|INTERRES
   175   89   90 1    
   176   89  210 1    
   177   90   91 1    
   178   90   92 1    
   179   90  211 1    
   180   91  212 1    
   181   91  213 1    
   182   91  214 1    
   183   92   93 2    
   184   92   94 am   BACKBONE|DICT|INTERRES
   185   94   95 1    
   186   94  215 1    
   187   95   96 1    
   188   95   97 1    
   189   95  216 1    
   190   96  217 1    
   191   96  218 1    
   192   96  219 1    
   193   97   98 2    
   194   97   99 am   BACKBONE|DICT|INTERRES
   195   99  100 1    
   196   99  220 1    
   197  100  101 1    
   198  100  102 1    
   199  100  221 1    
   200  101  222 1    
   201  101  223 1    
   202  101  224 1    
   203  102  103 2    
   204  102  104 am   BACKBONE|DICT|INTERRES
   205  104  105 1    
   206  104  225 1    
   207  105  106 1    
   208  105  107 1    
   209  105  226 1    
   210  106  227 1    
   211  106  228 1    
   212  106  229 1    
   213  107  108 2    
   214  107  109 am   BACKBONE|DICT|INTERRES
   215  109  110 1    
   216  109  230 1    
   217  110  111 1    
   218  110  112 1    
   219  110  231 1    
   220  111  232 1    
   221  111  233 1    
   222  111  234 1    
   223  112  113 2    
   224  112  114 am   BACKBONE|DICT|INTERRES
   225  114  115 1    
   226  114  235 1    
   227  115  116 1    
   228  115  117 1    
   229  115  236 1    
   230  116  237 1    
   231  116  238 1    
   232  116  239 1    
   233  117  118 2    
   234  117  119 am   BACKBONE|DICT|INTERRES
   235  119  120 1    
   236  119  240 1    
   237  120  121 1    
   238  120  124 1    
   239  120  241 1    
   240  121  122 am   BACKBONE|DICT|INTERRES
   241  121  123 2    
   242  122  242 1    
   243  122  243 1    
   244  124  125 1    
   245  124  244 1    
   246  124  245 1    
   247  125  126 1    
   248  126  246 1    
   249  126  247 1    
@<TRIPOS>SUBSTRUCTURE
     1 UNK         1 GROUP             0       ****    0 ROOT    
