@<TRIPOS>MOLECULE
3R540
247   249    1
SMALL
USER_CHARGES


@<TRIPOS>ATOM
      1 CA         -1.9490  -16.2016  -47.6331 C.3       0 UNK        -0.1800 
      2 C          -1.1320  -14.9245  -47.7756 C.2       0 UNK         0.5000 
      3 O          -1.1220  -14.0941  -46.8663 O.2       0 UNK        -0.5000 
      4 N          -0.4294  -14.7788  -48.9084 N.am      1 UNK        -0.5000 
      5 CA          0.3713  -13.6078  -49.3094 C.3       1 UNK         0.1400 
      6 C6          0.9589  -13.7512  -50.7383 C.3       23 UNK        -0.0398 
      7 S7         -0.2676  -14.2291  -52.0086 S.3       23 UNK        -0.2404 
      8 C8          0.6294  -15.5283  -52.9282 C.3       23 UNK        -0.0205 
      9 C9          0.3539  -16.9370  -52.4109 C.ar      23 UNK        -0.0193 
     10 C10        -0.0897  -17.9299  -53.2925 C.ar      23 UNK        -0.1150 
     11 C11        -0.3199  -19.2331  -52.8407 C.ar      23 UNK        -0.0193 
     12 C12        -0.1428  -19.5297  -51.4866 C.ar      23 UNK        -0.1150 
     13 C13         0.2919  -18.5492  -50.5939 C.ar      23 UNK        -0.0193 
     14 C14         0.5675  -17.2656  -51.0678 C.ar      23 UNK        -0.1150 
     15 C15         0.4380  -18.8712  -49.1166 C.3       23 UNK        -0.0205 
     16 S16         2.0056  -19.7193  -48.7568 S.3       23 UNK        -0.2404 
     17 C17         1.8088  -19.9974  -46.9625 C.3       23 UNK        -0.0398 
     18 CA          1.4463  -21.4507  -46.5642 C.3       11 UNK         0.1400 
     19 N           1.4104  -21.6000  -45.1094 N.am      11 UNK        -0.5000 
     20 C           1.2304  -22.7506  -44.4463 C.2       10 UNK         0.5000 
     21 O           1.1351  -23.8528  -44.9873 O.2       10 UNK        -0.5000 
     22 CA          1.0723  -22.6360  -42.9199 C.3       10 UNK         0.1400 
     23 CB          2.4343  -22.4284  -42.2411 C.3       10 UNK        -0.1800 
     24 N           0.1568  -21.5599  -42.5326 N.am      10 UNK        -0.5000 
     25 C          -1.1446  -21.5238  -42.8571 C.2       9 UNK         0.5000 
     26 O          -1.7170  -22.4083  -43.4941 O.2       9 UNK        -0.5000 
     27 CA         -1.9353  -20.2751  -42.4316 C.3       9 UNK         0.1400 
     28 CB         -2.2960  -20.3455  -40.9404 C.3       9 UNK        -0.1800 
     29 N          -1.2252  -19.0274  -42.7161 N.am      9 UNK        -0.5000 
     30 C          -0.9032  -18.6019  -43.9467 C.2       8 UNK         0.5000 
     31 O          -1.1864  -19.2065  -44.9783 O.2       8 UNK        -0.5000 
     32 CA         -0.0707  -17.3155  -44.0506 C.3       8 UNK         0.1400 
     33 CB         -0.9406  -16.0672  -43.8406 C.3       8 UNK        -0.1800 
     34 N           1.0467  -17.3012  -43.1125 N.am      8 UNK        -0.5000 
     35 C           2.0548  -18.1832  -43.0955 C.2       7 UNK         0.5000 
     36 O           2.1767  -19.1070  -43.8991 O.2       7 UNK        -0.5000 
     37 CA          3.0743  -18.0282  -41.9574 C.3       7 UNK         0.1400 
     38 CB          4.0710  -16.9010  -42.2665 C.3       7 UNK        -0.1800 
     39 N           2.4200  -17.7691  -40.6757 N.am      7 UNK        -0.5000 
     40 C           1.6772  -18.6643  -40.0104 C.2       6 UNK         0.5000 
     41 O           1.4738  -19.8148  -40.4003 O.2       6 UNK        -0.5000 
     42 CA          1.0252  -18.1746  -38.7050 C.3       6 UNK         0.1400 
     43 CB          2.0422  -18.1742  -37.5538 C.3       6 UNK        -0.1800 
     44 N           0.4327  -16.8416  -38.8335 N.am      6 UNK        -0.5000 
     45 C          -0.6289  -16.5671  -39.6030 C.2       5 UNK         0.5000 
     46 O          -1.2059  -17.4026  -40.2975 O.2       5 UNK        -0.5000 
     47 CA         -1.1121  -15.1067  -39.6293 C.3       5 UNK         0.1400 
     48 CB         -1.9382  -14.7885  -38.3736 C.3       5 UNK        -0.1800 
     49 N          -0.0599  -14.0971  -39.7879 N.am      5 UNK        -0.5000 
     50 C           0.8705  -14.0848  -40.7514 C.2       4 UNK         0.5000 
     51 O           1.1075  -15.0318  -41.5016 O.2       4 UNK        -0.5000 
     52 CA          1.6473  -12.7738  -40.9496 C.3       4 UNK         0.1400 
     53 CB          3.1412  -12.9687  -40.6497 C.3       4 UNK        -0.1800 
     54 N           1.4874  -12.3150  -42.3287 N.am      4 UNK        -0.5000 
     55 C           0.3375  -11.9072  -42.8798 C.2       3 UNK         0.5000 
     56 O          -0.6967  -11.7309  -42.2340 O.2       3 UNK        -0.5000 
     57 CA          0.3152  -11.6693  -44.4029 C.3       3 UNK         0.1400 
     58 CB          0.7650  -10.2373  -44.7488 C.3       3 UNK        -0.1800 
     59 N           1.0359  -12.6649  -45.2093 N.am      3 UNK        -0.5000 
     60 C           2.3555  -12.9036  -45.2852 C.2       2 UNK         0.5000 
     61 O           3.1956  -12.3483  -44.5764 O.2       2 UNK        -0.5000 
     62 CA          2.8277  -13.9383  -46.3293 C.3       2 UNK         0.1400 
     63 CB          3.1104  -15.2868  -45.6497 C.3       2 UNK        -0.1800 
     64 N           1.8775  -14.1502  -47.4241 N.am      2 UNK        -0.5000 
     65 C           1.5033  -13.2276  -48.3238 C.2       1 UNK         0.5000 
     66 O           2.0069  -12.1058  -48.3922 O.2       1 UNK        -0.5000 
     67 C           0.1268  -21.9298  -47.2037 C.2       11 UNK         0.5000 
     68 O           0.1629  -22.7548  -48.1159 O.2       11 UNK        -0.5000 
     69 N          -1.0103  -21.4346  -46.6938 N.am      12 UNK        -0.5000 
     70 CA         -2.3479  -21.7565  -47.1851 C.3       12 UNK         0.1400 
     71 CB         -3.3974  -20.8982  -46.4636 C.3       12 UNK        -0.1800 
     72 C          -2.7021  -23.2463  -47.0836 C.2       12 UNK         0.5000 
     73 O          -3.2607  -23.7941  -48.0352 O.2       12 UNK        -0.5000 
     74 N          -2.3457  -23.8717  -45.9540 N.am      13 UNK        -0.5000 
     75 CA         -2.5269  -25.3001  -45.7047 C.3       13 UNK         0.1400 
     76 CB         -2.2238  -25.6026  -44.2294 C.3       13 UNK        -0.1800 
     77 C          -1.6652  -26.1807  -46.6269 C.2       13 UNK         0.5000 
     78 O          -2.1489  -27.2069  -47.1058 O.2       13 UNK        -0.5000 
     79 N          -0.4141  -25.7639  -46.8655 N.am      14 UNK        -0.5000 
     80 CA          0.5311  -26.4609  -47.7363 C.3       14 UNK         0.1400 
     81 CB          1.9505  -25.9325  -47.4765 C.3       14 UNK        -0.1800 
     82 C           0.1683  -26.3364  -49.2268 C.2       14 UNK         0.5000 
     83 O           0.2092  -27.3338  -49.9484 O.2       14 UNK        -0.5000 
     84 N          -0.1657  -25.1154  -49.6620 N.am      15 UNK        -0.5000 
     85 CA         -0.4384  -24.7855  -51.0604 C.3       15 UNK         0.1400 
     86 CB         -0.2048  -23.2836  -51.2623 C.3       15 UNK        -0.1800 
     87 C          -1.8595  -25.1482  -51.5234 C.2       15 UNK         0.5000 
     88 O          -2.0695  -25.2813  -52.7291 O.2       15 UNK        -0.5000 
     89 N          -2.8012  -25.2647  -50.5749 N.am      16 UNK        -0.5000 
     90 CA         -4.2508  -25.3627  -50.7766 C.3       16 UNK         0.1400 
     91 CB         -4.6396  -26.6333  -51.5625 C.3       16 UNK        -0.1800 
     92 C          -4.8039  -24.0579  -51.3866 C.2       16 UNK         0.5000 
     93 O          -5.3858  -24.0649  -52.4734 O.2       16 UNK        -0.5000 
     94 N          -4.5676  -22.9525  -50.6668 N.am      17 UNK        -0.5000 
     95 CA         -5.0045  -21.5943  -51.0095 C.3       17 UNK         0.1400 
     96 CB         -4.1607  -20.6191  -50.1699 C.3       17 UNK        -0.1800 
     97 C          -6.5354  -21.4054  -50.8245 C.2       17 UNK         0.5000 
     98 O          -7.1942  -22.3321  -50.3489 O.2       17 UNK        -0.5000 
     99 N          -7.1683  -20.2655  -51.1536 N.am      18 UNK        -0.5000 
    100 CA        -6.6840  -18.9377  -51.5523 C.3       18 UNK         0.1400 
    101 CB        -7.9152  -18.0581  -51.8267 C.3       18 UNK        -0.1800 
    102 C         -5.7491  -18.8875  -52.7733 C.2       18 UNK         0.5000 
    103 O         -5.7705  -19.7899  -53.6106 O.2       18 UNK        -0.5000 
    104 N         -4.9794  -17.7928  -52.8652 N.am      19 UNK        -0.5000 
    105 CA        -3.9788  -17.5126  -53.9033 C.3       19 UNK         0.1400 
    106 CB        -3.3576  -16.1320  -53.6445 C.3       19 UNK        -0.1800 
    107 C         -4.5053  -17.6096  -55.3480 C.2       19 UNK         0.5000 
    108 O         -3.7616  -18.0139  -56.2410 O.2       19 UNK        -0.5000 
    109 N         -5.7893  -17.2820  -55.5436 N.am      20 UNK        -0.5000 
    110 CA        -6.5019  -17.4172  -56.8141 C.3       20 UNK         0.1400 
    111 CB        -7.8577  -16.7035  -56.6989 C.3       20 UNK        -0.1800 
    112 C         -6.7007  -18.8802  -57.2638 C.2       20 UNK         0.5000 
    113 O         -6.8403  -19.1203  -58.4638 O.2       20 UNK        -0.5000 
    114 N         -6.7174  -19.8242  -56.3119 N.am      21 UNK        -0.5000 
    115 CA        -6.8449  -21.2552  -56.5726 C.3       21 UNK         0.1400 
    116 CB        -7.6054  -21.9318  -55.4191 C.3       21 UNK        -0.1800 
    117 C         -5.4684  -21.9051  -56.7816 C.2       21 UNK         0.5000 
    118 O         -5.2958  -22.6391  -57.7561 O.2       21 UNK        -0.5000 
    119 N         -4.5191  -21.6364  -55.8733 N.am      22 UNK        -0.5000 
    120 CA        -3.1647  -22.2164  -55.9207 C.3       22 UNK         0.1400 
    121 C         -2.1844  -21.5382  -56.9196 C.2       22 UNK         0.5000 
    122 N         -2.4125  -20.3074  -57.3587 N.am      22 UNK        -0.7600 
    123 O         -1.1990  -22.1521  -57.3195 O.2       22 UNK        -0.5000 
    124 C124       -2.5367  -22.3968  -54.5158 C.3       23 UNK        -0.0398 
    125 S125       -2.4357  -20.8788  -53.5125 S.3       23 UNK        -0.2404 
    126 C126       -0.7296  -20.3309  -53.8110 C.3       23 UNK        -0.0205 
    127 H127       -2.9537  -15.9679  -47.2814 H         1 UNK         0.0600 
    128 H128       -1.4819  -16.8713  -46.9115 H         1 UNK         0.0600 
    129 H129       -2.0385  -16.7320  -48.5816 H         1 UNK         0.0600 
    130 H130       -0.5260  -15.4815  -49.6272 H         1 UNK         0.3000 
    131 H131       -0.3178  -12.7609  -49.3211 H         1 UNK         0.0600 
    132 H132        1.3949  -12.8025  -51.0571 H         1 UNK         0.0800 
    133 H133        1.7842  -14.4644  -50.7388 H         1 UNK         0.0800 
    134 H134        0.3304  -15.4521  -53.9747 H         1 UNK         0.0800 
    135 H135        1.7029  -15.3369  -52.9116 H         1 UNK         0.0800 
    136 H136       -0.2379  -17.6944  -54.3371 H         1 UNK         0.1150 
    137 H137       -0.3394  -20.5271  -51.1256 H         1 UNK         0.1150 
    138 H138        0.9452  -16.5256  -50.3823 H         1 UNK         0.1150 
    139 H139        0.3832  -17.9574  -48.5237 H         1 UNK         0.0800 
    140 H140       -0.4012  -19.4923  -48.8011 H         1 UNK         0.0800 
    141 H141        1.0765  -19.2961  -46.5601 H         1 UNK         0.0800 
    142 H142        2.7568  -19.7256  -46.4963 H         1 UNK         0.0800 
    143 H143        2.2393  -22.1053  -46.9318 H         1 UNK         0.0600 
    144 H144        1.5100  -20.7417  -44.5727 H         1 UNK         0.3000 
    145 H145        0.6523  -23.5771  -42.5589 H         1 UNK         0.0600 
    146 H146        2.3379  -22.4400  -41.1553 H         1 UNK         0.0600 
    147 H147        3.1325  -23.2205  -42.5143 H         1 UNK         0.0600 
    148 H148        2.8865  -21.4776  -42.5251 H         1 UNK         0.0600 
    149 H149        0.5499  -20.8038  -41.9818 H         1 UNK         0.3000 
    150 H150       -2.8659  -20.2637  -43.0024 H         1 UNK         0.0600 
    151 H151       -2.8166  -21.2749  -40.7063 H         1 UNK         0.0600 
    152 H152       -2.9548  -19.5248  -40.6565 H         1 UNK         0.0600 
    153 H153       -1.4083  -20.2960  -40.3084 H         1 UNK         0.0600 
    154 H154       -0.9838  -18.4524  -41.9136 H         1 UNK         0.3000 
    155 H155        0.3434  -17.2730  -45.0597 H         1 UNK         0.0600 
    156 H156       -0.3677  -15.1556  -44.0121 H         1 UNK         0.0600 
    157 H157       -1.7852  -16.0545  -44.5302 H         1 UNK         0.0600 
    158 H158       -1.3423  -16.0226  -42.8281 H         1 UNK         0.0600 
    159 H159        1.0464  -16.5509  -42.4224 H         1 UNK         0.3000 
    160 H160        3.6312  -18.9640  -41.8745 H         1 UNK         0.0600 
    161 H161        3.5725  -15.9366  -42.3674 H         1 UNK         0.0600 
    162 H162        4.5995  -17.0956  -43.2006 H         1 UNK         0.0600 
    163 H163        4.8214  -16.8106  -41.4811 H         1 UNK         0.0600 
    164 H164        2.4696  -16.8245  -40.3232 H         1 UNK         0.3000 
    165 H165        0.2271  -18.8760  -38.4516 H         1 UNK         0.0600 
    166 H166        1.5667  -17.9126  -36.6084 H         1 UNK         0.0600 
    167 H167        2.4899  -19.1611  -37.4289 H         1 UNK         0.0600 
    168 H168        2.8527  -17.4658  -37.7296 H         1 UNK         0.0600 
    169 H169        0.8587  -16.0921  -38.3085 H         1 UNK         0.3000 
    170 H170       -1.7713  -15.0075  -40.4940 H         1 UNK         0.0600 
    171 H171       -2.7390  -15.5166  -38.2367 H         1 UNK         0.0600 
    172 H172       -1.3239  -14.8025  -37.4725 H         1 UNK         0.0600 
    173 H173       -2.4051  -13.8061  -38.4466 H         1 UNK         0.0600 
    174 H174       -0.1650  -13.2683  -39.2210 H         1 UNK         0.3000 
    175 H175        1.2522  -12.0080  -40.2793 H         1 UNK         0.0600 
    176 H176        3.2924  -13.3218  -39.6289 H         1 UNK         0.0600 
    177 H177        3.5963  -13.6973  -41.3216 H         1 UNK         0.0600 
    178 H178        3.6883  -12.0318  -40.7549 H         1 UNK         0.0600 
    179 H179        2.2829  -12.4299  -42.9504 H         1 UNK         0.3000 
    180 H180       -0.7278  -11.7616  -44.7103 H         1 UNK         0.0600 
    181 H181        1.7982  -10.0512  -44.4547 H         1 UNK         0.0600 
    182 H182        0.1442   -9.5011  -44.2368 H         1 UNK         0.0600 
    183 H183        0.6809  -10.0462  -45.8188 H         1 UNK         0.0600 
    184 H184        0.4347  -13.2129  -45.8170 H         1 UNK         0.3000 
    185 H185        3.7593  -13.5673  -46.7612 H         1 UNK         0.0600 
    186 H186        3.8616  -15.1778  -44.8666 H         1 UNK         0.0600 
    187 H187        2.2130  -15.6956  -45.1867 H         1 UNK         0.0600 
    188 H188        3.4881  -16.0214  -46.3612 H         1 UNK         0.0600 
    189 H189        1.4057  -15.0414  -47.4442 H         1 UNK         0.3000 
    190 H190       -0.9655  -20.7417  -45.9493 H         1 UNK         0.3000 
    191 H191       -2.3569  -21.4977  -48.2417 H         1 UNK         0.0600 
    192 H192       -4.4081  -21.1587  -46.7796 H         1 UNK         0.0600 
    193 H193       -3.2525  -19.8390  -46.6766 H         1 UNK         0.0600 
    194 H194       -3.3502  -21.0330  -45.3828 H         1 UNK         0.0600 
    195 H195       -1.9295  -23.3278  -45.2028 H         1 UNK         0.3000 
    196 H196       -3.5742  -25.5440  -45.8947 H         1 UNK         0.0600 
    197 H197       -2.3562  -26.6629  -44.0109 H         1 UNK         0.0600 
    198 H198       -2.8911  -25.0482  -43.5692 H         1 UNK         0.0600 
    199 H199       -1.1989  -25.3364  -43.9671 H         1 UNK         0.0600 
    200 H200       -0.0799  -24.9205  -46.4124 H         1 UNK         0.3000 
    201 H201        0.5160  -27.5217  -47.4772 H         1 UNK         0.0600 
    202 H202        2.2483  -26.0993  -46.4412 H         1 UNK         0.0600 
    203 H203        2.0260  -24.8628  -47.6761 H         1 UNK         0.0600 
    204 H204        2.6793  -26.4386  -48.1107 H         1 UNK         0.0600 
    205 H205       -0.1369  -24.3327  -49.0105 H         1 UNK         0.3000 
    206 H206        0.2675  -25.3268  -51.6939 H         1 UNK         0.0600 
    207 H207        0.8011  -22.9896  -50.9616 H         1 UNK         0.0600 
    208 H208       -0.3257  -23.0123  -52.3102 H         1 UNK         0.0600 
    209 H209       -0.9173  -22.6939  -50.6840 H         1 UNK         0.0600 
    210 H210       -2.5197  -25.0902  -49.6176 H         1 UNK         0.3000 
    211 H211       -4.6921  -25.4528  -49.7828 H         1 UNK         0.0600 
    212 H212       -4.2995  -26.6010  -52.5975 H         1 UNK         0.0600 
    213 H213       -5.7230  -26.7549  -51.5838 H         1 UNK         0.0600 
    214 H214       -4.2207  -27.5263  -51.0988 H         1 UNK         0.0600 
    215 H215       -4.1121  -23.0705  -49.7691 H         1 UNK         0.3000 
    216 H216       -4.7739  -21.4581  -52.0625 H         1 UNK         0.0600 
    217 H217       -4.4565  -20.6362  -49.1222 H         1 UNK         0.0600 
    218 H218       -4.2331  -19.5921  -50.5150 H         1 UNK         0.0600 
    219 H219       -3.1028  -20.8709  -50.2407 H         1 UNK         0.0600 
    220 H220       -8.1701  -20.2946  -51.0429 H         1 UNK         0.3000 
    221 H221       -6.1615  -18.5113  -50.6954 H         1 UNK         0.0600 
    222 H222       -8.5641  -18.0010  -50.9523 H         1 UNK         0.0600 
    223 H223       -8.5069  -18.4449  -52.6579 H         1 UNK         0.0600 
    224 H224       -7.6292  -17.0355  -52.0770 H         1 UNK         0.0600 
    225 H225       -5.0539  -17.0936  -52.1407 H         1 UNK         0.3000 
    226 H226       -3.1835  -18.2474  -53.8007 H         1 UNK         0.0600 
    227 H227       -2.8769  -16.0935  -52.6666 H         1 UNK         0.0600 
    228 H228       -2.5908  -15.9028  -54.3859 H         1 UNK         0.0600 
    229 H229       -4.1043  -15.3383  -53.6862 H         1 UNK         0.0600 
    230 H230       -6.3280  -16.9644  -54.7518 H         1 UNK         0.3000 
    231 H231       -5.9146  -16.9144  -57.5852 H         1 UNK         0.0600 
    232 H232       -8.4829  -17.1508  -55.9251 H         1 UNK         0.0600 
    233 H233       -8.4092  -16.7578  -57.6386 H         1 UNK         0.0600 
    234 H234       -7.7295  -15.6476  -56.4600 H         1 UNK         0.0600 
    235 H235       -6.5294  -19.5648  -55.3483 H         1 UNK         0.3000 
    236 H236       -7.4312  -21.4071  -57.4815 H         1 UNK         0.0600 
    237 H237       -8.5808  -21.4702  -55.2655 H         1 UNK         0.0600 
    238 H238       -7.7750  -22.9871  -55.6354 H         1 UNK         0.0600 
    239 H239       -7.0587  -21.8800  -54.4772 H         1 UNK         0.0600 
    240 H240       -4.7282  -21.0240  -55.0935 H         1 UNK         0.3000 
    241 H241       -3.2770  -23.2323  -56.3054 H         1 UNK         0.0600 
    242 H242       -1.7687  -19.8971  -58.0153 H         1 UNK         0.3800 
    243 H243       -3.1552  -19.7325  -56.9753 H         1 UNK         0.3800 
    244 H244       -1.5526  -22.8633  -54.5845 H         1 UNK         0.0800 
    245 H245       -3.1470  -23.1030  -53.9523 H         1 UNK         0.0800 
    246 H246       -0.0415  -21.1697  -53.7066 H         1 UNK         0.0800 
    247 H247       -0.6411  -19.9860  -54.8420 H         1 UNK         0.0800 
@<TRIPOS>BOND
     1    1    2 1    
     2    1  127 1    
     3    1  128 1    
     4    1  129 1    
     5    2    3 2    
     6    2    4 am   BACKBONE|DICT|INTERRES
     7    4    5 1    
     8    4  130 1    
     9    5    6 1    
    10    5   65 1    
    11    5  131 1    
    12    6    7 1    
    13    6  132 1    
    14    6  133 1    
    15    7    8 1    
    16    8    9 1    
    17    8  134 1    
    18    8  135 1    
    19    9   10 ar   
    20    9   14 ar   
    21   10   11 ar   
    22   10  136 1    
    23   11   12 ar   
    24   11  126 1    
    25   12   13 ar   
    26   12  137 1    
    27   13   14 ar   
    28   13   15 1    
    29   14  138 1    
    30   15   16 1    
    31   15  139 1    
    32   15  140 1    
    33   16   17 1    
    34   17   18 1    
    35   17  141 1    
    36   17  142 1    
    37   18   19 1    
    38   18   67 1    
    39   18  143 1    
    40   19   20 am   BACKBONE|DICT|INTERRES
    41   19  144 1    
    42   20   21 2    
    43   20   22 1    
    44   22   23 1    
    45   22   24 1    
    46   22  145 1    
    47   23  146 1    
    48   23  147 1    
    49   23  148 1    
    50   24   25 am   BACKBONE|DICT|INTERRES
    51   24  149 1    
    52   25   26 2    
    53   25   27 1    
    54   27   28 1    
    55   27   29 1    
    56   27  150 1    
    57   28  151 1    
    58   28  152 1    
    59   28  153 1    
    60   29   30 am   BACKBONE|DICT|INTERRES
    61   29  154 1    
    62   30   31 2    
    63   30   32 1    
    64   32   33 1    
    65   32   34 1    
    66   32  155 1    
    67   33  156 1    
    68   33  157 1    
    69   33  158 1    
    70   34   35 am   BACKBONE|DICT|INTERRES
    71   34  159 1    
    72   35   36 2    
    73   35   37 1    
    74   37   38 1    
    75   37   39 1    
    76   37  160 1    
    77   38  161 1    
    78   38  162 1    
    79   38  163 1    
    80   39   40 am   BACKBONE|DICT|INTERRES
    81   39  164 1    
    82   40   41 2    
    83   40   42 1    
    84   42   43 1    
    85   42   44 1    
    86   42  165 1    
    87   43  166 1    
    88   43  167 1    
    89   43  168 1    
    90   44   45 am   BACKBONE|DICT|INTERRES
    91   44  169 1    
    92   45   46 2    
    93   45   47 1    
    94   47   48 1    
    95   47   49 1    
    96   47  170 1    
    97   48  171 1    
    98   48  172 1    
    99   48  173 1    
   100   49   50 am   BACKBONE|DICT|INTERRES
   101   49  174 1    
   102   50   51 2    
   103   50   52 1    
   104   52   53 1    
   105   52   54 1    
   106   52  175 1    
   107   53  176 1    
   108   53  177 1    
   109   53  178 1    
   110   54   55 am   BACKBONE|DICT|INTERRES
   111   54  179 1    
   112   55   56 2    
   113   55   57 1    
   114   57   58 1    
   115   57   59 1    
   116   57  180 1    
   117   58  181 1    
   118   58  182 1    
   119   58  183 1    
   120   59   60 am   BACKBONE|DICT|INTERRES
   121   59  184 1    
   122   60   61 2    
   123   60   62 1    
   124   62   63 1    
   125   62   64 1    
   126   62  185 1    
   127   63  186 1    
   128   63  187 1    
   129   63  188 1    
   130   64   65 am   BACKBONE|DICT|INTERRES
   131   64  189 1    
   132   65   66 2    
   133   67   68 2    
   134   67   69 am   BACKBONE|DICT|INTERRES
   135   69   70 1    
   136   69  190 1    
   137   70   71 1    
   138   70   72 1    
   139   70  191 1    
   140   71  192 1    
   141   71  193 1    
   142   71  194 1    
   143   72   73 2    
   144   72   74 am   BACKBONE|DICT|INTERRES
   145   74   75 1    
   146   74  195 1    
   147   75   76 1    
   148   75   77 1    
   149   75  196 1    
   150   76  197 1    
   151   76  198 1    
   152   76  199 1    
   153   77   78 2    
   154   77   79 am   BACKBONE|DICT|INTERRES
   155   79   80 1    
   156   79  200 1    
   157   80   81 1    
   158   80   82 1    
   159   80  201 1    
   160   81  202 1    
   161   81  203 1    
   162   81  204 1    
   163   82   83 2    
   164   82   84 am   BACKBONE|DICT|INTERRES
   165   84   85 1    
   166   84  205 1    
   167   85   86 1    
   168   85   87 1    
   169   85  206 1    
   170   86  207 1    
   171   86  208 1    
   172   86  209 1    
   173   87   88 2    
   174   87   89 am   BACKBONE|DICT|INTERRES
   175   89   90 1    
   176   89  210 1    
   177   90   91 1    
   178   90   92 1    
   179   90  211 1    
   180   91  212 1    
   181   91  213 1    
   182   91  214 1    
   183   92   93 2    
   184   92   94 am   BACKBONE|DICT|INTERRES
   185   94   95 1    
   186   94  215 1    
   187   95   96 1    
   188   95   97 1    
   189   95  216 1    
   190   96  217 1    
   191   96  218 1    
   192   96  219 1    
   193   97   98 2    
   194   97   99 am   BACKBONE|DICT|INTERRES
   195   99  100 1    
   196   99  220 1    
   197  100  101 1    
   198  100  102 1    
   199  100  221 1    
   200  101  222 1    
   201  101  223 1    
   202  101  224 1    
   203  102  103 2    
   204  102  104 am   BACKBONE|DICT|INTERRES
   205  104  105 1    
   206  104  225 1    
   207  105  106 1    
   208  105  107 1    
   209  105  226 1    
   210  106  227 1    
   211  106  228 1    
   212  106  229 1    
   213  107  108 2    
   214  107  109 am   BACKBONE|DICT|INTERRES
   215  109  110 1    
   216  109  230 1    
   217  110  111 1    
   218  110  112 1    
   219  110  231 1    
   220  111  232 1    
   221  111  233 1    
   222  111  234 1    
   223  112  113 2    
   224  112  114 am   BACKBONE|DICT|INTERRES
   225  114  115 1    
   226  114  235 1    
   227  115  116 1    
   228  115  117 1    
   229  115  236 1    
   230  116  237 1    
   231  116  238 1    
   232  116  239 1    
   233  117  118 2    
   234  117  119 am   BACKBONE|DICT|INTERRES
   235  119  120 1    
   236  119  240 1    
   237  120  121 1    
   238  120  124 1    
   239  120  241 1    
   240  121  122 am   BACKBONE|DICT|INTERRES
   241  121  123 2    
   242  122  242 1    
   243  122  243 1    
   244  124  125 1    
   245  124  244 1    
   246  124  245 1    
   247  125  126 1    
   248  126  246 1    
   249  126  247 1    
@<TRIPOS>SUBSTRUCTURE
     1 UNK         1 GROUP             0       ****    0 ROOT    
