@<TRIPOS>MOLECULE
3R540
247   249    1
SMALL
USER_CHARGES


@<TRIPOS>ATOM
      1 CA         -3.4781  -10.2240  -45.3460 C.3       0 UNK        -0.1800 
      2 C          -2.7640  -11.1999  -46.2703 C.2       0 UNK         0.5000 
      3 O          -3.2286  -12.3252  -46.4506 O.2       0 UNK        -0.5000 
      4 N          -1.6389  -10.7734  -46.8523 N.am      1 UNK        -0.5000 
      5 CA         -0.8177  -11.5453  -47.7844 C.3       1 UNK         0.1400 
      6 C6         -0.0786  -12.7457  -47.1354 C.3       23 UNK        -0.0398 
      7 S7          0.5924  -13.9206  -48.3556 S.3       23 UNK        -0.2404 
      8 C8         -0.4344  -15.3803  -48.0097 C.3       23 UNK        -0.0205 
      9 C9         -0.1148  -16.5240  -48.9564 C.ar      23 UNK        -0.0193 
     10 C10        -0.6505  -16.5350  -50.2468 C.ar      23 UNK        -0.1150 
     11 C11        -0.3737  -17.5840  -51.1284 C.ar      23 UNK        -0.0193 
     12 C12         0.4280  -18.6454  -50.6880 C.ar      23 UNK        -0.1150 
     13 C13         0.9817  -18.6425  -49.4029 C.ar      23 UNK        -0.0193 
     14 C14         0.7079  -17.5745  -48.5429 C.ar      23 UNK        -0.1150 
     15 C15         1.8918  -19.7860  -48.9620 C.3       23 UNK        -0.0205 
     16 S16         1.4192  -20.5150  -47.3580 S.3       23 UNK        -0.2404 
     17 C17        -0.3150  -20.9765  -47.6650 C.3       23 UNK        -0.0398 
     18 CA         -0.6682  -22.4038  -47.1974 C.3       11 UNK         0.1400 
     19 N          -0.5107  -22.6020  -45.7550 N.am      11 UNK        -0.5000 
     20 C          -0.6689  -23.7774  -45.1296 C.2       10 UNK         0.5000 
     21 O          -0.9064  -24.8365  -45.7140 O.2       10 UNK        -0.5000 
     22 CA         -0.6230  -23.7516  -43.5935 C.3       10 UNK         0.1400 
     23 CB          0.8219  -23.8719  -43.0881 C.3       10 UNK        -0.1800 
     24 N          -1.2390  -22.5389  -43.0508 N.am      10 UNK        -0.5000 
     25 C          -2.5553  -22.2883  -43.0630 C.2       9 UNK         0.5000 
     26 O          -3.3923  -23.0690  -43.5138 O.2       9 UNK        -0.5000 
     27 CA         -3.0081  -20.9156  -42.5327 C.3       9 UNK         0.1400 
     28 CB         -2.9821  -20.8867  -40.9973 C.3       9 UNK        -0.1800 
     29 N          -2.1990  -19.8148  -43.0558 N.am      9 UNK        -0.5000 
     30 C          -2.1485  -19.4585  -44.3468 C.2       8 UNK         0.5000 
     31 O          -2.8130  -19.9983  -45.2309 O.2       8 UNK        -0.5000 
     32 CA         -1.1640  -18.3343  -44.7224 C.3       8 UNK         0.1400 
     33 CB         -1.8413  -16.9656  -44.5641 C.3       8 UNK        -0.1800 
     34 N           0.1035  -18.3293  -43.9840 N.am      8 UNK        -0.5000 
     35 C           0.9312  -19.3680  -43.7907 C.2       7 UNK         0.5000 
     36 O           0.6520  -20.5302  -44.0812 O.2       7 UNK        -0.5000 
     37 CA          2.3099  -19.0736  -43.1757 C.3       7 UNK         0.1400 
     38 CB          3.4024  -19.2062  -44.2479 C.3       7 UNK        -0.1800 
     39 N           2.3904  -17.7366  -42.5866 N.am      7 UNK        -0.5000 
     40 C           2.1650  -17.4553  -41.2960 C.2       6 UNK         0.5000 
     41 O           1.8549  -18.3015  -40.4570 O.2       6 UNK        -0.5000 
     42 CA          2.3153  -15.9828  -40.8628 C.3       6 UNK         0.1400 
     43 CB          3.7146  -15.7377  -40.2778 C.3       6 UNK        -0.1800 
     44 N           2.0855  -15.0344  -41.9544 N.am      6 UNK        -0.5000 
     45 C           0.8839  -14.7631  -42.4805 C.2       5 UNK         0.5000 
     46 O          -0.1675  -15.2512  -42.0678 O.2       5 UNK        -0.5000 
     47 CA          0.8553  -13.8191  -43.6980 C.3       5 UNK         0.1400 
     48 CB          0.6462  -12.3660  -43.2473 C.3       5 UNK        -0.1800 
     49 N           2.0476  -13.9017  -44.5517 N.am      5 UNK        -0.5000 
     50 C           2.4497  -15.0061  -45.2009 C.2       4 UNK         0.5000 
     51 O           1.8730  -16.0889  -45.1008 O.2       4 UNK        -0.5000 
     52 CA          3.6988  -14.8807  -46.0917 C.3       4 UNK         0.1400 
     53 CB          3.7379  -15.9249  -47.2227 C.3       4 UNK        -0.1800 
     54 N           3.7954  -13.5415  -46.6733 N.am      4 UNK        -0.5000 
     55 C           4.8740  -12.7518  -46.6158 C.2       3 UNK         0.5000 
     56 O           5.9212  -13.0601  -46.0457 O.2       3 UNK        -0.5000 
     57 CA          4.7715  -11.3794  -47.3101 C.3       3 UNK         0.1400 
     58 CB          5.3130  -11.4684  -48.7453 C.3       3 UNK        -0.1800 
     59 N           3.4212  -10.8072  -47.3487 N.am      3 UNK        -0.5000 
     60 C           2.7052  -10.4369  -46.2768 C.2       2 UNK         0.5000 
     61 O           3.0577  -10.6539  -45.1179 O.2       2 UNK        -0.5000 
     62 CA          1.3627   -9.7196  -46.5287 C.3       2 UNK         0.1400 
     63 CB          1.4619   -8.2486  -46.0965 C.3       2 UNK        -0.1800 
     64 N           0.9581   -9.7594  -47.9407 N.am      2 UNK        -0.5000 
     65 C           0.1000  -10.5819  -48.5702 C.2       1 UNK         0.5000 
     66 O          -0.0197  -10.5333  -49.7930 O.2       1 UNK        -0.5000 
     67 C          -2.0865  -22.7582  -47.6851 C.2       11 UNK         0.5000 
     68 O          -2.2278  -23.1946  -48.8246 O.2       11 UNK        -0.5000 
     69 N          -3.1072  -22.5501  -46.8451 N.am      12 UNK        -0.5000 
     70 CA         -4.4912  -22.9058  -47.1385 C.3       12 UNK         0.1400 
     71 CB         -5.4370  -21.9587  -46.3840 C.3       12 UNK        -0.1800 
     72 C          -4.7825  -24.3724  -46.7857 C.2       12 UNK         0.5000 
     73 O          -5.3331  -25.0942  -47.6161 O.2       12 UNK        -0.5000 
     74 N          -4.4286  -24.7803  -45.5598 N.am      13 UNK        -0.5000 
     75 CA         -4.8016  -26.0746  -44.9914 C.3       13 UNK         0.1400 
     76 CB         -4.6523  -26.0229  -43.4629 C.3       13 UNK        -0.1800 
     77 C          -4.0128  -27.2643  -45.5611 C.2       13 UNK         0.5000 
     78 O          -4.6116  -28.3127  -45.8065 O.2       13 UNK        -0.5000 
     79 N          -2.6933  -27.1037  -45.7248 N.am      14 UNK        -0.5000 
     80 CA         -1.7877  -28.1872  -46.1038 C.3       14 UNK         0.1400 
     81 CB         -0.5375  -28.1571  -45.2077 C.3       14 UNK        -0.1800 
     82 C          -1.4069  -28.1057  -47.5866 C.2       14 UNK         0.5000 
     83 O          -1.5604  -29.0956  -48.3034 O.2       14 UNK        -0.5000 
     84 N          -0.9041  -26.9419  -48.0222 N.am      15 UNK        -0.5000 
     85 CA         -0.3868  -26.7584  -49.3823 C.3       15 UNK         0.1400 
     86 CB          0.5877  -25.5713  -49.4050 C.3       15 UNK        -0.1800 
     87 C          -1.4930  -26.5519  -50.4323 C.2       15 UNK         0.5000 
     88 O          -1.2885  -26.8948  -51.5966 O.2       15 UNK        -0.5000 
     89 N          -2.6162  -25.9542  -50.0069 N.am      16 UNK        -0.5000 
     90 CA         -3.7542  -25.4915  -50.8146 C.3       16 UNK         0.1400 
     91 CB         -4.4581  -26.6672  -51.5207 C.3       16 UNK        -0.1800 
     92 C          -3.4151  -24.3380  -51.7873 C.2       16 UNK         0.5000 
     93 O          -4.2443  -23.9821  -52.6245 O.2       16 UNK        -0.5000 
     94 N          -2.2305  -23.7336  -51.6326 N.am      17 UNK        -0.5000 
     95 CA         -1.7423  -22.5947  -52.4029 C.3       17 UNK         0.1400 
     96 CB         -0.2581  -22.3608  -52.0824 C.3       17 UNK        -0.1800 
     97 C          -2.5624  -21.3258  -52.1337 C.2       17 UNK         0.5000 
     98 O          -2.9712  -20.6608  -53.0831 O.2       17 UNK        -0.5000 
     99 N          -2.8340  -21.0379  -50.8522 N.am      18 UNK        -0.5000 
    100 CA        -3.6554  -19.8934  -50.4448 C.3       18 UNK         0.1400 
    101 CB        -3.3362  -19.4829  -49.0015 C.3       18 UNK        -0.1800 
    102 C         -5.1598  -20.1481  -50.6405 C.2       18 UNK         0.5000 
    103 O         -5.9090  -19.1889  -50.8180 O.2       18 UNK        -0.5000 
    104 N         -5.5719  -21.4247  -50.6694 N.am      19 UNK        -0.5000 
    105 CA        -6.9321  -21.8404  -51.0250 C.3       19 UNK         0.1400 
    106 CB        -7.1476  -23.3090  -50.6287 C.3       19 UNK        -0.1800 
    107 C         -7.2213  -21.6155  -52.5231 C.2       19 UNK         0.5000 
    108 O         -8.3142  -21.1728  -52.8756 O.2       19 UNK        -0.5000 
    109 N         -6.2108  -21.8664  -53.3675 N.am      20 UNK        -0.5000 
    110 CA        -6.1980  -21.5520  -54.7984 C.3       20 UNK         0.1400 
    111 CB        -5.1819  -22.4785  -55.4863 C.3       20 UNK        -0.1800 
    112 C         -5.8631  -20.0732  -55.0962 C.2       20 UNK         0.5000 
    113 O         -5.8426  -19.6856  -56.2661 O.2       20 UNK        -0.5000 
    114 N         -5.5634  -19.2867  -54.0501 N.am      21 UNK        -0.5000 
    115 CA        -5.1507  -17.8778  -54.0652 C.3       21 UNK         0.1400 
    116 CB        -6.3385  -16.9792  -54.4649 C.3       21 UNK        -0.1800 
    117 C         -3.8879  -17.6151  -54.9162 C.2       21 UNK         0.5000 
    118 O         -3.7483  -16.5365  -55.4952 O.2       21 UNK        -0.5000 
    119 N         -3.0020  -18.6186  -54.9872 N.am      22 UNK        -0.5000 
    120 CA        -1.7983  -18.6775  -55.8315 C.3       22 UNK         0.1400 
    121 C         -2.0867  -18.6261  -57.3668 C.2       22 UNK         0.5000 
    122 N         -3.3025  -18.9060  -57.8255 N.am      22 UNK        -0.7600 
    123 O         -1.1901  -18.3677  -58.1655 O.2       22 UNK        -0.5000 
    124 C124       -0.6961  -17.6821  -55.3648 C.3       23 UNK        -0.0398 
    125 S125        0.1340  -18.2161  -53.8267 S.3       23 UNK        -0.2404 
    126 C126       -0.9690  -17.5494  -52.5359 C.3       23 UNK        -0.0205 
    127 H127       -2.9516   -9.2719  -45.2752 H         1 UNK         0.0600 
    128 H128       -3.5542  -10.6452  -44.3435 H         1 UNK         0.0600 
    129 H129       -4.4860  -10.0291  -45.7126 H         1 UNK         0.0600 
    130 H130       -1.3391   -9.8181  -46.7118 H         1 UNK         0.3000 
    131 H131       -1.5131  -11.9613  -48.5175 H         1 UNK         0.0600 
    132 H132       -0.7590  -13.2869  -46.4786 H         1 UNK         0.0800 
    133 H133        0.7329  -12.4211  -46.4921 H         1 UNK         0.0800 
    134 H134       -0.2707  -15.6932  -46.9783 H         1 UNK         0.0800 
    135 H135       -1.4899  -15.1164  -48.0941 H         1 UNK         0.0800 
    136 H136       -1.2797  -15.7156  -50.5652 H         1 UNK         0.1150 
    137 H137        0.6372  -19.4696  -51.3539 H         1 UNK         0.1150 
    138 H138        1.1318  -17.5644  -47.5478 H         1 UNK         0.1150 
    139 H139        1.9088  -20.5785  -49.7119 H         1 UNK         0.0800 
    140 H140        2.9128  -19.4098  -48.8878 H         1 UNK         0.0800 
    141 H141       -0.5069  -20.8824  -48.7351 H         1 UNK         0.0800 
    142 H142       -0.9559  -20.2434  -47.1784 H         1 UNK         0.0800 
    143 H143        0.0242  -23.0907  -47.6829 H         1 UNK         0.0600 
    144 H144       -0.2484  -21.7886  -45.2037 H         1 UNK         0.3000 
    145 H145       -1.1836  -24.6152  -43.2292 H         1 UNK         0.0600 
    146 H146        0.8572  -23.9005  -41.9990 H         1 UNK         0.0600 
    147 H147        1.2855  -24.7895  -43.4528 H         1 UNK         0.0600 
    148 H148        1.4397  -23.0377  -43.4223 H         1 UNK         0.0600 
    149 H149       -0.6064  -21.7992  -42.7759 H         1 UNK         0.3000 
    150 H150       -4.0389  -20.7592  -42.8581 H         1 UNK         0.0600 
    151 H151       -3.5873  -21.6937  -40.5819 H         1 UNK         0.0600 
    152 H152       -3.3856  -19.9492  -40.6143 H         1 UNK         0.0600 
    153 H153       -1.9699  -21.0007  -40.6071 H         1 UNK         0.0600 
    154 H154       -1.6074  -19.3253  -42.4006 H         1 UNK         0.3000 
    155 H155       -0.9078  -18.4564  -45.7752 H         1 UNK         0.0600 
    156 H156       -2.1196  -16.7735  -43.5271 H         1 UNK         0.0600 
    157 H157       -2.7487  -16.9052  -45.1665 H         1 UNK         0.0600 
    158 H158       -1.1842  -16.1588  -44.8849 H         1 UNK         0.0600 
    159 H159        0.4576  -17.4161  -43.7367 H         1 UNK         0.3000 
    160 H160        2.4962  -19.8298  -42.4103 H         1 UNK         0.0600 
    161 H161        3.2459  -18.5064  -45.0688 H         1 UNK         0.0600 
    162 H162        3.4104  -20.2102  -44.6745 H         1 UNK         0.0600 
    163 H163        4.3924  -19.0219  -43.8307 H         1 UNK         0.0600 
    164 H164        2.5824  -16.9794  -43.2292 H         1 UNK         0.3000 
    165 H165        1.5796  -15.7923  -40.0783 H         1 UNK         0.0600 
    166 H166        3.8131  -14.7185  -39.9038 H         1 UNK         0.0600 
    167 H167        3.9115  -16.4096  -39.4413 H         1 UNK         0.0600 
    168 H168        4.4964  -15.9009  -41.0208 H         1 UNK         0.0600 
    169 H169        2.8980  -14.5831  -42.3482 H         1 UNK         0.3000 
    170 H170       -0.0042  -14.1099  -44.3040 H         1 UNK         0.0600 
    171 H171       -0.2176  -12.2800  -42.5865 H         1 UNK         0.0600 
    172 H172        1.5132  -11.9829  -42.7078 H         1 UNK         0.0600 
    173 H173        0.4635  -11.7110  -44.0971 H         1 UNK         0.0600 
    174 H174        2.5920  -13.0554  -44.6556 H         1 UNK         0.3000 
    175 H175        4.5473  -15.0725  -45.4324 H         1 UNK         0.0600 
    176 H176        2.9124  -15.7911  -47.9209 H         1 UNK         0.0600 
    177 H177        4.6658  -15.8519  -47.7897 H         1 UNK         0.0600 
    178 H178        3.6791  -16.9413  -46.8332 H         1 UNK         0.0600 
    179 H179        2.9819  -13.2133  -47.1742 H         1 UNK         0.3000 
    180 H180        5.4051  -10.6877  -46.7510 H         1 UNK         0.0600 
    181 H181        4.6987  -12.1213  -49.3668 H         1 UNK         0.0600 
    182 H182        6.3291  -11.8653  -48.7567 H         1 UNK         0.0600 
    183 H183        5.3451  -10.4863  -49.2174 H         1 UNK         0.0600 
    184 H184        3.0435  -10.6174  -48.2653 H         1 UNK         0.3000 
    185 H185        0.6268  -10.1934  -45.8843 H         1 UNK         0.0600 
    186 H186        1.7382   -8.1656  -45.0443 H         1 UNK         0.0600 
    187 H187        2.2107   -7.7068  -46.6758 H         1 UNK         0.0600 
    188 H188        0.5078   -7.7358  -46.2203 H         1 UNK         0.0600 
    189 H189        1.4541   -9.1018  -48.5250 H         1 UNK         0.3000 
    190 H190       -2.9253  -22.1153  -45.9489 H         1 UNK         0.3000 
    191 H191       -4.6802  -22.7758  -48.2058 H         1 UNK         0.0600 
    192 H192       -5.2837  -20.9236  -46.6892 H         1 UNK         0.0600 
    193 H193       -6.4799  -22.2058  -46.5858 H         1 UNK         0.0600 
    194 H194       -5.2879  -22.0100  -45.3049 H         1 UNK         0.0600 
    195 H195       -3.9904  -24.1200  -44.9214 H         1 UNK         0.3000 
    196 H196       -5.8574  -26.2460  -45.2130 H         1 UNK         0.0600 
    197 H197       -4.9607  -26.9644  -43.0067 H         1 UNK         0.0600 
    198 H198       -5.2715  -25.2354  -43.0328 H         1 UNK         0.0600 
    199 H199       -3.6197  -25.8362  -43.1654 H         1 UNK         0.0600 
    200 H200       -2.2689  -26.1962  -45.5588 H         1 UNK         0.3000 
    201 H201       -2.2680  -29.1548  -45.9423 H         1 UNK         0.0600 
    202 H202       -0.8073  -28.2485  -44.1555 H         1 UNK         0.0600 
    203 H203        0.0358  -27.2379  -45.3253 H         1 UNK         0.0600 
    204 H204        0.1288  -28.9875  -45.4448 H         1 UNK         0.0600 
    205 H205       -0.8039  -26.1732  -47.3685 H         1 UNK         0.3000 
    206 H206        0.1752  -27.6524  -49.6622 H         1 UNK         0.0600 
    207 H207        1.3387  -25.6527  -48.6189 H         1 UNK         0.0600 
    208 H208        1.1168  -25.5252  -50.3577 H         1 UNK         0.0600 
    209 H209        0.0672  -24.6239  -49.2831 H         1 UNK         0.0600 
    210 H210       -2.6545  -25.6914  -49.0319 H         1 UNK         0.3000 
    211 H211       -4.4645  -25.0690  -50.1048 H         1 UNK         0.0600 
    212 H212       -3.8404  -27.0981  -52.3088 H         1 UNK         0.0600 
    213 H213       -5.3919  -26.3434  -51.9816 H         1 UNK         0.0600 
    214 H214       -4.7046  -27.4596  -50.8139 H         1 UNK         0.0600 
    215 H215       -1.6681  -24.0243  -50.8458 H         1 UNK         0.3000 
    216 H216       -1.8337  -22.8369  -53.4638 H         1 UNK         0.0600 
    217 H217        0.1381  -21.5271  -52.6637 H         1 UNK         0.0600 
    218 H218        0.3397  -23.2391  -52.3264 H         1 UNK         0.0600 
    219 H219       -0.1008  -22.1324  -51.0274 H         1 UNK         0.0600 
    220 H220       -2.5190  -21.6778  -50.1318 H         1 UNK         0.3000 
    221 H221       -3.4007  -19.0422  -51.0777 H         1 UNK         0.0600 
    222 H222       -3.5323  -20.2857  -48.2952 H         1 UNK         0.0600 
    223 H223       -2.2943  -19.1804  -48.9027 H         1 UNK         0.0600 
    224 H224       -3.9433  -18.6297  -48.6964 H         1 UNK         0.0600 
    225 H225       -4.8853  -22.1533  -50.5521 H         1 UNK         0.3000 
    226 H226       -7.6349  -21.2310  -50.4527 H         1 UNK         0.0600 
    227 H227       -6.9422  -23.4691  -49.5700 H         1 UNK         0.0600 
    228 H228       -8.1808  -23.6089  -50.8073 H         1 UNK         0.0600 
    229 H229       -6.5122  -23.9838  -51.2009 H         1 UNK         0.0600 
    230 H230       -5.3714  -22.3068  -53.0065 H         1 UNK         0.3000 
    231 H231       -7.1859  -21.7550  -55.2163 H         1 UNK         0.0600 
    232 H232       -5.4254  -23.5272  -55.3143 H         1 UNK         0.0600 
    233 H233       -4.1697  -22.3067  -55.1175 H         1 UNK         0.0600 
    234 H234       -5.1703  -22.3213  -56.5655 H         1 UNK         0.0600 
    235 H235       -5.5917  -19.7151  -53.1363 H         1 UNK         0.3000 
    236 H236       -4.8780  -17.6291  -53.0388 H         1 UNK         0.0600 
    237 H237       -6.0892  -15.9237  -54.3503 H         1 UNK         0.0600 
    238 H238       -6.6318  -17.1363  -55.5033 H         1 UNK         0.0600 
    239 H239       -7.2079  -17.1752  -53.8372 H         1 UNK         0.0600 
    240 H240       -3.1687  -19.4465  -54.4183 H         1 UNK         0.3000 
    241 H241       -1.4027  -19.6833  -55.6868 H         1 UNK         0.0600 
    242 H242       -4.0649  -19.1254  -57.1943 H         1 UNK         0.3800 
    243 H243       -3.4719  -18.8819  -58.8184 H         1 UNK         0.3800 
    244 H244       -1.0910  -16.6725  -55.2496 H         1 UNK         0.0800 
    245 H245        0.0952  -17.6020  -56.1111 H         1 UNK         0.0800 
    246 H246       -1.8944  -18.1211  -52.5340 H         1 UNK         0.0800 
    247 H247       -1.2334  -16.5251  -52.8025 H         1 UNK         0.0800 
@<TRIPOS>BOND
     1    1    2 1    
     2    1  127 1    
     3    1  128 1    
     4    1  129 1    
     5    2    3 2    
     6    2    4 am   BACKBONE|DICT|INTERRES
     7    4    5 1    
     8    4  130 1    
     9    5    6 1    
    10    5   65 1    
    11    5  131 1    
    12    6    7 1    
    13    6  132 1    
    14    6  133 1    
    15    7    8 1    
    16    8    9 1    
    17    8  134 1    
    18    8  135 1    
    19    9   10 ar   
    20    9   14 ar   
    21   10   11 ar   
    22   10  136 1    
    23   11   12 ar   
    24   11  126 1    
    25   12   13 ar   
    26   12  137 1    
    27   13   14 ar   
    28   13   15 1    
    29   14  138 1    
    30   15   16 1    
    31   15  139 1    
    32   15  140 1    
    33   16   17 1    
    34   17   18 1    
    35   17  141 1    
    36   17  142 1    
    37   18   19 1    
    38   18   67 1    
    39   18  143 1    
    40   19   20 am   BACKBONE|DICT|INTERRES
    41   19  144 1    
    42   20   21 2    
    43   20   22 1    
    44   22   23 1    
    45   22   24 1    
    46   22  145 1    
    47   23  146 1    
    48   23  147 1    
    49   23  148 1    
    50   24   25 am   BACKBONE|DICT|INTERRES
    51   24  149 1    
    52   25   26 2    
    53   25   27 1    
    54   27   28 1    
    55   27   29 1    
    56   27  150 1    
    57   28  151 1    
    58   28  152 1    
    59   28  153 1    
    60   29   30 am   BACKBONE|DICT|INTERRES
    61   29  154 1    
    62   30   31 2    
    63   30   32 1    
    64   32   33 1    
    65   32   34 1    
    66   32  155 1    
    67   33  156 1    
    68   33  157 1    
    69   33  158 1    
    70   34   35 am   BACKBONE|DICT|INTERRES
    71   34  159 1    
    72   35   36 2    
    73   35   37 1    
    74   37   38 1    
    75   37   39 1    
    76   37  160 1    
    77   38  161 1    
    78   38  162 1    
    79   38  163 1    
    80   39   40 am   BACKBONE|DICT|INTERRES
    81   39  164 1    
    82   40   41 2    
    83   40   42 1    
    84   42   43 1    
    85   42   44 1    
    86   42  165 1    
    87   43  166 1    
    88   43  167 1    
    89   43  168 1    
    90   44   45 am   BACKBONE|DICT|INTERRES
    91   44  169 1    
    92   45   46 2    
    93   45   47 1    
    94   47   48 1    
    95   47   49 1    
    96   47  170 1    
    97   48  171 1    
    98   48  172 1    
    99   48  173 1    
   100   49   50 am   BACKBONE|DICT|INTERRES
   101   49  174 1    
   102   50   51 2    
   103   50   52 1    
   104   52   53 1    
   105   52   54 1    
   106   52  175 1    
   107   53  176 1    
   108   53  177 1    
   109   53  178 1    
   110   54   55 am   BACKBONE|DICT|INTERRES
   111   54  179 1    
   112   55   56 2    
   113   55   57 1    
   114   57   58 1    
   115   57   59 1    
   116   57  180 1    
   117   58  181 1    
   118   58  182 1    
   119   58  183 1    
   120   59   60 am   BACKBONE|DICT|INTERRES
   121   59  184 1    
   122   60   61 2    
   123   60   62 1    
   124   62   63 1    
   125   62   64 1    
   126   62  185 1    
   127   63  186 1    
   128   63  187 1    
   129   63  188 1    
   130   64   65 am   BACKBONE|DICT|INTERRES
   131   64  189 1    
   132   65   66 2    
   133   67   68 2    
   134   67   69 am   BACKBONE|DICT|INTERRES
   135   69   70 1    
   136   69  190 1    
   137   70   71 1    
   138   70   72 1    
   139   70  191 1    
   140   71  192 1    
   141   71  193 1    
   142   71  194 1    
   143   72   73 2    
   144   72   74 am   BACKBONE|DICT|INTERRES
   145   74   75 1    
   146   74  195 1    
   147   75   76 1    
   148   75   77 1    
   149   75  196 1    
   150   76  197 1    
   151   76  198 1    
   152   76  199 1    
   153   77   78 2    
   154   77   79 am   BACKBONE|DICT|INTERRES
   155   79   80 1    
   156   79  200 1    
   157   80   81 1    
   158   80   82 1    
   159   80  201 1    
   160   81  202 1    
   161   81  203 1    
   162   81  204 1    
   163   82   83 2    
   164   82   84 am   BACKBONE|DICT|INTERRES
   165   84   85 1    
   166   84  205 1    
   167   85   86 1    
   168   85   87 1    
   169   85  206 1    
   170   86  207 1    
   171   86  208 1    
   172   86  209 1    
   173   87   88 2    
   174   87   89 am   BACKBONE|DICT|INTERRES
   175   89   90 1    
   176   89  210 1    
   177   90   91 1    
   178   90   92 1    
   179   90  211 1    
   180   91  212 1    
   181   91  213 1    
   182   91  214 1    
   183   92   93 2    
   184   92   94 am   BACKBONE|DICT|INTERRES
   185   94   95 1    
   186   94  215 1    
   187   95   96 1    
   188   95   97 1    
   189   95  216 1    
   190   96  217 1    
   191   96  218 1    
   192   96  219 1    
   193   97   98 2    
   194   97   99 am   BACKBONE|DICT|INTERRES
   195   99  100 1    
   196   99  220 1    
   197  100  101 1    
   198  100  102 1    
   199  100  221 1    
   200  101  222 1    
   201  101  223 1    
   202  101  224 1    
   203  102  103 2    
   204  102  104 am   BACKBONE|DICT|INTERRES
   205  104  105 1    
   206  104  225 1    
   207  105  106 1    
   208  105  107 1    
   209  105  226 1    
   210  106  227 1    
   211  106  228 1    
   212  106  229 1    
   213  107  108 2    
   214  107  109 am   BACKBONE|DICT|INTERRES
   215  109  110 1    
   216  109  230 1    
   217  110  111 1    
   218  110  112 1    
   219  110  231 1    
   220  111  232 1    
   221  111  233 1    
   222  111  234 1    
   223  112  113 2    
   224  112  114 am   BACKBONE|DICT|INTERRES
   225  114  115 1    
   226  114  235 1    
   227  115  116 1    
   228  115  117 1    
   229  115  236 1    
   230  116  237 1    
   231  116  238 1    
   232  116  239 1    
   233  117  118 2    
   234  117  119 am   BACKBONE|DICT|INTERRES
   235  119  120 1    
   236  119  240 1    
   237  120  121 1    
   238  120  124 1    
   239  120  241 1    
   240  121  122 am   BACKBONE|DICT|INTERRES
   241  121  123 2    
   242  122  242 1    
   243  122  243 1    
   244  124  125 1    
   245  124  244 1    
   246  124  245 1    
   247  125  126 1    
   248  126  246 1    
   249  126  247 1    
@<TRIPOS>SUBSTRUCTURE
     1 UNK         1 GROUP             0       ****    0 ROOT    
