@<TRIPOS>MOLECULE
3R540
247   249    1
SMALL
USER_CHARGES


@<TRIPOS>ATOM
      1 CA         -1.9806  -16.6899  -48.2189 C.3       0 UNK        -0.1800 
      2 C          -1.2223  -15.4093  -47.8966 C.2       0 UNK         0.5000 
      3 O          -1.7351  -14.5694  -47.1570 O.2       0 UNK        -0.5000 
      4 N          -0.0247  -15.2501  -48.4726 N.am      1 UNK        -0.5000 
      5 CA          0.8237  -14.0591  -48.3452 C.3       1 UNK         0.1400 
      6 C6          1.5409  -13.7047  -49.6781 C.3       23 UNK        -0.0398 
      7 S7          0.4247  -13.6224  -51.1199 S.3       23 UNK        -0.2404 
      8 C8          1.1867  -14.8482  -52.2298 C.3       23 UNK        -0.0205 
      9 C9          0.8549  -16.2816  -51.8377 C.ar      23 UNK        -0.0193 
     10 C10        -0.2968  -16.8878  -52.3451 C.ar      23 UNK        -0.1150 
     11 C11        -0.5689  -18.2334  -52.0841 C.ar      23 UNK        -0.0193 
     12 C12         0.2943  -18.9590  -51.2579 C.ar      23 UNK        -0.1150 
     13 C13         1.4322  -18.3551  -50.7116 C.ar      23 UNK        -0.0193 
     14 C14         1.7156  -17.0207  -51.0186 C.ar      23 UNK        -0.1150 
     15 C15         2.3725  -19.1560  -49.8185 C.3       23 UNK        -0.0205 
     16 S16         2.2307  -18.7148  -48.0527 S.3       23 UNK        -0.2404 
     17 C17         0.5059  -19.1739  -47.6909 C.3       23 UNK        -0.0398 
     18 CA          0.3290  -20.6584  -47.2901 C.3       11 UNK         0.1400 
     19 N           0.7042  -20.9212  -45.8970 N.am      11 UNK        -0.5000 
     20 C           0.7181  -22.1327  -45.3210 C.2       10 UNK         0.5000 
     21 O           0.4957  -23.1808  -45.9273 O.2       10 UNK        -0.5000 
     22 CA          0.9560  -22.1813  -43.8001 C.3       10 UNK         0.1400 
     23 CB          2.4499  -22.0603  -43.4653 C.3       10 UNK        -0.1800 
     24 N           0.1923  -21.1592  -43.0806 N.am      10 UNK        -0.5000 
     25 C          -1.1476  -21.1162  -43.0324 C.2       9 UNK         0.5000 
     26 O          -1.8739  -21.9675  -43.5425 O.2       9 UNK        -0.5000 
     27 CA         -1.7925  -19.9001  -42.3440 C.3       9 UNK         0.1400 
     28 CB         -1.8328  -20.0893  -40.8208 C.3       9 UNK        -0.1800 
     29 N          -1.1218  -18.6433  -42.6755 N.am      9 UNK        -0.5000 
     30 C          -1.0563  -18.1214  -43.9094 C.2       8 UNK         0.5000 
     31 O          -1.6124  -18.6150  -44.8898 O.2       8 UNK        -0.5000 
     32 CA         -0.1724  -16.8764  -44.0925 C.3       8 UNK         0.1400 
     33 CB         -0.9154  -15.6060  -43.6545 C.3       8 UNK        -0.1800 
     34 N           1.0923  -16.9859  -43.3666 N.am      8 UNK        -0.5000 
     35 C           2.0312  -17.9121  -43.6028 C.2       7 UNK         0.5000 
     36 O           1.9569  -18.7430  -44.5064 O.2       7 UNK        -0.5000 
     37 CA          3.2126  -17.9716  -42.6183 C.3       7 UNK         0.1400 
     38 CB          4.3009  -16.9493  -42.9699 C.3       7 UNK        -0.1800 
     39 N           2.7753  -17.7649  -41.2394 N.am      7 UNK        -0.5000 
     40 C           2.1014  -18.6737  -40.5224 C.2       6 UNK         0.5000 
     41 O           1.8016  -19.7902  -40.9447 O.2       6 UNK        -0.5000 
     42 CA          1.6642  -18.2503  -39.1083 C.3       6 UNK         0.1400 
     43 CB          2.7942  -18.4941  -38.0971 C.3       6 UNK        -0.1800 
     44 N           1.2505  -16.8474  -39.0442 N.am      6 UNK        -0.5000 
     45 C           0.1480  -16.3614  -39.6308 C.2       5 UNK         0.5000 
     46 O          -0.6479  -17.0509  -40.2670 O.2       5 UNK        -0.5000 
     47 CA         -0.0771  -14.8418  -39.5283 C.3       5 UNK         0.1400 
     48 CB         -0.7646  -14.4850  -38.2020 C.3       5 UNK        -0.1800 
     49 N           1.1512  -14.0527  -39.6695 N.am      5 UNK        -0.5000 
     50 C           1.9332  -14.0536  -40.7569 C.2       4 UNK         0.5000 
     51 O           1.7533  -14.7898  -41.7275 O.2       4 UNK        -0.5000 
     52 CA          3.1417  -13.1045  -40.7451 C.3       4 UNK         0.1400 
     53 CB          4.4120  -13.8573  -40.3218 C.3       4 UNK        -0.1800 
     54 N           3.3565  -12.5091  -42.0627 N.am      4 UNK        -0.5000 
     55 C           2.5638  -11.5956  -42.6328 C.2       3 UNK         0.5000 
     56 O           1.5736  -11.1160  -42.0783 O.2       3 UNK        -0.5000 
     57 CA          2.9422  -11.1063  -44.0456 C.3       3 UNK         0.1400 
     58 CB          4.1329  -10.1298  -43.9887 C.3       3 UNK        -0.1800 
     59 N           3.1684  -12.1540  -45.0515 N.am      3 UNK        -0.5000 
     60 C           4.1172  -13.1003  -45.1066 C.2       2 UNK         0.5000 
     61 O           4.9499  -13.2878  -44.2179 O.2       2 UNK        -0.5000 
     62 CA          4.1973  -13.9351  -46.4051 C.3       2 UNK         0.1400 
     63 CB          4.5015  -15.4240  -46.1473 C.3       2 UNK        -0.1800 
     64 N           3.0599  -13.7845  -47.3249 N.am      2 UNK        -0.5000 
     65 C           1.8013  -14.2219  -47.1539 C.2       1 UNK         0.5000 
     66 O           1.4052  -14.7253  -46.1038 O.2       1 UNK        -0.5000 
     67 C          -1.1119  -21.1184  -47.5900 C.2       11 UNK         0.5000 
     68 O          -1.3242  -21.8125  -48.5831 O.2       11 UNK        -0.5000 
     69 N          -2.0669  -20.7511  -46.7235 N.am      12 UNK        -0.5000 
     70 CA         -3.4740  -21.1387  -46.8326 C.3       12 UNK         0.1400 
     71 CB         -4.3030  -20.3985  -45.7735 C.3       12 UNK        -0.1800 
     72 C          -3.6877  -22.6592  -46.7320 C.2       12 UNK         0.5000 
     73 O          -4.4802  -23.2051  -47.4987 O.2       12 UNK        -0.5000 
     74 N          -2.9568  -23.3183  -45.8222 N.am      13 UNK        -0.5000 
     75 CA         -2.9470  -24.7713  -45.6561 C.3       13 UNK         0.1400 
     76 CB         -2.1763  -25.1467  -44.3816 C.3       13 UNK        -0.1800 
     77 C          -2.3701  -25.4990  -46.8826 C.2       13 UNK         0.5000 
     78 O          -2.9739  -26.4664  -47.3464 O.2       13 UNK        -0.5000 
     79 N          -1.2471  -24.9972  -47.4179 N.am      14 UNK        -0.5000 
     80 CA         -0.6126  -25.4962  -48.6423 C.3       14 UNK         0.1400 
     81 CB          0.7421  -24.7991  -48.8393 C.3       14 UNK        -0.1800 
     82 C          -1.5015  -25.3242  -49.8895 C.2       14 UNK         0.5000 
     83 O          -1.5304  -26.2067  -50.7476 O.2       14 UNK        -0.5000 
     84 N          -2.2418  -24.2103  -49.9402 N.am      15 UNK        -0.5000 
     85 CA         -3.2418  -23.8970  -50.9601 C.3       15 UNK         0.1400 
     86 CB         -3.4618  -22.3764  -50.9635 C.3       15 UNK        -0.1800 
     87 C          -4.5820  -24.6385  -50.7654 C.2       15 UNK         0.5000 
     88 O          -5.4695  -24.4921  -51.6054 O.2       15 UNK        -0.5000 
     89 N          -4.7308  -25.3884  -49.6615 N.am      16 UNK        -0.5000 
     90 CA         -5.9251  -26.1326  -49.2413 C.3       16 UNK         0.1400 
     91 CB         -6.1664  -27.3339  -50.1783 C.3       16 UNK        -0.1800 
     92 C          -7.1736  -25.2366  -49.0777 C.2       16 UNK         0.5000 
     93 O          -8.2896  -25.6687  -49.3711 O.2       16 UNK        -0.5000 
     94 N          -6.9461  -23.9905  -48.6360 N.am      17 UNK        -0.5000 
     95 CA         -7.9048  -22.8914  -48.4774 C.3       17 UNK         0.1400 
     96 CB         -8.9541  -23.2311  -47.3988 C.3       17 UNK        -0.1800 
     97 C          -8.5499  -22.3984  -49.7945 C.2       17 UNK         0.5000 
     98 O          -9.5146  -21.6329  -49.7410 O.2       17 UNK        -0.5000 
     99 N          -8.0098  -22.8132  -50.9474 N.am      18 UNK        -0.5000 
    100 CA        -8.4214  -22.3733  -52.2786 C.3       18 UNK         0.1400 
    101 CB        -8.3818  -23.5880  -53.2233 C.3       18 UNK        -0.1800 
    102 C         -7.4942  -21.2524  -52.7839 C.2       18 UNK         0.5000 
    103 O         -6.5194  -20.8981  -52.1164 O.2       18 UNK        -0.5000 
    104 N         -7.8023  -20.7224  -53.9758 N.am      19 UNK        -0.5000 
    105 CA        -6.9597  -19.7547  -54.6871 C.3       19 UNK         0.1400 
    106 CB        -7.7629  -19.1355  -55.8410 C.3       19 UNK        -0.1800 
    107 C         -5.6513  -20.3772  -55.2156 C.2       19 UNK         0.5000 
    108 O         -4.6577  -19.6640  -55.3540 O.2       19 UNK        -0.5000 
    109 N         -5.6915  -21.6883  -55.5110 N.am      20 UNK        -0.5000 
    110 CA        -4.5763  -22.5845  -55.8544 C.3       20 UNK         0.1400 
    111 CB        -3.7438  -22.8782  -54.5924 C.3       20 UNK        -0.1800 
    112 C         -3.6994  -22.1389  -57.0460 C.2       20 UNK         0.5000 
    113 O         -2.5572  -22.5854  -57.1644 O.2       20 UNK        -0.5000 
    114 N         -4.2524  -21.2716  -57.9066 N.am      21 UNK        -0.5000 
    115 CA        -3.6020  -20.6094  -59.0409 C.3       21 UNK         0.1400 
    116 CB        -3.2637  -21.6282  -60.1502 C.3       21 UNK        -0.1800 
    117 C         -2.3938  -19.7341  -58.6329 C.2       21 UNK         0.5000 
    118 O         -1.4549  -19.5885  -59.4185 O.2       21 UNK        -0.5000 
    119 N         -2.4365  -19.1544  -57.4227 N.am      22 UNK        -0.5000 
    120 CA        -1.3908  -18.2571  -56.8971 C.3       22 UNK         0.1400 
    121 C         -1.2864  -16.8807  -57.6225 C.2       22 UNK         0.5000 
    122 N         -2.2844  -16.4480  -58.3842 N.am      22 UNK        -0.7600 
    123 O         -0.2770  -16.1935  -57.4930 O.2       22 UNK        -0.5000 
    124 C124       -1.5150  -18.0331  -55.3688 C.3       23 UNK        -0.0398 
    125 S125       -1.4064  -19.5593  -54.3741 S.3       23 UNK        -0.2404 
    126 C126       -1.7809  -18.9091  -52.7109 C.3       23 UNK        -0.0205 
    127 H127       -3.0226  -16.4616  -48.4428 H         1 UNK         0.0600 
    128 H128       -1.9595  -17.3691  -47.3672 H         1 UNK         0.0600 
    129 H129       -1.5603  -17.1980  -49.0869 H         1 UNK         0.0600 
    130 H130        0.3426  -15.9809  -49.0649 H         1 UNK         0.3000 
    131 H131        0.1910  -13.2048  -48.0962 H         1 UNK         0.0600 
    132 H132        2.0177  -12.7263  -49.6000 H         1 UNK         0.0800 
    133 H133        2.3411  -14.4154  -49.8843 H         1 UNK         0.0800 
    134 H134        2.2673  -14.7008  -52.2636 H         1 UNK         0.0800 
    135 H135        0.8324  -14.6602  -53.2446 H         1 UNK         0.0800 
    136 H136       -0.9646  -16.3175  -52.9751 H         1 UNK         0.1150 
    137 H137        0.0830  -19.9985  -51.0473 H         1 UNK         0.1150 
    138 H138        2.6155  -16.5679  -50.6279 H         1 UNK         0.1150 
    139 H139        2.1947  -20.2261  -49.9354 H         1 UNK         0.0800 
    140 H140        3.4011  -18.9854  -50.1391 H         1 UNK         0.0800 
    141 H141       -0.0984  -18.9267  -48.5617 H         1 UNK         0.0800 
    142 H142        0.1481  -18.5215  -46.8950 H         1 UNK         0.0800 
    143 H143        0.9836  -21.2652  -47.9190 H         1 UNK         0.0600 
    144 H144        0.9683  -20.1126  -45.3387 H         1 UNK         0.3000 
    145 H145        0.6143  -23.1557  -43.4451 H         1 UNK         0.0600 
    146 H146        2.6216  -22.1459  -42.3922 H         1 UNK         0.0600 
    147 H147        3.0214  -22.8523  -43.9507 H         1 UNK         0.0600 
    148 H148        2.8659  -21.1093  -43.7955 H         1 UNK         0.0600 
    149 H149        0.7252  -20.4482  -42.5922 H         1 UNK         0.3000 
    150 H150       -2.8221  -19.8272  -42.6997 H         1 UNK         0.0600 
    151 H151       -2.3458  -21.0147  -40.5561 H         1 UNK         0.0600 
    152 H152       -2.3673  -19.2719  -40.3367 H         1 UNK         0.0600 
    153 H153       -0.8319  -20.1347  -40.3920 H         1 UNK         0.0600 
    154 H154       -0.6889  -18.1416  -41.9060 H         1 UNK         0.3000 
    155 H155        0.0594  -16.7876  -45.1550 H         1 UNK         0.0600 
    156 H156       -1.1755  -15.6329  -42.5965 H         1 UNK         0.0600 
    157 H157       -0.3075  -14.7177  -43.8279 H         1 UNK         0.0600 
    158 H158       -1.8393  -15.4823  -44.2208 H         1 UNK         0.0600 
    159 H159        1.2646  -16.2877  -42.6464 H         1 UNK         0.3000 
    160 H160        3.6578  -18.9666  -42.6867 H         1 UNK         0.0600 
    161 H161        3.9004  -15.9382  -43.0557 H         1 UNK         0.0600 
    162 H162        4.7676  -17.2074  -43.9198 H         1 UNK         0.0600 
    163 H163        5.0918  -16.9365  -42.2200 H         1 UNK         0.0600 
    164 H164        2.9258  -16.8482  -40.8461 H         1 UNK         0.3000 
    165 H165        0.8120  -18.8711  -38.8236 H         1 UNK         0.0600 
    166 H166        2.4696  -18.2681  -37.0812 H         1 UNK         0.0600 
    167 H167        3.1112  -19.5378  -38.1112 H         1 UNK         0.0600 
    168 H168        3.6704  -17.8818  -38.3144 H         1 UNK         0.0600 
    169 H169        1.8524  -16.2115  -38.5423 H         1 UNK         0.3000 
    170 H170       -0.7454  -14.5559  -40.3430 H         1 UNK         0.0600 
    171 H171       -1.6919  -15.0466  -38.0796 H         1 UNK         0.0600 
    172 H172       -0.1292  -14.7095  -37.3443 H         1 UNK         0.0600 
    173 H173       -1.0209  -13.4262  -38.1627 H         1 UNK         0.0600 
    174 H174        1.3737  -13.4296  -38.9066 H         1 UNK         0.3000 
    175 H175        2.9567  -12.3007  -40.0296 H         1 UNK         0.0600 
    176 H176        4.6628  -14.6519  -41.0249 H         1 UNK         0.0600 
    177 H177        5.2667  -13.1831  -40.2633 H         1 UNK         0.0600 
    178 H178        4.2901  -14.3130  -39.3384 H         1 UNK         0.0600 
    179 H179        4.1089  -12.8902  -42.6312 H         1 UNK         0.3000 
    180 H180        2.0838  -10.5406  -44.4114 H         1 UNK         0.0600 
    181 H181        5.0453  -10.6174  -43.6439 H         1 UNK         0.0600 
    182 H182        3.9274   -9.3048  -43.3055 H         1 UNK         0.0600 
    183 H183        4.3344   -9.6969  -44.9685 H         1 UNK         0.0600 
    184 H184        2.5240  -12.1337  -45.8282 H         1 UNK         0.3000 
    185 H185        5.0558  -13.5295  -46.9421 H         1 UNK         0.0600 
    186 H186        5.4152  -15.5440  -45.5646 H         1 UNK         0.0600 
    187 H187        3.6934  -15.9123  -45.6035 H         1 UNK         0.0600 
    188 H188        4.6433  -15.9644  -47.0832 H         1 UNK         0.0600 
    189 H189        3.2936  -13.3425  -48.2024 H         1 UNK         0.3000 
    190 H190       -1.8243  -20.1376  -45.9487 H         1 UNK         0.3000 
    191 H191       -3.8263  -20.8214  -47.8160 H         1 UNK         0.0600 
    192 H192       -3.9861  -20.6547  -44.7626 H         1 UNK         0.0600 
    193 H193       -5.3609  -20.6496  -45.8602 H         1 UNK         0.0600 
    194 H194       -4.2139  -19.3180  -45.8881 H         1 UNK         0.0600 
    195 H195       -2.3762  -22.7841  -45.1809 H         1 UNK         0.3000 
    196 H196       -3.9816  -25.0983  -45.5330 H         1 UNK         0.0600 
    197 H197       -2.1682  -26.2272  -44.2335 H         1 UNK         0.0600 
    198 H198       -2.6353  -24.7008  -43.4991 H         1 UNK         0.0600 
    199 H199       -1.1396  -24.8123  -44.4231 H         1 UNK         0.0600 
    200 H200       -0.7876  -24.2176  -46.9545 H         1 UNK         0.3000 
    201 H201       -0.4299  -26.5646  -48.5109 H         1 UNK         0.0600 
    202 H202        1.4054  -24.9818  -47.9937 H         1 UNK         0.0600 
    203 H203        0.6283  -23.7201  -48.9466 H         1 UNK         0.0600 
    204 H204        1.2454  -25.1677  -49.7339 H         1 UNK         0.0600 
    205 H205       -2.0945  -23.5011  -49.2275 H         1 UNK         0.3000 
    206 H206       -2.8467  -24.1880  -51.9352 H         1 UNK         0.0600 
    207 H207       -2.5246  -21.8478  -51.1337 H         1 UNK         0.0600 
    208 H208       -4.1512  -22.0752  -51.7513 H         1 UNK         0.0600 
    209 H209       -3.8769  -22.0285  -50.0175 H         1 UNK         0.0600 
    210 H210       -3.9542  -25.4281  -49.0133 H         1 UNK         0.3000 
    211 H211       -5.7039  -26.5262  -48.2484 H         1 UNK         0.0600 
    212 H212       -6.4502  -27.0139  -51.1813 H         1 UNK         0.0600 
    213 H213       -6.9655  -27.9722  -49.7997 H         1 UNK         0.0600 
    214 H214       -5.2723  -27.9517  -50.2634 H         1 UNK         0.0600 
    215 H215       -5.9861  -23.7531  -48.3887 H         1 UNK         0.3000 
    216 H216       -7.3191  -22.0492  -48.1061 H         1 UNK         0.0600 
    217 H217       -9.5648  -22.3605  -47.1574 H         1 UNK         0.0600 
    218 H218       -8.4774  -23.5562  -46.4740 H         1 UNK         0.0600 
    219 H219       -9.6299  -24.0218  -47.7252 H         1 UNK         0.0600 
    220 H220       -7.1822  -23.3980  -50.9187 H         1 UNK         0.3000 
    221 H221       -9.4425  -21.9878  -52.2515 H         1 UNK         0.0600 
    222 H222       -7.3632  -23.9412  -53.3866 H         1 UNK         0.0600 
    223 H223       -8.9606  -24.4191  -52.8195 H         1 UNK         0.0600 
    224 H224       -8.8054  -23.3470  -54.1985 H         1 UNK         0.0600 
    225 H225       -8.6323  -21.0387  -54.4565 H         1 UNK         0.3000 
    226 H226       -6.6881  -18.9569  -53.9925 H         1 UNK         0.0600 
    227 H227       -8.0783  -19.8886  -56.5642 H         1 UNK         0.0600 
    228 H228       -8.6551  -18.6287  -55.4725 H         1 UNK         0.0600 
    229 H229       -7.1682  -18.3943  -56.3766 H         1 UNK         0.0600 
    230 H230       -6.5830  -22.1481  -55.3984 H         1 UNK         0.3000 
    231 H231       -5.0326  -23.5246  -56.1674 H         1 UNK         0.0600 
    232 H232       -2.9619  -23.6129  -54.7871 H         1 UNK         0.0600 
    233 H233       -4.3761  -23.2855  -53.8050 H         1 UNK         0.0600 
    234 H234       -3.2641  -21.9780  -54.2080 H         1 UNK         0.0600 
    235 H235       -5.1938  -20.9667  -57.7051 H         1 UNK         0.3000 
    236 H236       -4.3416  -19.9194  -59.4490 H         1 UNK         0.0600 
    237 H237       -2.9256  -21.1233  -61.0558 H         1 UNK         0.0600 
    238 H238       -2.4726  -22.3134  -59.8446 H         1 UNK         0.0600 
    239 H239       -4.1368  -22.2223  -60.4197 H         1 UNK         0.0600 
    240 H240       -3.2169  -19.3455  -56.8021 H         1 UNK         0.3000 
    241 H241       -0.4342  -18.7541  -57.0700 H         1 UNK         0.0600 
    242 H242       -3.1208  -16.9978  -58.4959 H         1 UNK         0.3800 
    243 H243       -2.2028  -15.5583  -58.8513 H         1 UNK         0.3800 
    244 H244       -0.7172  -17.3704  -55.0325 H         1 UNK         0.0800 
    245 H245       -2.4568  -17.5320  -55.1384 H         1 UNK         0.0800 
    246 H246       -2.6216  -18.2156  -52.7620 H         1 UNK         0.0800 
    247 H247       -2.1117  -19.7336  -52.0795 H         1 UNK         0.0800 
@<TRIPOS>BOND
     1    1    2 1    
     2    1  127 1    
     3    1  128 1    
     4    1  129 1    
     5    2    3 2    
     6    2    4 am   BACKBONE|DICT|INTERRES
     7    4    5 1    
     8    4  130 1    
     9    5    6 1    
    10    5   65 1    
    11    5  131 1    
    12    6    7 1    
    13    6  132 1    
    14    6  133 1    
    15    7    8 1    
    16    8    9 1    
    17    8  134 1    
    18    8  135 1    
    19    9   10 ar   
    20    9   14 ar   
    21   10   11 ar   
    22   10  136 1    
    23   11   12 ar   
    24   11  126 1    
    25   12   13 ar   
    26   12  137 1    
    27   13   14 ar   
    28   13   15 1    
    29   14  138 1    
    30   15   16 1    
    31   15  139 1    
    32   15  140 1    
    33   16   17 1    
    34   17   18 1    
    35   17  141 1    
    36   17  142 1    
    37   18   19 1    
    38   18   67 1    
    39   18  143 1    
    40   19   20 am   BACKBONE|DICT|INTERRES
    41   19  144 1    
    42   20   21 2    
    43   20   22 1    
    44   22   23 1    
    45   22   24 1    
    46   22  145 1    
    47   23  146 1    
    48   23  147 1    
    49   23  148 1    
    50   24   25 am   BACKBONE|DICT|INTERRES
    51   24  149 1    
    52   25   26 2    
    53   25   27 1    
    54   27   28 1    
    55   27   29 1    
    56   27  150 1    
    57   28  151 1    
    58   28  152 1    
    59   28  153 1    
    60   29   30 am   BACKBONE|DICT|INTERRES
    61   29  154 1    
    62   30   31 2    
    63   30   32 1    
    64   32   33 1    
    65   32   34 1    
    66   32  155 1    
    67   33  156 1    
    68   33  157 1    
    69   33  158 1    
    70   34   35 am   BACKBONE|DICT|INTERRES
    71   34  159 1    
    72   35   36 2    
    73   35   37 1    
    74   37   38 1    
    75   37   39 1    
    76   37  160 1    
    77   38  161 1    
    78   38  162 1    
    79   38  163 1    
    80   39   40 am   BACKBONE|DICT|INTERRES
    81   39  164 1    
    82   40   41 2    
    83   40   42 1    
    84   42   43 1    
    85   42   44 1    
    86   42  165 1    
    87   43  166 1    
    88   43  167 1    
    89   43  168 1    
    90   44   45 am   BACKBONE|DICT|INTERRES
    91   44  169 1    
    92   45   46 2    
    93   45   47 1    
    94   47   48 1    
    95   47   49 1    
    96   47  170 1    
    97   48  171 1    
    98   48  172 1    
    99   48  173 1    
   100   49   50 am   BACKBONE|DICT|INTERRES
   101   49  174 1    
   102   50   51 2    
   103   50   52 1    
   104   52   53 1    
   105   52   54 1    
   106   52  175 1    
   107   53  176 1    
   108   53  177 1    
   109   53  178 1    
   110   54   55 am   BACKBONE|DICT|INTERRES
   111   54  179 1    
   112   55   56 2    
   113   55   57 1    
   114   57   58 1    
   115   57   59 1    
   116   57  180 1    
   117   58  181 1    
   118   58  182 1    
   119   58  183 1    
   120   59   60 am   BACKBONE|DICT|INTERRES
   121   59  184 1    
   122   60   61 2    
   123   60   62 1    
   124   62   63 1    
   125   62   64 1    
   126   62  185 1    
   127   63  186 1    
   128   63  187 1    
   129   63  188 1    
   130   64   65 am   BACKBONE|DICT|INTERRES
   131   64  189 1    
   132   65   66 2    
   133   67   68 2    
   134   67   69 am   BACKBONE|DICT|INTERRES
   135   69   70 1    
   136   69  190 1    
   137   70   71 1    
   138   70   72 1    
   139   70  191 1    
   140   71  192 1    
   141   71  193 1    
   142   71  194 1    
   143   72   73 2    
   144   72   74 am   BACKBONE|DICT|INTERRES
   145   74   75 1    
   146   74  195 1    
   147   75   76 1    
   148   75   77 1    
   149   75  196 1    
   150   76  197 1    
   151   76  198 1    
   152   76  199 1    
   153   77   78 2    
   154   77   79 am   BACKBONE|DICT|INTERRES
   155   79   80 1    
   156   79  200 1    
   157   80   81 1    
   158   80   82 1    
   159   80  201 1    
   160   81  202 1    
   161   81  203 1    
   162   81  204 1    
   163   82   83 2    
   164   82   84 am   BACKBONE|DICT|INTERRES
   165   84   85 1    
   166   84  205 1    
   167   85   86 1    
   168   85   87 1    
   169   85  206 1    
   170   86  207 1    
   171   86  208 1    
   172   86  209 1    
   173   87   88 2    
   174   87   89 am   BACKBONE|DICT|INTERRES
   175   89   90 1    
   176   89  210 1    
   177   90   91 1    
   178   90   92 1    
   179   90  211 1    
   180   91  212 1    
   181   91  213 1    
   182   91  214 1    
   183   92   93 2    
   184   92   94 am   BACKBONE|DICT|INTERRES
   185   94   95 1    
   186   94  215 1    
   187   95   96 1    
   188   95   97 1    
   189   95  216 1    
   190   96  217 1    
   191   96  218 1    
   192   96  219 1    
   193   97   98 2    
   194   97   99 am   BACKBONE|DICT|INTERRES
   195   99  100 1    
   196   99  220 1    
   197  100  101 1    
   198  100  102 1    
   199  100  221 1    
   200  101  222 1    
   201  101  223 1    
   202  101  224 1    
   203  102  103 2    
   204  102  104 am   BACKBONE|DICT|INTERRES
   205  104  105 1    
   206  104  225 1    
   207  105  106 1    
   208  105  107 1    
   209  105  226 1    
   210  106  227 1    
   211  106  228 1    
   212  106  229 1    
   213  107  108 2    
   214  107  109 am   BACKBONE|DICT|INTERRES
   215  109  110 1    
   216  109  230 1    
   217  110  111 1    
   218  110  112 1    
   219  110  231 1    
   220  111  232 1    
   221  111  233 1    
   222  111  234 1    
   223  112  113 2    
   224  112  114 am   BACKBONE|DICT|INTERRES
   225  114  115 1    
   226  114  235 1    
   227  115  116 1    
   228  115  117 1    
   229  115  236 1    
   230  116  237 1    
   231  116  238 1    
   232  116  239 1    
   233  117  118 2    
   234  117  119 am   BACKBONE|DICT|INTERRES
   235  119  120 1    
   236  119  240 1    
   237  120  121 1    
   238  120  124 1    
   239  120  241 1    
   240  121  122 am   BACKBONE|DICT|INTERRES
   241  121  123 2    
   242  122  242 1    
   243  122  243 1    
   244  124  125 1    
   245  124  244 1    
   246  124  245 1    
   247  125  126 1    
   248  126  246 1    
   249  126  247 1    
@<TRIPOS>SUBSTRUCTURE
     1 UNK         1 GROUP             0       ****    0 ROOT    
