@<TRIPOS>MOLECULE
3R540
247   249    1
SMALL
USER_CHARGES


@<TRIPOS>ATOM
      1 CA          4.4010  -13.6750  -45.3887 C.3       0 UNK        -0.1800 
      2 C           3.0287  -14.0696  -45.9110 C.2       0 UNK         0.5000 
      3 O           2.0196  -13.7994  -45.2628 O.2       0 UNK        -0.5000 
      4 N           2.9719  -14.7263  -47.0746 N.am      1 UNK        -0.5000 
      5 CA          1.7194  -15.0751  -47.7555 C.3       1 UNK         0.1400 
      6 C6          1.8791  -16.2567  -48.7411 C.3       23 UNK        -0.0398 
      7 S7          3.2936  -16.1047  -49.8891 S.3       23 UNK        -0.2404 
      8 C8          4.0475  -17.7668  -49.7511 C.3       23 UNK        -0.0205 
      9 C9          3.1473  -18.9326  -50.1707 C.ar      23 UNK        -0.0193 
     10 C10         2.0907  -18.7682  -51.0766 C.ar      23 UNK        -0.1150 
     11 C11         1.2830  -19.8470  -51.4421 C.ar      23 UNK        -0.0193 
     12 C12         1.5552  -21.1084  -50.9090 C.ar      23 UNK        -0.1150 
     13 C13         2.6042  -21.3021  -50.0090 C.ar      23 UNK        -0.0193 
     14 C14         3.3999  -20.2072  -49.6487 C.ar      23 UNK        -0.1150 
     15 C15         2.8583  -22.7154  -49.4868 C.3       23 UNK        -0.0205 
     16 S16         3.5013  -22.8239  -47.7835 S.3       23 UNK        -0.2404 
     17 C17         2.1021  -22.1777  -46.8113 C.3       23 UNK        -0.0398 
     18 CA          1.4703  -23.2266  -45.8501 C.3       11 UNK         0.1400 
     19 N           1.1978  -22.6205  -44.5411 N.am      11 UNK        -0.5000 
     20 C           1.0924  -23.2554  -43.3669 C.2       10 UNK         0.5000 
     21 O           1.2062  -24.4735  -43.2356 O.2       10 UNK        -0.5000 
     22 CA          0.7597  -22.3780  -42.1464 C.3       10 UNK         0.1400 
     23 CB          2.0386  -21.7817  -41.5382 C.3       10 UNK        -0.1800 
     24 N          -0.1597  -21.2954  -42.5067 N.am      10 UNK        -0.5000 
     25 C          -1.4944  -21.4176  -42.5403 C.2       9 UNK         0.5000 
     26 O          -2.0919  -22.4325  -42.1829 O.2       9 UNK        -0.5000 
     27 CA         -2.3019  -20.2186  -43.0797 C.3       9 UNK         0.1400 
     28 CB         -2.6678  -19.2560  -41.9410 C.3       9 UNK        -0.1800 
     29 N          -1.6038  -19.4738  -44.1278 N.am      9 UNK        -0.5000 
     30 C          -1.2845  -19.9583  -45.3363 C.2       8 UNK         0.5000 
     31 O          -1.6392  -21.0597  -45.7477 O.2       8 UNK        -0.5000 
     32 CA         -0.3674  -19.0924  -46.2196 C.3       8 UNK         0.1400 
     33 CB         -1.1874  -18.2979  -47.2442 C.3       8 UNK        -0.1800 
     34 N           0.4979  -18.1916  -45.4493 N.am      8 UNK        -0.5000 
     35 C           1.4532  -18.6057  -44.6025 C.2       7 UNK         0.5000 
     36 O           1.6873  -19.7919  -44.3786 O.2       7 UNK        -0.5000 
     37 CA          2.2575  -17.5300  -43.8560 C.3       7 UNK         0.1400 
     38 CB          3.5589  -17.2305  -44.6104 C.3       7 UNK        -0.1800 
     39 N           1.4790  -16.3041  -43.6423 N.am      7 UNK        -0.5000 
     40 C           0.5645  -16.1896  -42.6678 C.2       6 UNK         0.5000 
     41 O           0.3367  -17.0731  -41.8408 O.2       6 UNK        -0.5000 
     42 CA         -0.2692  -14.8962  -42.6365 C.3       6 UNK         0.1400 
     43 CB          0.5454  -13.7256  -42.0659 C.3       6 UNK        -0.1800 
     44 N          -0.8304  -14.5313  -43.9402 N.am      6 UNK        -0.5000 
     45 C          -1.6958  -15.2866  -44.6348 C.2       5 UNK         0.5000 
     46 O          -2.0439  -16.4124  -44.2752 O.2       5 UNK        -0.5000 
     47 CA         -2.2400  -14.7193  -45.9648 C.3       5 UNK         0.1400 
     48 CB         -3.6606  -15.2309  -46.2969 C.3       5 UNK        -0.1800 
     49 N          -2.1775  -13.2565  -46.0739 N.am      5 UNK        -0.5000 
     50 C          -2.8561  -12.3647  -45.3342 C.2       4 UNK         0.5000 
     51 O          -3.6070  -12.6731  -44.4070 O.2       4 UNK        -0.5000 
     52 CA         -2.6603  -10.8785  -45.7064 C.3       4 UNK         0.1400 
     53 CB         -3.2242   -9.9124  -44.6431 C.3       4 UNK        -0.1800 
     54 N          -1.2712  -10.5300  -46.0235 N.am      4 UNK        -0.5000 
     55 C          -0.1993  -10.6626  -45.2302 C.2       3 UNK         0.5000 
     56 O          -0.2343  -11.1749  -44.1112 O.2       3 UNK        -0.5000 
     57 CA          1.1331  -10.1487  -45.8115 C.3       3 UNK         0.1400 
     58 CB          2.2974  -10.2414  -44.8083 C.3       3 UNK        -0.1800 
     59 N           1.4931  -10.8793  -47.0258 N.am      3 UNK        -0.5000 
     60 C           1.0074  -10.6493  -48.2539 C.2       2 UNK         0.5000 
     61 O           0.1948   -9.7586  -48.5054 O.2       2 UNK        -0.5000 
     62 CA          1.4833  -11.5875  -49.3812 C.3       2 UNK         0.1400 
     63 CB          2.6456  -10.9497  -50.1567 C.3       2 UNK        -0.1800 
     64 N           1.9047  -12.8984  -48.8835 N.am      2 UNK        -0.5000 
     65 C           1.0715  -13.8355  -48.4082 C.2       1 UNK         0.5000 
     66 O          -0.1539  -13.7189  -48.4094 O.2       1 UNK        -0.5000 
     67 C           0.2251  -23.9055  -46.4784 C.2       11 UNK         0.5000 
     68 O           0.2842  -24.3136  -47.6386 O.2       11 UNK        -0.5000 
     69 N          -0.8837  -23.9946  -45.7268 N.am      12 UNK        -0.5000 
     70 CA         -2.2405  -24.3483  -46.1585 C.3       12 UNK         0.1400 
     71 CB         -3.1583  -24.4141  -44.9305 C.3       12 UNK        -0.1800 
     72 C          -2.3795  -25.6281  -47.0006 C.2       12 UNK         0.5000 
     73 O          -3.2402  -25.6721  -47.8801 O.2       12 UNK        -0.5000 
     74 N          -1.5251  -26.6262  -46.7436 N.am      13 UNK        -0.5000 
     75 CA         -1.4699  -27.8845  -47.4904 C.3       13 UNK         0.1400 
     76 CB         -0.5255  -28.8558  -46.7663 C.3       13 UNK        -0.1800 
     77 C          -1.0393  -27.7094  -48.9610 C.2       13 UNK         0.5000 
     78 O          -1.4962  -28.4684  -49.8163 O.2       13 UNK        -0.5000 
     79 N          -0.1836  -26.7139  -49.2270 N.am      14 UNK        -0.5000 
     80 CA          0.2966  -26.3567  -50.5621 C.3       14 UNK         0.1400 
     81 CB          1.8191  -26.1568  -50.5074 C.3       14 UNK        -0.1800 
     82 C          -0.4180  -25.1086  -51.1136 C.2       14 UNK         0.5000 
     83 O          -0.5566  -24.9863  -52.3294 O.2       14 UNK        -0.5000 
     84 N          -0.8943  -24.2263  -50.2231 N.am      15 UNK        -0.5000 
     85 CA         -1.6497  -23.0110  -50.5447 C.3       15 UNK         0.1400 
     86 CB         -1.4627  -21.9902  -49.4080 C.3       15 UNK        -0.1800 
     87 C          -3.1476  -23.2562  -50.8220 C.2       15 UNK         0.5000 
     88 O          -3.8954  -22.2849  -50.9229 O.2       15 UNK        -0.5000 
     89 N          -3.5688  -24.5262  -50.9162 N.am      16 UNK        -0.5000 
     90 CA         -4.9230  -24.9902  -51.2387 C.3       16 UNK         0.1400 
     91 CB         -5.2856  -24.6246  -52.6931 C.3       16 UNK        -0.1800 
     92 C          -5.9703  -24.5031  -50.2175 C.2       16 UNK         0.5000 
     93 O          -6.9517  -23.8574  -50.5883 O.2       16 UNK        -0.5000 
     94 N          -5.7111  -24.8116  -48.9393 N.am      17 UNK        -0.5000 
     95 CA         -6.4756  -24.4028  -47.7569 C.3       17 UNK         0.1400 
     96 CB         -7.9261  -24.9296  -47.7996 C.3       17 UNK        -0.1800 
     97 C          -6.3734  -22.8866  -47.4944 C.2       17 UNK         0.5000 
     98 O          -7.3576  -22.2560  -47.1050 O.2       17 UNK        -0.5000 
     99 N          -5.1611  -22.3476  -47.6979 N.am      18 UNK        -0.5000 
    100 CA        -4.7588  -20.9537  -47.4776 C.3       18 UNK         0.1400 
    101 CB        -4.8828  -20.5817  -45.9855 C.3       18 UNK        -0.1800 
    102 C         -5.4875  -19.9631  -48.4075 C.2       18 UNK         0.5000 
    103 O         -5.9008  -18.8881  -47.9678 O.2       18 UNK        -0.5000 
    104 N         -5.6347  -20.3411  -49.6829 N.am      19 UNK        -0.5000 
    105 CA        -6.2204  -19.5032  -50.7220 C.3       19 UNK         0.1400 
    106 CB        -6.6652  -20.3933  -51.8937 C.3       19 UNK        -0.1800 
    107 C         -5.1993  -18.4615  -51.2032 C.2       19 UNK         0.5000 
    108 O         -4.0437  -18.8103  -51.4541 O.2       19 UNK        -0.5000 
    109 N         -5.6531  -17.2159  -51.3946 N.am      20 UNK        -0.5000 
    110 CA        -4.8475  -16.1208  -51.9492 C.3       20 UNK         0.1400 
    111 CB        -5.6170  -14.8002  -51.7964 C.3       20 UNK        -0.1800 
    112 C         -4.4496  -16.3526  -53.4219 C.2       20 UNK         0.5000 
    113 O         -3.4111  -15.8587  -53.8609 O.2       20 UNK        -0.5000 
    114 N         -5.2692  -17.1311  -54.1421 N.am      21 UNK        -0.5000 
    115 CA        -5.0106  -17.6050  -55.5015 C.3       21 UNK         0.1400 
    116 CB        -6.3480  -18.0231  -56.1334 C.3       21 UNK        -0.1800 
    117 C         -3.9990  -18.7698  -55.5619 C.2       21 UNK         0.5000 
    118 O         -3.5421  -19.1020  -56.6560 O.2       21 UNK        -0.5000 
    119 N         -3.6720  -19.3745  -54.4086 N.am      22 UNK        -0.5000 
    120 CA        -2.7429  -20.5078  -54.2553 C.3       22 UNK         0.1400 
    121 C         -3.2707  -21.8693  -54.8085 C.2       22 UNK         0.5000 
    122 N         -4.5536  -22.0023  -55.1248 N.am      22 UNK        -0.7600 
    123 O         -2.5178  -22.8291  -54.9398 O.2       22 UNK        -0.5000 
    124 C124       -1.3083  -20.1506  -54.7475 C.3       23 UNK        -0.0398 
    125 S125        0.0188  -20.8638  -53.7219 S.3       23 UNK        -0.2404 
    126 C126        0.1024  -19.6303  -52.3823 C.3       23 UNK        -0.0205 
    127 H127        5.1999  -14.1709  -45.9403 H         1 UNK         0.0600 
    128 H128        4.5392  -12.5976  -45.4769 H         1 UNK         0.0600 
    129 H129        4.4950  -13.9454  -44.3371 H         1 UNK         0.0600 
    130 H130        3.8215  -14.9561  -47.5722 H         1 UNK         0.3000 
    131 H131        1.0126  -15.4103  -46.9934 H         1 UNK         0.0600 
    132 H132        1.9983  -17.1738  -48.1624 H         1 UNK         0.0800 
    133 H133        0.9701  -16.4009  -49.3279 H         1 UNK         0.0800 
    134 H134        4.9459  -17.7895  -50.3689 H         1 UNK         0.0800 
    135 H135        4.3785  -17.9080  -48.7208 H         1 UNK         0.0800 
    136 H136        1.8855  -17.7963  -51.5005 H         1 UNK         0.1150 
    137 H137        0.9478  -21.9512  -51.2020 H         1 UNK         0.1150 
    138 H138        4.2247  -20.3464  -48.9643 H         1 UNK         0.1150 
    139 H139        1.9308  -23.2857  -49.5287 H         1 UNK         0.0800 
    140 H140        3.5606  -23.2108  -50.1580 H         1 UNK         0.0800 
    141 H141        1.3578  -21.7294  -47.4704 H         1 UNK         0.0800 
    142 H142        2.5197  -21.3432  -46.2487 H         1 UNK         0.0800 
    143 H143        2.1957  -24.0249  -45.6814 H         1 UNK         0.0600 
    144 H144        1.1469  -21.6061  -44.5293 H         1 UNK         0.3000 
    145 H145        0.2945  -23.0142  -41.3902 H         1 UNK         0.0600 
    146 H146        1.8119  -21.1812  -40.6572 H         1 UNK         0.0600 
    147 H147        2.7246  -22.5703  -41.2265 H         1 UNK         0.0600 
    148 H148        2.5709  -21.1473  -42.2474 H         1 UNK         0.0600 
    149 H149        0.2611  -20.4423  -42.8508 H         1 UNK         0.3000 
    150 H150       -3.2281  -20.6096  -43.5016 H         1 UNK         0.0600 
    151 H151       -3.2314  -19.7692  -41.1609 H         1 UNK         0.0600 
    152 H152       -3.2862  -18.4342  -42.3033 H         1 UNK         0.0600 
    153 H153       -1.7794  -18.8262  -41.4769 H         1 UNK         0.0600 
    154 H154       -1.3375  -18.5223  -43.9061 H         1 UNK         0.3000 
    155 H155        0.2810  -19.7711  -46.7749 H         1 UNK         0.0600 
    156 H156       -1.7794  -18.9668  -47.8705 H         1 UNK         0.0600 
    157 H157       -1.8788  -17.6155  -46.7562 H         1 UNK         0.0600 
    158 H158       -0.5476  -17.7184  -47.9075 H         1 UNK         0.0600 
    159 H159        0.3181  -17.2033  -45.5223 H         1 UNK         0.3000 
    160 H160        2.5346  -17.9413  -42.8827 H         1 UNK         0.0600 
    161 H161        3.3735  -16.9669  -45.6503 H         1 UNK         0.0600 
    162 H162        4.2067  -18.1081  -44.6175 H         1 UNK         0.0600 
    163 H163        4.1175  -16.4229  -44.1384 H         1 UNK         0.0600 
    164 H164        1.6323  -15.5162  -44.2637 H         1 UNK         0.3000 
    165 H165       -1.1104  -15.0718  -41.9627 H         1 UNK         0.0600 
    166 H166       -0.0836  -12.8483  -41.9148 H         1 UNK         0.0600 
    167 H167        0.9781  -13.9838  -41.0986 H         1 UNK         0.0600 
    168 H168        1.3640  -13.4380  -42.7257 H         1 UNK         0.0600 
    169 H169       -0.5713  -13.6221  -44.3015 H         1 UNK         0.3000 
    170 H170       -1.5759  -15.1086  -46.7354 H         1 UNK         0.0600 
    171 H171       -4.3892  -14.9246  -45.5463 H         1 UNK         0.0600 
    172 H172       -3.9971  -14.8556  -47.2633 H         1 UNK         0.0600 
    173 H173       -3.6981  -16.3188  -46.3465 H         1 UNK         0.0600 
    174 H174       -1.5679  -12.9107  -46.8051 H         1 UNK         0.3000 
    175 H175       -3.2298  -10.7226  -46.6236 H         1 UNK         0.0600 
    176 H176       -3.0980   -8.8735  -44.9476 H         1 UNK         0.0600 
    177 H177       -2.7322  -10.0412  -43.6784 H         1 UNK         0.0600 
    178 H178       -4.2916  -10.0763  -44.4907 H         1 UNK         0.0600 
    179 H179       -1.1125  -10.1326  -46.9437 H         1 UNK         0.3000 
    180 H180        0.9956   -9.0939  -46.0585 H         1 UNK         0.0600 
    181 H181        2.4754  -11.2670  -44.4850 H         1 UNK         0.0600 
    182 H182        2.0882   -9.6510  -43.9155 H         1 UNK         0.0600 
    183 H183        3.2227   -9.8596  -45.2397 H         1 UNK         0.0600 
    184 H184        2.1046  -11.6709  -46.8984 H         1 UNK         0.3000 
    185 H185        0.6477  -11.7301  -50.0699 H         1 UNK         0.0600 
    186 H186        3.5167  -10.7909  -49.5198 H         1 UNK         0.0600 
    187 H187        2.9514  -11.5765  -50.9946 H         1 UNK         0.0600 
    188 H188        2.3568   -9.9806  -50.5658 H         1 UNK         0.0600 
    189 H189        2.8979  -13.0766  -48.8549 H         1 UNK         0.3000 
    190 H190       -0.8185  -23.6163  -44.7938 H         1 UNK         0.3000 
    191 H191       -2.5958  -23.5262  -46.7769 H         1 UNK         0.0600 
    192 H192       -3.2230  -23.4428  -44.4407 H         1 UNK         0.0600 
    193 H193       -4.1736  -24.6997  -45.2075 H         1 UNK         0.0600 
    194 H194       -2.7995  -25.1379  -44.1979 H         1 UNK         0.0600 
    195 H195       -0.8430  -26.4969  -46.0106 H         1 UNK         0.3000 
    196 H196       -2.4720  -28.3184  -47.4908 H         1 UNK         0.0600 
    197 H197       -0.4794  -29.8149  -47.2839 H         1 UNK         0.0600 
    198 H198       -0.8656  -29.0528  -45.7495 H         1 UNK         0.0600 
    199 H199        0.4907  -28.4631  -46.7113 H         1 UNK         0.0600 
    200 H200        0.1042  -26.1030  -48.4695 H         1 UNK         0.3000 
    201 H201        0.0991  -27.1676  -51.2664 H         1 UNK         0.0600 
    202 H202        2.3282  -27.1123  -50.3807 H         1 UNK         0.0600 
    203 H203        2.1144  -25.5208  -49.6745 H         1 UNK         0.0600 
    204 H204        2.1978  -25.7069  -51.4263 H         1 UNK         0.0600 
    205 H205       -0.6746  -24.3701  -49.2419 H         1 UNK         0.3000 
    206 H206       -1.2384  -22.5783  -51.4579 H         1 UNK         0.0600 
    207 H207       -0.4126  -21.8438  -49.1634 H         1 UNK         0.0600 
    208 H208       -1.8699  -21.0162  -49.6830 H         1 UNK         0.0600 
    209 H209       -1.9622  -22.3092  -48.4972 H         1 UNK         0.0600 
    210 H210       -2.8825  -25.2504  -50.7626 H         1 UNK         0.3000 
    211 H211       -4.9028  -26.0787  -51.1682 H         1 UNK         0.0600 
    212 H212       -5.3771  -23.5465  -52.8277 H         1 UNK         0.0600 
    213 H213       -6.2377  -25.0710  -52.9818 H         1 UNK         0.0600 
    214 H214       -4.5303  -24.9850  -53.3916 H         1 UNK         0.0600 
    215 H215       -4.8432  -25.3034  -48.7332 H         1 UNK         0.3000 
    216 H216       -5.9875  -24.8849  -46.9091 H         1 UNK         0.0600 
    217 H217       -8.4263  -24.7650  -46.8447 H         1 UNK         0.0600 
    218 H218       -7.9512  -26.0011  -47.9976 H         1 UNK         0.0600 
    219 H219       -8.5209  -24.4315  -48.5654 H         1 UNK         0.0600 
    220 H220       -4.4501  -22.9542  -48.0769 H         1 UNK         0.3000 
    221 H221       -3.7027  -20.8920  -47.7391 H         1 UNK         0.0600 
    222 H222       -5.9227  -20.5000  -45.6685 H         1 UNK         0.0600 
    223 H223       -4.4013  -21.3311  -45.3589 H         1 UNK         0.0600 
    224 H224       -4.4026  -19.6241  -45.7809 H         1 UNK         0.0600 
    225 H225       -5.1810  -21.1915  -50.0065 H         1 UNK         0.3000 
    226 H226       -7.0995  -18.9958  -50.3192 H         1 UNK         0.0600 
    227 H227       -7.3876  -21.1415  -51.5665 H         1 UNK         0.0600 
    228 H228       -7.1396  -19.8031  -52.6784 H         1 UNK         0.0600 
    229 H229       -5.8226  -20.9217  -52.3423 H         1 UNK         0.0600 
    230 H230       -6.6125  -16.9984  -51.1650 H         1 UNK         0.3000 
    231 H231       -3.9261  -16.0496  -51.3672 H         1 UNK         0.0600 
    232 H232       -6.5610  -14.8180  -52.3425 H         1 UNK         0.0600 
    233 H233       -5.0328  -13.9617  -52.1778 H         1 UNK         0.0600 
    234 H234       -5.8373  -14.5908  -50.7494 H         1 UNK         0.0600 
    235 H235       -6.1091  -17.4722  -53.6991 H         1 UNK         0.3000 
    236 H236       -4.5971  -16.7814  -56.0874 H         1 UNK         0.0600 
    237 H237       -7.0516  -17.1906  -56.1542 H         1 UNK         0.0600 
    238 H238       -6.2090  -18.3531  -57.1638 H         1 UNK         0.0600 
    239 H239       -6.8140  -18.8434  -55.5861 H         1 UNK         0.0600 
    240 H240       -4.0593  -19.0244  -53.5408 H         1 UNK         0.3000 
    241 H241       -2.6983  -20.6594  -53.1762 H         1 UNK         0.0600 
    242 H242       -5.1897  -21.2289  -55.0280 H         1 UNK         0.3800 
    243 H243       -4.8842  -22.8848  -55.4803 H         1 UNK         0.3800 
    244 H244       -1.1637  -19.0694  -54.7584 H         1 UNK         0.0800 
    245 H245       -1.1623  -20.4660  -55.7820 H         1 UNK         0.0800 
    246 H246        0.1531  -18.6339  -52.8238 H         1 UNK         0.0800 
    247 H247       -0.8205  -19.6663  -51.8014 H         1 UNK         0.0800 
@<TRIPOS>BOND
     1    1    2 1    
     2    1  127 1    
     3    1  128 1    
     4    1  129 1    
     5    2    3 2    
     6    2    4 am   BACKBONE|DICT|INTERRES
     7    4    5 1    
     8    4  130 1    
     9    5    6 1    
    10    5   65 1    
    11    5  131 1    
    12    6    7 1    
    13    6  132 1    
    14    6  133 1    
    15    7    8 1    
    16    8    9 1    
    17    8  134 1    
    18    8  135 1    
    19    9   10 ar   
    20    9   14 ar   
    21   10   11 ar   
    22   10  136 1    
    23   11   12 ar   
    24   11  126 1    
    25   12   13 ar   
    26   12  137 1    
    27   13   14 ar   
    28   13   15 1    
    29   14  138 1    
    30   15   16 1    
    31   15  139 1    
    32   15  140 1    
    33   16   17 1    
    34   17   18 1    
    35   17  141 1    
    36   17  142 1    
    37   18   19 1    
    38   18   67 1    
    39   18  143 1    
    40   19   20 am   BACKBONE|DICT|INTERRES
    41   19  144 1    
    42   20   21 2    
    43   20   22 1    
    44   22   23 1    
    45   22   24 1    
    46   22  145 1    
    47   23  146 1    
    48   23  147 1    
    49   23  148 1    
    50   24   25 am   BACKBONE|DICT|INTERRES
    51   24  149 1    
    52   25   26 2    
    53   25   27 1    
    54   27   28 1    
    55   27   29 1    
    56   27  150 1    
    57   28  151 1    
    58   28  152 1    
    59   28  153 1    
    60   29   30 am   BACKBONE|DICT|INTERRES
    61   29  154 1    
    62   30   31 2    
    63   30   32 1    
    64   32   33 1    
    65   32   34 1    
    66   32  155 1    
    67   33  156 1    
    68   33  157 1    
    69   33  158 1    
    70   34   35 am   BACKBONE|DICT|INTERRES
    71   34  159 1    
    72   35   36 2    
    73   35   37 1    
    74   37   38 1    
    75   37   39 1    
    76   37  160 1    
    77   38  161 1    
    78   38  162 1    
    79   38  163 1    
    80   39   40 am   BACKBONE|DICT|INTERRES
    81   39  164 1    
    82   40   41 2    
    83   40   42 1    
    84   42   43 1    
    85   42   44 1    
    86   42  165 1    
    87   43  166 1    
    88   43  167 1    
    89   43  168 1    
    90   44   45 am   BACKBONE|DICT|INTERRES
    91   44  169 1    
    92   45   46 2    
    93   45   47 1    
    94   47   48 1    
    95   47   49 1    
    96   47  170 1    
    97   48  171 1    
    98   48  172 1    
    99   48  173 1    
   100   49   50 am   BACKBONE|DICT|INTERRES
   101   49  174 1    
   102   50   51 2    
   103   50   52 1    
   104   52   53 1    
   105   52   54 1    
   106   52  175 1    
   107   53  176 1    
   108   53  177 1    
   109   53  178 1    
   110   54   55 am   BACKBONE|DICT|INTERRES
   111   54  179 1    
   112   55   56 2    
   113   55   57 1    
   114   57   58 1    
   115   57   59 1    
   116   57  180 1    
   117   58  181 1    
   118   58  182 1    
   119   58  183 1    
   120   59   60 am   BACKBONE|DICT|INTERRES
   121   59  184 1    
   122   60   61 2    
   123   60   62 1    
   124   62   63 1    
   125   62   64 1    
   126   62  185 1    
   127   63  186 1    
   128   63  187 1    
   129   63  188 1    
   130   64   65 am   BACKBONE|DICT|INTERRES
   131   64  189 1    
   132   65   66 2    
   133   67   68 2    
   134   67   69 am   BACKBONE|DICT|INTERRES
   135   69   70 1    
   136   69  190 1    
   137   70   71 1    
   138   70   72 1    
   139   70  191 1    
   140   71  192 1    
   141   71  193 1    
   142   71  194 1    
   143   72   73 2    
   144   72   74 am   BACKBONE|DICT|INTERRES
   145   74   75 1    
   146   74  195 1    
   147   75   76 1    
   148   75   77 1    
   149   75  196 1    
   150   76  197 1    
   151   76  198 1    
   152   76  199 1    
   153   77   78 2    
   154   77   79 am   BACKBONE|DICT|INTERRES
   155   79   80 1    
   156   79  200 1    
   157   80   81 1    
   158   80   82 1    
   159   80  201 1    
   160   81  202 1    
   161   81  203 1    
   162   81  204 1    
   163   82   83 2    
   164   82   84 am   BACKBONE|DICT|INTERRES
   165   84   85 1    
   166   84  205 1    
   167   85   86 1    
   168   85   87 1    
   169   85  206 1    
   170   86  207 1    
   171   86  208 1    
   172   86  209 1    
   173   87   88 2    
   174   87   89 am   BACKBONE|DICT|INTERRES
   175   89   90 1    
   176   89  210 1    
   177   90   91 1    
   178   90   92 1    
   179   90  211 1    
   180   91  212 1    
   181   91  213 1    
   182   91  214 1    
   183   92   93 2    
   184   92   94 am   BACKBONE|DICT|INTERRES
   185   94   95 1    
   186   94  215 1    
   187   95   96 1    
   188   95   97 1    
   189   95  216 1    
   190   96  217 1    
   191   96  218 1    
   192   96  219 1    
   193   97   98 2    
   194   97   99 am   BACKBONE|DICT|INTERRES
   195   99  100 1    
   196   99  220 1    
   197  100  101 1    
   198  100  102 1    
   199  100  221 1    
   200  101  222 1    
   201  101  223 1    
   202  101  224 1    
   203  102  103 2    
   204  102  104 am   BACKBONE|DICT|INTERRES
   205  104  105 1    
   206  104  225 1    
   207  105  106 1    
   208  105  107 1    
   209  105  226 1    
   210  106  227 1    
   211  106  228 1    
   212  106  229 1    
   213  107  108 2    
   214  107  109 am   BACKBONE|DICT|INTERRES
   215  109  110 1    
   216  109  230 1    
   217  110  111 1    
   218  110  112 1    
   219  110  231 1    
   220  111  232 1    
   221  111  233 1    
   222  111  234 1    
   223  112  113 2    
   224  112  114 am   BACKBONE|DICT|INTERRES
   225  114  115 1    
   226  114  235 1    
   227  115  116 1    
   228  115  117 1    
   229  115  236 1    
   230  116  237 1    
   231  116  238 1    
   232  116  239 1    
   233  117  118 2    
   234  117  119 am   BACKBONE|DICT|INTERRES
   235  119  120 1    
   236  119  240 1    
   237  120  121 1    
   238  120  124 1    
   239  120  241 1    
   240  121  122 am   BACKBONE|DICT|INTERRES
   241  121  123 2    
   242  122  242 1    
   243  122  243 1    
   244  124  125 1    
   245  124  244 1    
   246  124  245 1    
   247  125  126 1    
   248  126  246 1    
   249  126  247 1    
@<TRIPOS>SUBSTRUCTURE
     1 UNK         1 GROUP             0       ****    0 ROOT    
