@<TRIPOS>MOLECULE
3R540
247   249    1
SMALL
USER_CHARGES


@<TRIPOS>ATOM
      1 CA         -1.4250  -14.4758  -51.5787 C.3       0 UNK        -0.1800 
      2 C          -0.5982  -14.1021  -50.3574 C.2       0 UNK         0.5000 
      3 O           0.4026  -13.3967  -50.4889 O.2       0 UNK        -0.5000 
      4 N          -1.0087  -14.5686  -49.1756 N.am      1 UNK        -0.5000 
      5 CA         -0.3204  -14.3555  -47.9060 C.3       1 UNK         0.1400 
      6 C6          0.9210  -15.2700  -47.7038 C.3       23 UNK        -0.0398 
      7 S7          0.6908  -17.0227  -48.1747 S.3       23 UNK        -0.2404 
      8 C8          2.3779  -17.4642  -48.6822 C.3       23 UNK        -0.0205 
      9 C9          2.5005  -18.9516  -48.9755 C.ar      23 UNK        -0.0193 
     10 C10         2.1444  -19.4555  -50.2287 C.ar      23 UNK        -0.1150 
     11 C11         2.2824  -20.8176  -50.5122 C.ar      23 UNK        -0.0193 
     12 C12         2.7760  -21.6802  -49.5272 C.ar      23 UNK        -0.1150 
     13 C13         3.1314  -21.1900  -48.2646 C.ar      23 UNK        -0.0193 
     14 C14         2.9956  -19.8229  -48.0018 C.ar      23 UNK        -0.1150 
     15 C15         3.7119  -22.1042  -47.1873 C.3       23 UNK        -0.0205 
     16 S16         2.8122  -23.6720  -46.9516 S.3       23 UNK        -0.2404 
     17 C17         1.1513  -23.0665  -46.5217 C.3       23 UNK        -0.0398 
     18 CA          0.4396  -23.9575  -45.4736 C.3       11 UNK         0.1400 
     19 N           0.9645  -23.7744  -44.1139 N.am      11 UNK        -0.5000 
     20 C           0.6451  -24.5710  -43.0806 C.2       10 UNK         0.5000 
     21 O          -0.0337  -25.5921  -43.1992 O.2       10 UNK        -0.5000 
     22 CA          1.1365  -24.1733  -41.6725 C.3       10 UNK         0.1400 
     23 CB          2.3807  -24.9904  -41.2917 C.3       10 UNK        -0.1800 
     24 N           1.4390  -22.7522  -41.4973 N.am      10 UNK        -0.5000 
     25 C           0.5999  -21.7263  -41.6955 C.2       9 UNK         0.5000 
     26 O          -0.5717  -21.8529  -42.0521 O.2       9 UNK        -0.5000 
     27 CA          1.1814  -20.3120  -41.5062 C.3       9 UNK         0.1400 
     28 CB          0.9111  -19.8166  -40.0778 C.3       9 UNK        -0.1800 
     29 N           2.6135  -20.1615  -41.7948 N.am      9 UNK        -0.5000 
     30 C           3.2925  -20.5947  -42.8701 C.2       8 UNK         0.5000 
     31 O           2.8069  -21.3005  -43.7564 O.2       8 UNK        -0.5000 
     32 CA          4.7649  -20.1520  -42.9443 C.3       8 UNK         0.1400 
     33 CB          5.4064  -20.3993  -44.3194 C.3       8 UNK        -0.1800 
     34 N           4.8639  -18.7283  -42.6322 N.am      8 UNK        -0.5000 
     35 C           5.5279  -18.2007  -41.5962 C.2       7 UNK         0.5000 
     36 O           6.1465  -18.8738  -40.7710 O.2       7 UNK        -0.5000 
     37 CA          5.5055  -16.6655  -41.4431 C.3       7 UNK         0.1400 
     38 CB          6.8703  -16.0688  -41.8216 C.3       7 UNK        -0.1800 
     39 N           4.4698  -16.0026  -42.2382 N.am      7 UNK        -0.5000 
     40 C           3.1548  -16.0550  -41.9901 C.2       6 UNK         0.5000 
     41 O           2.6695  -16.6695  -41.0392 O.2       6 UNK        -0.5000 
     42 CA          2.2215  -15.3063  -42.9660 C.3       6 UNK         0.1400 
     43 CB          2.9522  -14.5302  -44.0853 C.3       6 UNK        -0.1800 
     44 N           1.2070  -16.1846  -43.5504 N.am      6 UNK        -0.5000 
     45 C           1.4095  -17.3241  -44.2259 C.2       5 UNK         0.5000 
     46 O           2.5287  -17.7943  -44.4412 O.2       5 UNK        -0.5000 
     47 CA          0.1473  -18.0457  -44.7345 C.3       5 UNK         0.1400 
     48 CB          0.4134  -19.4825  -45.2302 C.3       5 UNK        -0.1800 
     49 N          -0.9144  -18.0197  -43.7309 N.am      5 UNK        -0.5000 
     50 C          -2.1948  -18.3347  -43.9490 C.2       4 UNK         0.5000 
     51 O          -2.6317  -18.7268  -45.0301 O.2       4 UNK        -0.5000 
     52 CA         -3.1683  -18.1693  -42.7693 C.3       4 UNK         0.1400 
     53 CB         -2.8981  -19.1910  -41.6471 C.3       4 UNK        -0.1800 
     54 N          -3.2213  -16.7916  -42.2693 N.am      4 UNK        -0.5000 
     55 C          -2.2776  -16.0996  -41.6160 C.2       3 UNK         0.5000 
     56 O          -1.1937  -16.5685  -41.2633 O.2       3 UNK        -0.5000 
     57 CA         -2.5985  -14.6065  -41.4067 C.3       3 UNK         0.1400 
     58 CB         -1.5227  -13.8603  -40.5885 C.3       3 UNK        -0.1800 
     59 N          -2.8517  -13.9379  -42.6920 N.am      3 UNK        -0.5000 
     60 C          -1.9861  -13.8148  -43.7100 C.2       2 UNK         0.5000 
     61 O          -0.8158  -14.1950  -43.6613 O.2       2 UNK        -0.5000 
     62 CA         -2.5206  -13.1351  -44.9869 C.3       2 UNK         0.1400 
     63 CB         -2.7490  -11.6333  -44.7476 C.3       2 UNK        -0.1800 
     64 N          -1.6141  -13.2871  -46.1281 N.am      2 UNK        -0.5000 
     65 C          -1.3520  -14.4365  -46.7657 C.2       1 UNK         0.5000 
     66 O          -1.9032  -15.5047  -46.4988 O.2       1 UNK        -0.5000 
     67 C          -1.0831  -23.7187  -45.5543 C.2       11 UNK         0.5000 
     68 O          -1.7421  -24.3802  -46.3574 O.2       11 UNK        -0.5000 
     69 N          -1.6025  -22.7664  -44.7579 N.am      12 UNK        -0.5000 
     70 CA         -2.9883  -22.2714  -44.7701 C.3       12 UNK         0.1400 
     71 CB         -3.9335  -23.3122  -44.1379 C.3       12 UNK        -0.1800 
     72 C          -3.4470  -21.8064  -46.1736 C.2       12 UNK         0.5000 
     73 O          -4.5782  -22.0692  -46.5853 O.2       12 UNK        -0.5000 
     74 N          -2.5174  -21.1681  -46.8956 N.am      13 UNK        -0.5000 
     75 CA         -2.6272  -20.7882  -48.2988 C.3       13 UNK         0.1400 
     76 CB         -1.2439  -20.3436  -48.7967 C.3       13 UNK        -0.1800 
     77 C          -3.6768  -19.7012  -48.5765 C.2       13 UNK         0.5000 
     78 O          -4.3328  -19.7654  -49.6157 O.2       13 UNK        -0.5000 
     79 N          -3.8131  -18.7269  -47.6646 N.am      14 UNK        -0.5000 
     80 CA         -4.6895  -17.5548  -47.7547 C.3       14 UNK         0.1400 
     81 CB         -6.1624  -17.9732  -47.5527 C.3       14 UNK        -0.1800 
     82 C          -4.4407  -16.7472  -49.0486 C.2       14 UNK         0.5000 
     83 O          -3.4190  -16.0698  -49.1492 O.2       14 UNK        -0.5000 
     84 N          -5.3481  -16.8510  -50.0305 N.am      15 UNK        -0.5000 
     85 CA         -5.2163  -16.2339  -51.3552 C.3       15 UNK         0.1400 
     86 CB         -6.6141  -16.0192  -51.9576 C.3       15 UNK        -0.1800 
     87 C          -4.2811  -17.0118  -52.3123 C.2       15 UNK         0.5000 
     88 O          -4.0901  -16.5790  -53.4496 O.2       15 UNK        -0.5000 
     89 N          -3.6993  -18.1250  -51.8414 N.am      16 UNK        -0.5000 
     90 CA         -2.6398  -18.9222  -52.4589 C.3       16 UNK         0.1400 
     91 CB         -1.3289  -18.1071  -52.5405 C.3       16 UNK        -0.1800 
     92 C          -3.0851  -19.5411  -53.7924 C.2       16 UNK         0.5000 
     93 O          -3.8707  -20.4912  -53.7838 O.2       16 UNK        -0.5000 
     94 N          -2.5911  -19.0052  -54.9146 N.am      17 UNK        -0.5000 
     95 CA         -2.9581  -19.4295  -56.2651 C.3       17 UNK         0.1400 
     96 CB         -2.0248  -18.7543  -57.2798 C.3       17 UNK        -0.1800 
     97 C          -4.4331  -19.1387  -56.5997 C.2       17 UNK         0.5000 
     98 O          -5.0591  -19.9337  -57.2999 O.2       17 UNK        -0.5000 
     99 N          -4.9786  -18.0403  -56.0559 N.am      18 UNK        -0.5000 
    100 CA        -6.3847  -17.6598  -56.2134 C.3       18 UNK         0.1400 
    101 CB        -6.5367  -16.1529  -55.9637 C.3       18 UNK        -0.1800 
    102 C         -7.3300  -18.4771  -55.3103 C.2       18 UNK         0.5000 
    103 O         -8.5132  -18.5953  -55.6293 O.2       18 UNK        -0.5000 
    104 N         -6.7937  -19.0572  -54.2261 N.am      19 UNK        -0.5000 
    105 CA        -7.4922  -20.0254  -53.3741 C.3       19 UNK         0.1400 
    106 CB        -6.8712  -20.0050  -51.9657 C.3       19 UNK        -0.1800 
    107 C         -7.4354  -21.4561  -53.9465 C.2       19 UNK         0.5000 
    108 O         -8.1435  -22.3306  -53.4471 O.2       19 UNK        -0.5000 
    109 N         -6.5629  -21.6734  -54.9443 N.am      20 UNK        -0.5000 
    110 CA        -6.1550  -22.9580  -55.5232 C.3       20 UNK         0.1400 
    111 CB        -7.3431  -23.6773  -56.1947 C.3       20 UNK        -0.1800 
    112 C         -5.3942  -23.8549  -54.5209 C.2       20 UNK         0.5000 
    113 O         -5.3117  -25.0675  -54.7208 O.2       20 UNK        -0.5000 
    114 N         -4.8307  -23.2416  -53.4713 N.am      21 UNK        -0.5000 
    115 CA        -4.0464  -23.9026  -52.4308 C.3       21 UNK         0.1400 
    116 CB        -4.0910  -23.0465  -51.1558 C.3       21 UNK        -0.1800 
    117 C         -2.5925  -24.1263  -52.8765 C.2       21 UNK         0.5000 
    118 O         -1.9944  -25.1406  -52.5164 O.2       21 UNK        -0.5000 
    119 N         -2.0667  -23.1783  -53.6610 N.am      22 UNK        -0.5000 
    120 CA        -0.6970  -23.1806  -54.2023 C.3       22 UNK         0.1400 
    121 C         -0.6395  -23.5499  -55.7143 C.2       22 UNK         0.5000 
    122 N         -1.7302  -23.9807  -56.3371 N.am      22 UNK        -0.7600 
    123 O          0.4157  -23.4593  -56.3355 O.2       22 UNK        -0.5000 
    124 C124        0.0265  -21.8403  -53.9123 C.3       23 UNK        -0.0398 
    125 S125        0.1308  -21.4718  -52.1254 S.3       23 UNK        -0.2404 
    126 C126        1.9297  -21.3407  -51.8962 C.3       23 UNK        -0.0205 
    127 H127       -2.1054  -15.2972  -51.3609 H         1 UNK         0.0600 
    128 H128       -0.7738  -14.7880  -52.3950 H         1 UNK         0.0600 
    129 H129       -2.0124  -13.6214  -51.9145 H         1 UNK         0.0600 
    130 H130       -1.8494  -15.1448  -49.1135 H         1 UNK         0.3000 
    131 H131        0.0523  -13.3285  -47.9080 H         1 UNK         0.0600 
    132 H132        1.7402  -14.8695  -48.3024 H         1 UNK         0.0800 
    133 H133        1.2688  -15.2283  -46.6706 H         1 UNK         0.0800 
    134 H134        3.0764  -17.1788  -47.8937 H         1 UNK         0.0800 
    135 H135        2.6532  -16.8876  -49.5666 H         1 UNK         0.0800 
    136 H136        1.7628  -18.7860  -50.9868 H         1 UNK         0.1150 
    137 H137        2.8936  -22.7321  -49.7456 H         1 UNK         0.1150 
    138 H138        3.2852  -19.4298  -47.0371 H         1 UNK         0.1150 
    139 H139        3.7221  -21.5885  -46.2293 H         1 UNK         0.0800 
    140 H140        4.7508  -22.3245  -47.4346 H         1 UNK         0.0800 
    141 H141        1.2139  -22.0380  -46.1656 H         1 UNK         0.0800 
    142 H142        0.5917  -23.0298  -47.4589 H         1 UNK         0.0800 
    143 H143        0.6027  -25.0014  -45.7515 H         1 UNK         0.0600 
    144 H144        1.5595  -22.9675  -43.9535 H         1 UNK         0.3000 
    145 H145        0.3362  -24.4213  -40.9727 H         1 UNK         0.0600 
    146 H146        2.6807  -24.7979  -40.2614 H         1 UNK         0.0600 
    147 H147        3.2269  -24.7562  -41.9390 H         1 UNK         0.0600 
    148 H148        2.1883  -26.0608  -41.3771 H         1 UNK         0.0600 
    149 H149        2.3873  -22.5302  -41.2339 H         1 UNK         0.3000 
    150 H150        0.6479  -19.6519  -42.1874 H         1 UNK         0.0600 
    151 H151       -0.1394  -19.9340  -39.8095 H         1 UNK         0.0600 
    152 H152        1.1512  -18.7580  -39.9766 H         1 UNK         0.0600 
    153 H153        1.4995  -20.3680  -39.3435 H         1 UNK         0.0600 
    154 H154        3.1195  -19.5728  -41.1488 H         1 UNK         0.3000 
    155 H155        5.3066  -20.7510  -42.2100 H         1 UNK         0.0600 
    156 H156        5.3923  -21.4597  -44.5730 H         1 UNK         0.0600 
    157 H157        6.4488  -20.0807  -44.3284 H         1 UNK         0.0600 
    158 H158        4.8850  -19.8533  -45.1063 H         1 UNK         0.0600 
    159 H159        4.3151  -18.1171  -43.2277 H         1 UNK         0.3000 
    160 H160        5.3182  -16.4474  -40.3896 H         1 UNK         0.0600 
    161 H161        7.1096  -16.2466  -42.8709 H         1 UNK         0.0600 
    162 H162        7.6699  -16.5085  -41.2238 H         1 UNK         0.0600 
    163 H163        6.8930  -14.9927  -41.6485 H         1 UNK         0.0600 
    164 H164        4.7846  -15.4913  -43.0499 H         1 UNK         0.3000 
    165 H165        1.6800  -14.5778  -42.3611 H         1 UNK         0.0600 
    166 H166        2.2401  -13.9665  -44.6883 H         1 UNK         0.0600 
    167 H167        3.6570  -13.8070  -43.6735 H         1 UNK         0.0600 
    168 H168        3.4998  -15.1924  -44.7570 H         1 UNK         0.0600 
    169 H169        0.2603  -15.8277  -43.4610 H         1 UNK         0.3000 
    170 H170       -0.2062  -17.4570  -45.5793 H         1 UNK         0.0600 
    171 H171        1.3093  -19.5360  -45.8445 H         1 UNK         0.0600 
    172 H172        0.5335  -20.1836  -44.4083 H         1 UNK         0.0600 
    173 H173       -0.4031  -19.8393  -45.8505 H         1 UNK         0.0600 
    174 H174       -0.6683  -17.6486  -42.8165 H         1 UNK         0.3000 
    175 H175       -4.1666  -18.3786  -43.1574 H         1 UNK         0.0600 
    176 H176       -1.9016  -19.0831  -41.2212 H         1 UNK         0.0600 
    177 H177       -3.6205  -19.0869  -40.8378 H         1 UNK         0.0600 
    178 H178       -2.9764  -20.2116  -42.0221 H         1 UNK         0.0600 
    179 H179       -4.0500  -16.2826  -42.5430 H         1 UNK         0.3000 
    180 H180       -3.5290  -14.5623  -40.8388 H         1 UNK         0.0600 
    181 H181       -1.7892  -12.8124  -40.4514 H         1 UNK         0.0600 
    182 H182       -0.5424  -13.8968  -41.0641 H         1 UNK         0.0600 
    183 H183       -1.4166  -14.3016  -39.5969 H         1 UNK         0.0600 
    184 H184       -3.7893  -13.5826  -42.8173 H         1 UNK         0.3000 
    185 H185       -3.4738  -13.6011  -45.2450 H         1 UNK         0.0600 
    186 H186       -1.8229  -11.1250  -44.4757 H         1 UNK         0.0600 
    187 H187       -3.1490  -11.1481  -45.6383 H         1 UNK         0.0600 
    188 H188       -3.4641  -11.4630  -43.9421 H         1 UNK         0.0600 
    189 H189       -1.1094  -12.4563  -46.3993 H         1 UNK         0.3000 
    190 H190       -0.9998  -22.3410  -44.0621 H         1 UNK         0.3000 
    191 H191       -3.0034  -21.3851  -44.1362 H         1 UNK         0.0600 
    192 H192       -4.9432  -22.9132  -44.0354 H         1 UNK         0.0600 
    193 H193       -3.5941  -23.5955  -43.1415 H         1 UNK         0.0600 
    194 H194       -3.9975  -24.2184  -44.7408 H         1 UNK         0.0600 
    195 H195       -1.6391  -20.9634  -46.4468 H         1 UNK         0.3000 
    196 H196       -2.9201  -21.6774  -48.8584 H         1 UNK         0.0600 
    197 H197       -0.5171  -21.1537  -48.7370 H         1 UNK         0.0600 
    198 H198       -0.8603  -19.5062  -48.2153 H         1 UNK         0.0600 
    199 H199       -1.2792  -20.0212  -49.8362 H         1 UNK         0.0600 
    200 H200       -3.2338  -18.7659  -46.8284 H         1 UNK         0.3000 
    201 H201       -4.4130  -16.9003  -46.9267 H         1 UNK         0.0600 
    202 H202       -6.4981  -18.6911  -48.3018 H         1 UNK         0.0600 
    203 H203       -6.8264  -17.1089  -47.5958 H         1 UNK         0.0600 
    204 H204       -6.3003  -18.4349  -46.5749 H         1 UNK         0.0600 
    205 H205       -6.1425  -17.4569  -49.8865 H         1 UNK         0.3000 
    206 H206       -4.7703  -15.2460  -51.2225 H         1 UNK         0.0600 
    207 H207       -7.2931  -15.5680  -51.2338 H         1 UNK         0.0600 
    208 H208       -6.5643  -15.3387  -52.8067 H         1 UNK         0.0600 
    209 H209       -7.0644  -16.9461  -52.3075 H         1 UNK         0.0600 
    210 H210       -4.0016  -18.4691  -50.9335 H         1 UNK         0.3000 
    211 H211       -2.4635  -19.7655  -51.7920 H         1 UNK         0.0600 
    212 H212       -1.4399  -17.1970  -53.1299 H         1 UNK         0.0600 
    213 H213       -0.5237  -18.6912  -52.9863 H         1 UNK         0.0600 
    214 H214       -0.9954  -17.8141  -51.5443 H         1 UNK         0.0600 
    215 H215       -1.9721  -18.2111  -54.8379 H         1 UNK         0.3000 
    216 H216       -2.8100  -20.5098  -56.3319 H         1 UNK         0.0600 
    217 H217       -2.1089  -17.6674  -57.2440 H         1 UNK         0.0600 
    218 H218       -0.9835  -19.0178  -57.0933 H         1 UNK         0.0600 
    219 H219       -2.2614  -19.0691  -58.2971 H         1 UNK         0.0600 
    220 H220       -4.4155  -17.4566  -55.4474 H         1 UNK         0.3000 
    221 H221       -6.6835  -17.8533  -57.2461 H         1 UNK         0.0600 
    222 H222       -7.5795  -15.8431  -56.0435 H         1 UNK         0.0600 
    223 H223       -6.1834  -15.8713  -54.9741 H         1 UNK         0.0600 
    224 H224       -5.9697  -15.5762  -56.6945 H         1 UNK         0.0600 
    225 H225       -5.8085  -18.9264  -54.0468 H         1 UNK         0.3000 
    226 H226       -8.5438  -19.7442  -53.2878 H         1 UNK         0.0600 
    227 H227       -6.9850  -19.0351  -51.4871 H         1 UNK         0.0600 
    228 H228       -7.3538  -20.7343  -51.3138 H         1 UNK         0.0600 
    229 H229       -5.8088  -20.2470  -51.9849 H         1 UNK         0.0600 
    230 H230       -6.0399  -20.8762  -55.2781 H         1 UNK         0.3000 
    231 H231       -5.4370  -22.7137  -56.3073 H         1 UNK         0.0600 
    232 H232       -7.0023  -24.5377  -56.7716 H         1 UNK         0.0600 
    233 H233       -7.8670  -23.0141  -56.8829 H         1 UNK         0.0600 
    234 H234       -8.0647  -24.0427  -55.4639 H         1 UNK         0.0600 
    235 H235       -4.8797  -22.2299  -53.4247 H         1 UNK         0.3000 
    236 H236       -4.4910  -24.8751  -52.2086 H         1 UNK         0.0600 
    237 H237       -5.1154  -22.8983  -50.8133 H         1 UNK         0.0600 
    238 H238       -3.5430  -23.5287  -50.3455 H         1 UNK         0.0600 
    239 H239       -3.6482  -22.0622  -51.3143 H         1 UNK         0.0600 
    240 H240       -2.6426  -22.3825  -53.9007 H         1 UNK         0.3000 
    241 H241       -0.1188  -23.9623  -53.7067 H         1 UNK         0.0600 
    242 H242       -2.5890  -24.1165  -55.8297 H         1 UNK         0.3800 
    243 H243       -1.6777  -24.2264  -57.3133 H         1 UNK         0.3800 
    244 H244       -0.4861  -21.0152  -54.4073 H         1 UNK         0.0800 
    245 H245        1.0353  -21.8565  -54.3280 H         1 UNK         0.0800 
    246 H246        2.3443  -20.6661  -52.6468 H         1 UNK         0.0800 
    247 H247        2.3868  -22.3164  -52.0680 H         1 UNK         0.0800 
@<TRIPOS>BOND
     1    1    2 1    
     2    1  127 1    
     3    1  128 1    
     4    1  129 1    
     5    2    3 2    
     6    2    4 am   BACKBONE|DICT|INTERRES
     7    4    5 1    
     8    4  130 1    
     9    5    6 1    
    10    5   65 1    
    11    5  131 1    
    12    6    7 1    
    13    6  132 1    
    14    6  133 1    
    15    7    8 1    
    16    8    9 1    
    17    8  134 1    
    18    8  135 1    
    19    9   10 ar   
    20    9   14 ar   
    21   10   11 ar   
    22   10  136 1    
    23   11   12 ar   
    24   11  126 1    
    25   12   13 ar   
    26   12  137 1    
    27   13   14 ar   
    28   13   15 1    
    29   14  138 1    
    30   15   16 1    
    31   15  139 1    
    32   15  140 1    
    33   16   17 1    
    34   17   18 1    
    35   17  141 1    
    36   17  142 1    
    37   18   19 1    
    38   18   67 1    
    39   18  143 1    
    40   19   20 am   BACKBONE|DICT|INTERRES
    41   19  144 1    
    42   20   21 2    
    43   20   22 1    
    44   22   23 1    
    45   22   24 1    
    46   22  145 1    
    47   23  146 1    
    48   23  147 1    
    49   23  148 1    
    50   24   25 am   BACKBONE|DICT|INTERRES
    51   24  149 1    
    52   25   26 2    
    53   25   27 1    
    54   27   28 1    
    55   27   29 1    
    56   27  150 1    
    57   28  151 1    
    58   28  152 1    
    59   28  153 1    
    60   29   30 am   BACKBONE|DICT|INTERRES
    61   29  154 1    
    62   30   31 2    
    63   30   32 1    
    64   32   33 1    
    65   32   34 1    
    66   32  155 1    
    67   33  156 1    
    68   33  157 1    
    69   33  158 1    
    70   34   35 am   BACKBONE|DICT|INTERRES
    71   34  159 1    
    72   35   36 2    
    73   35   37 1    
    74   37   38 1    
    75   37   39 1    
    76   37  160 1    
    77   38  161 1    
    78   38  162 1    
    79   38  163 1    
    80   39   40 am   BACKBONE|DICT|INTERRES
    81   39  164 1    
    82   40   41 2    
    83   40   42 1    
    84   42   43 1    
    85   42   44 1    
    86   42  165 1    
    87   43  166 1    
    88   43  167 1    
    89   43  168 1    
    90   44   45 am   BACKBONE|DICT|INTERRES
    91   44  169 1    
    92   45   46 2    
    93   45   47 1    
    94   47   48 1    
    95   47   49 1    
    96   47  170 1    
    97   48  171 1    
    98   48  172 1    
    99   48  173 1    
   100   49   50 am   BACKBONE|DICT|INTERRES
   101   49  174 1    
   102   50   51 2    
   103   50   52 1    
   104   52   53 1    
   105   52   54 1    
   106   52  175 1    
   107   53  176 1    
   108   53  177 1    
   109   53  178 1    
   110   54   55 am   BACKBONE|DICT|INTERRES
   111   54  179 1    
   112   55   56 2    
   113   55   57 1    
   114   57   58 1    
   115   57   59 1    
   116   57  180 1    
   117   58  181 1    
   118   58  182 1    
   119   58  183 1    
   120   59   60 am   BACKBONE|DICT|INTERRES
   121   59  184 1    
   122   60   61 2    
   123   60   62 1    
   124   62   63 1    
   125   62   64 1    
   126   62  185 1    
   127   63  186 1    
   128   63  187 1    
   129   63  188 1    
   130   64   65 am   BACKBONE|DICT|INTERRES
   131   64  189 1    
   132   65   66 2    
   133   67   68 2    
   134   67   69 am   BACKBONE|DICT|INTERRES
   135   69   70 1    
   136   69  190 1    
   137   70   71 1    
   138   70   72 1    
   139   70  191 1    
   140   71  192 1    
   141   71  193 1    
   142   71  194 1    
   143   72   73 2    
   144   72   74 am   BACKBONE|DICT|INTERRES
   145   74   75 1    
   146   74  195 1    
   147   75   76 1    
   148   75   77 1    
   149   75  196 1    
   150   76  197 1    
   151   76  198 1    
   152   76  199 1    
   153   77   78 2    
   154   77   79 am   BACKBONE|DICT|INTERRES
   155   79   80 1    
   156   79  200 1    
   157   80   81 1    
   158   80   82 1    
   159   80  201 1    
   160   81  202 1    
   161   81  203 1    
   162   81  204 1    
   163   82   83 2    
   164   82   84 am   BACKBONE|DICT|INTERRES
   165   84   85 1    
   166   84  205 1    
   167   85   86 1    
   168   85   87 1    
   169   85  206 1    
   170   86  207 1    
   171   86  208 1    
   172   86  209 1    
   173   87   88 2    
   174   87   89 am   BACKBONE|DICT|INTERRES
   175   89   90 1    
   176   89  210 1    
   177   90   91 1    
   178   90   92 1    
   179   90  211 1    
   180   91  212 1    
   181   91  213 1    
   182   91  214 1    
   183   92   93 2    
   184   92   94 am   BACKBONE|DICT|INTERRES
   185   94   95 1    
   186   94  215 1    
   187   95   96 1    
   188   95   97 1    
   189   95  216 1    
   190   96  217 1    
   191   96  218 1    
   192   96  219 1    
   193   97   98 2    
   194   97   99 am   BACKBONE|DICT|INTERRES
   195   99  100 1    
   196   99  220 1    
   197  100  101 1    
   198  100  102 1    
   199  100  221 1    
   200  101  222 1    
   201  101  223 1    
   202  101  224 1    
   203  102  103 2    
   204  102  104 am   BACKBONE|DICT|INTERRES
   205  104  105 1    
   206  104  225 1    
   207  105  106 1    
   208  105  107 1    
   209  105  226 1    
   210  106  227 1    
   211  106  228 1    
   212  106  229 1    
   213  107  108 2    
   214  107  109 am   BACKBONE|DICT|INTERRES
   215  109  110 1    
   216  109  230 1    
   217  110  111 1    
   218  110  112 1    
   219  110  231 1    
   220  111  232 1    
   221  111  233 1    
   222  111  234 1    
   223  112  113 2    
   224  112  114 am   BACKBONE|DICT|INTERRES
   225  114  115 1    
   226  114  235 1    
   227  115  116 1    
   228  115  117 1    
   229  115  236 1    
   230  116  237 1    
   231  116  238 1    
   232  116  239 1    
   233  117  118 2    
   234  117  119 am   BACKBONE|DICT|INTERRES
   235  119  120 1    
   236  119  240 1    
   237  120  121 1    
   238  120  124 1    
   239  120  241 1    
   240  121  122 am   BACKBONE|DICT|INTERRES
   241  121  123 2    
   242  122  242 1    
   243  122  243 1    
   244  124  125 1    
   245  124  244 1    
   246  124  245 1    
   247  125  126 1    
   248  126  246 1    
   249  126  247 1    
@<TRIPOS>SUBSTRUCTURE
     1 UNK         1 GROUP             0       ****    0 ROOT    
