@<TRIPOS>MOLECULE
3R540
247   249    1
SMALL
USER_CHARGES


@<TRIPOS>ATOM
      1 CA          1.2311  -14.8313  -48.2938 C.3       0 UNK        -0.1800 
      2 C          -0.2740  -15.0621  -48.2717 C.2       0 UNK         0.5000 
      3 O          -0.9760  -14.5743  -49.1564 O.2       0 UNK        -0.5000 
      4 N          -0.7443  -15.8225  -47.2746 N.am      1 UNK        -0.5000 
      5 CA         -2.1337  -16.2134  -47.0009 C.3       1 UNK         0.1400 
      6 C6         -2.8827  -16.8701  -48.1962 C.3       23 UNK        -0.0398 
      7 S7         -2.2597  -18.5317  -48.6127 S.3       23 UNK        -0.2404 
      8 C8         -1.2037  -18.1812  -50.0516 C.3       23 UNK        -0.0205 
      9 C9         -0.4656  -19.4258  -50.5170 C.ar      23 UNK        -0.0193 
     10 C10        -1.1317  -20.3925  -51.2762 C.ar      23 UNK        -0.1150 
     11 C11        -0.4579  -21.5338  -51.7188 C.ar      23 UNK        -0.0193 
     12 C12         0.8919  -21.7027  -51.3985 C.ar      23 UNK        -0.1150 
     13 C13         1.5756  -20.7362  -50.6550 C.ar      23 UNK        -0.0193 
     14 C14         0.8883  -19.6030  -50.2086 C.ar      23 UNK        -0.1150 
     15 C15         3.0658  -20.9033  -50.3776 C.3       23 UNK        -0.0205 
     16 S16         3.4323  -21.3417  -48.6472 S.3       23 UNK        -0.2404 
     17 C17         2.4220  -22.8430  -48.4213 C.3       23 UNK        -0.0398 
     18 CA          3.0437  -23.9215  -47.4941 C.3       11 UNK         0.1400 
     19 N           3.5550  -23.3599  -46.2383 N.am      11 UNK        -0.5000 
     20 C           4.4690  -23.9406  -45.4481 C.2       10 UNK         0.5000 
     21 O           5.0600  -24.9808  -45.7383 O.2       10 UNK        -0.5000 
     22 CA          4.7378  -23.2678  -44.0867 C.3       10 UNK         0.1400 
     23 CB          5.9557  -22.3370  -44.1780 C.3       10 UNK        -0.1800 
     24 N           3.5824  -22.5130  -43.5910 N.am      10 UNK        -0.5000 
     25 C           2.4358  -23.0712  -43.1676 C.2       9 UNK         0.5000 
     26 O           2.2624  -24.2865  -43.0890 O.2       9 UNK        -0.5000 
     27 CA          1.2604  -22.1258  -42.8496 C.3       9 UNK         0.1400 
     28 CB          1.2390  -21.7719  -41.3561 C.3       9 UNK        -0.1800 
     29 N           1.3080  -20.8987  -43.6419 N.am      9 UNK        -0.5000 
     30 C           1.1926  -20.8429  -44.9735 C.2       8 UNK         0.5000 
     31 O           0.8474  -21.8090  -45.6572 O.2       8 UNK        -0.5000 
     32 CA          1.5513  -19.5145  -45.6679 C.3       8 UNK         0.1400 
     33 CB          0.3426  -18.9235  -46.3894 C.3       8 UNK        -0.1800 
     34 N           2.1322  -18.4961  -44.7893 N.am      8 UNK        -0.5000 
     35 C           3.3651  -18.5580  -44.2671 C.2       7 UNK         0.5000 
     36 O           4.1268  -19.5113  -44.4272 O.2       7 UNK        -0.5000 
     37 CA          3.7831  -17.3826  -43.3705 C.3       7 UNK         0.1400 
     38 CB          4.0859  -16.1291  -44.2068 C.3       7 UNK        -0.1800 
     39 N           2.7381  -17.0848  -42.3922 N.am      7 UNK        -0.5000 
     40 C           2.5309  -17.7978  -41.2755 C.2       6 UNK         0.5000 
     41 O           3.2534  -18.7267  -40.9155 O.2       6 UNK        -0.5000 
     42 CA          1.2986  -17.4284  -40.4272 C.3       6 UNK         0.1400 
     43 CB          1.6730  -16.3946  -39.3548 C.3       6 UNK        -0.1800 
     44 N           0.1861  -16.9101  -41.2252 N.am      6 UNK        -0.5000 
     45 C          -0.5192  -17.6317  -42.1078 C.2       5 UNK         0.5000 
     46 O          -0.3321  -18.8271  -42.3188 O.2       5 UNK        -0.5000 
     47 CA         -1.5874  -16.8854  -42.9235 C.3       5 UNK         0.1400 
     48 CB         -2.9529  -16.9919  -42.2309 C.3       5 UNK        -0.1800 
     49 N          -1.2563  -15.4781  -43.1659 N.am      5 UNK        -0.5000 
     50 C          -0.2007  -15.0550  -43.8776 C.2       4 UNK         0.5000 
     51 O           0.5683  -15.8265  -44.4591 O.2       4 UNK        -0.5000 
     52 CA          0.0146  -13.5306  -43.9450 C.3       4 UNK         0.1400 
     53 CB          0.9587  -13.1015  -45.0792 C.3       4 UNK        -0.1800 
     54 N          -1.2670  -12.8491  -44.1112 N.am      4 UNK        -0.5000 
     55 C          -1.8143  -11.9818  -43.2499 C.2       3 UNK         0.5000 
     56 O          -1.2620  -11.5969  -42.2190 O.2       3 UNK        -0.5000 
     57 CA         -3.2373  -11.4834  -43.5800 C.3       3 UNK         0.1400 
     58 CB         -3.1787  -10.1414  -44.3249 C.3       3 UNK        -0.1800 
     59 N          -4.0064  -12.4402  -44.3804 N.am      3 UNK        -0.5000 
     60 C          -4.3932  -13.6518  -43.9595 C.2       2 UNK         0.5000 
     61 O          -4.2293  -14.0507  -42.8069 O.2       2 UNK        -0.5000 
     62 CA         -5.0226  -14.5942  -45.0051 C.3       2 UNK         0.1400 
     63 CB         -5.8835  -13.8571  -46.0531 C.3       2 UNK        -0.1800 
     64 N          -4.0258  -15.4479  -45.6631 N.am      2 UNK        -0.5000 
     65 C          -2.9575  -15.0664  -46.3800 C.2       1 UNK         0.5000 
     66 O          -2.6192  -13.8906  -46.5351 O.2       1 UNK        -0.5000 
     67 C           1.9796  -25.0130  -47.2348 C.2       11 UNK         0.5000 
     68 O           1.6154  -25.7289  -48.1678 O.2       11 UNK        -0.5000 
     69 N           1.4579  -25.0677  -45.9972 N.am      12 UNK        -0.5000 
     70 CA          0.2599  -25.7875  -45.5540 C.3       12 UNK         0.1400 
     71 CB          0.4363  -27.3139  -45.6935 C.3       12 UNK        -0.1800 
     72 C          -1.0260  -25.2552  -46.2258 C.2       12 UNK         0.5000 
     73 O          -1.9803  -26.0123  -46.4114 O.2       12 UNK        -0.5000 
     74 N          -1.0228  -23.9629  -46.5829 N.am      13 UNK        -0.5000 
     75 CA         -2.1168  -23.2845  -47.2692 C.3       13 UNK         0.1400 
     76 CB         -1.5450  -22.4097  -48.3970 C.3       13 UNK        -0.1800 
     77 C          -2.9311  -22.4552  -46.2695 C.2       13 UNK         0.5000 
     78 O          -4.1140  -22.7375  -46.0699 O.2       13 UNK        -0.5000 
     79 N          -2.2827  -21.4470  -45.6641 N.am      14 UNK        -0.5000 
     80 CA         -2.7930  -20.4448  -44.7112 C.3       14 UNK         0.1400 
     81 CB         -3.2109  -21.1071  -43.3868 C.3       14 UNK        -0.1800 
     82 C          -3.9136  -19.5301  -45.2578 C.2       14 UNK         0.5000 
     83 O          -3.8404  -18.3101  -45.1105 O.2       14 UNK        -0.5000 
     84 N          -4.9185  -20.1300  -45.8935 N.am      15 UNK        -0.5000 
     85 CA         -6.0267  -19.4791  -46.5845 C.3       15 UNK         0.1400 
     86 CB         -7.1082  -19.0632  -45.5725 C.3       15 UNK        -0.1800 
     87 C          -6.6124  -20.3699  -47.6967 C.2       15 UNK         0.5000 
     88 O          -7.3071  -19.8492  -48.5708 O.2       15 UNK        -0.5000 
     89 N          -6.3356  -21.6840  -47.6715 N.am      16 UNK        -0.5000 
     90 CA         -6.7489  -22.6315  -48.7035 C.3       16 UNK         0.1400 
     91 CB         -6.5318  -24.0652  -48.1946 C.3       16 UNK        -0.1800 
     92 C          -5.9660  -22.3856  -50.0037 C.2       16 UNK         0.5000 
     93 O          -4.7344  -22.3874  -49.9771 O.2       16 UNK        -0.5000 
     94 N          -6.7014  -22.1679  -51.1029 N.am      17 UNK        -0.5000 
     95 CA         -6.2002  -21.8625  -52.4486 C.3       17 UNK         0.1400 
     96 CB         -5.4412  -23.0687  -53.0414 C.3       17 UNK        -0.1800 
     97 C          -5.3915  -20.5482  -52.5257 C.2       17 UNK         0.5000 
     98 O          -4.5163  -20.4169  -53.3790 O.2       17 UNK        -0.5000 
     99 N          -5.7180  -19.5743  -51.6625 N.am      18 UNK        -0.5000 
    100 CA        -5.0390  -18.2765  -51.5684 C.3       18 UNK         0.1400 
    101 CB        -5.6242  -17.4925  -50.3857 C.3       18 UNK        -0.1800 
    102 C         -5.1006  -17.4237  -52.8524 C.2       18 UNK         0.5000 
    103 O         -4.2077  -16.6085  -53.0831 O.2       18 UNK        -0.5000 
    104 N         -6.1509  -17.6273  -53.6577 N.am      19 UNK        -0.5000 
    105 CA        -6.3697  -16.9542  -54.9374 C.3       19 UNK         0.1400 
    106 CB        -7.8851  -16.8695  -55.1845 C.3       19 UNK        -0.1800 
    107 C         -5.6684  -17.6466  -56.1249 C.2       19 UNK         0.5000 
    108 O         -5.6551  -17.0768  -57.2177 O.2       19 UNK        -0.5000 
    109 N         -5.1314  -18.8591  -55.9242 N.am      20 UNK        -0.5000 
    110 CA        -4.4575  -19.6398  -56.9620 C.3       20 UNK         0.1400 
    111 CB        -4.5044  -21.1292  -56.5834 C.3       20 UNK        -0.1800 
    112 C         -3.0078  -19.1714  -57.1906 C.2       20 UNK         0.5000 
    113 O         -2.4538  -18.4121  -56.3903 O.2       20 UNK        -0.5000 
    114 N         -2.4085  -19.6681  -58.2817 N.am      21 UNK        -0.5000 
    115 CA        -1.0587  -19.3380  -58.7552 C.3       21 UNK         0.1400 
    116 CB        -0.8297  -20.0303  -60.1082 C.3       21 UNK        -0.1800 
    117 C          0.0851  -19.6780  -57.7761 C.2       21 UNK         0.5000 
    118 O          1.1832  -19.1407  -57.9282 O.2       21 UNK        -0.5000 
    119 N         -0.1852  -20.5437  -56.7911 N.am      22 UNK        -0.5000 
    120 CA         0.7034  -20.8238  -55.6540 C.3       22 UNK         0.1400 
    121 C          0.8965  -19.6290  -54.6711 C.2       22 UNK         0.5000 
    122 N          0.0113  -18.6376  -54.6440 N.am      22 UNK        -0.7600 
    123 O          1.8910  -19.5843  -53.9531 O.2       22 UNK        -0.5000 
    124 C124        0.2972  -22.1297  -54.9218 C.3       23 UNK        -0.0398 
    125 S125       -1.4144  -22.1173  -54.2728 S.3       23 UNK        -0.2404 
    126 C126       -1.1928  -22.5923  -52.5271 C.3       23 UNK        -0.0205 
    127 H127        1.6686  -15.3054  -49.1724 H         1 UNK         0.0600 
    128 H128        1.7179  -15.2416  -47.4081 H         1 UNK         0.0600 
    129 H129        1.4487  -13.7641  -48.3375 H         1 UNK         0.0600 
    130 H130       -0.0900  -16.1139  -46.5597 H         1 UNK         0.3000 
    131 H131       -2.0423  -16.9628  -46.2183 H         1 UNK         0.0600 
    132 H132       -3.9344  -17.0074  -47.9443 H         1 UNK         0.0800 
    133 H133       -2.8797  -16.2335  -49.0807 H         1 UNK         0.0800 
    134 H134       -1.8065  -17.7817  -50.8675 H         1 UNK         0.0800 
    135 H135       -0.4850  -17.4049  -49.7950 H         1 UNK         0.0800 
    136 H136       -2.1766  -20.2607  -51.5211 H         1 UNK         0.1150 
    137 H137        1.4170  -22.5819  -51.7432 H         1 UNK         0.1150 
    138 H138        1.4129  -18.8550  -49.6312 H         1 UNK         0.1150 
    139 H139        3.4948  -21.6622  -51.0337 H         1 UNK         0.0800 
    140 H140        3.5792  -19.9720  -50.6203 H         1 UNK         0.0800 
    141 H141        1.4504  -22.5157  -48.0520 H         1 UNK         0.0800 
    142 H142        2.2315  -23.2858  -49.4000 H         1 UNK         0.0800 
    143 H143        3.8745  -24.3884  -48.0273 H         1 UNK         0.0600 
    144 H144        3.1208  -22.5013  -45.9329 H         1 UNK         0.3000 
    145 H145        4.9640  -24.0555  -43.3648 H         1 UNK         0.0600 
    146 H146        6.1612  -21.8577  -43.2207 H         1 UNK         0.0600 
    147 H147        5.8086  -21.5534  -44.9220 H         1 UNK         0.0600 
    148 H148        6.8497  -22.8932  -44.4626 H         1 UNK         0.0600 
    149 H149        3.6471  -21.5031  -43.6507 H         1 UNK         0.3000 
    150 H150        0.3334  -22.6495  -43.0928 H         1 UNK         0.0600 
    151 H151        1.1814  -22.6718  -40.7426 H         1 UNK         0.0600 
    152 H152        0.3747  -21.1558  -41.1083 H         1 UNK         0.0600 
    153 H153        2.1362  -21.2284  -41.0586 H         1 UNK         0.0600 
    154 H154        1.4863  -20.0402  -43.1393 H         1 UNK         0.3000 
    155 H155        2.2954  -19.7607  -46.4266 H         1 UNK         0.0600 
    156 H156       -0.1499  -19.6739  -47.0061 H         1 UNK         0.0600 
    157 H157        0.6522  -18.1219  -47.0580 H         1 UNK         0.0600 
    158 H158       -0.3901  -18.5269  -45.6892 H         1 UNK         0.0600 
    159 H159        1.5671  -17.6753  -44.6030 H         1 UNK         0.3000 
    160 H160        4.6970  -17.6646  -42.8429 H         1 UNK         0.0600 
    161 H161        3.2206  -15.8010  -44.7828 H         1 UNK         0.0600 
    162 H162        4.8936  -16.3213  -44.9141 H         1 UNK         0.0600 
    163 H163        4.3999  -15.2994  -43.5733 H         1 UNK         0.0600 
    164 H164        2.0786  -16.3609  -42.6379 H         1 UNK         0.3000 
    165 H165        0.9601  -18.3372  -39.9246 H         1 UNK         0.0600 
    166 H166        0.8281  -16.1820  -38.6995 H         1 UNK         0.0600 
    167 H167        2.4856  -16.7613  -38.7261 H         1 UNK         0.0600 
    168 H168        2.0003  -15.4534  -39.7984 H         1 UNK         0.0600 
    169 H169       -0.0456  -15.9353  -41.1058 H         1 UNK         0.3000 
    170 H170       -1.6550  -17.3836  -43.8904 H         1 UNK         0.0600 
    171 H171       -3.1823  -18.0252  -41.9691 H         1 UNK         0.0600 
    172 H172       -2.9891  -16.4035  -41.3135 H         1 UNK         0.0600 
    173 H173       -3.7526  -16.6481  -42.8852 H         1 UNK         0.0600 
    174 H174       -1.8697  -14.7919  -42.7464 H         1 UNK         0.3000 
    175 H175        0.4813  -13.2504  -42.9990 H         1 UNK         0.0600 
    176 H176        0.5127  -13.2864  -46.0545 H         1 UNK         0.0600 
    177 H177        1.1809  -12.0362  -45.0167 H         1 UNK         0.0600 
    178 H178        1.9102  -13.6324  -45.0356 H         1 UNK         0.0600 
    179 H179       -1.8032  -13.1124  -44.9344 H         1 UNK         0.3000 
    180 H180       -3.7628  -11.3307  -42.6351 H         1 UNK         0.0600 
    181 H181       -4.1784   -9.7449  -44.5033 H         1 UNK         0.0600 
    182 H182       -2.6778  -10.2385  -45.2891 H         1 UNK         0.0600 
    183 H183       -2.6331   -9.3961  -43.7446 H         1 UNK         0.0600 
    184 H184       -4.1290  -12.2164  -45.3579 H         1 UNK         0.3000 
    185 H185       -5.6840  -15.2651  -44.4544 H         1 UNK         0.0600 
    186 H186       -6.4265  -14.5680  -46.6761 H         1 UNK         0.0600 
    187 H187       -6.6254  -13.2192  -45.5710 H         1 UNK         0.0600 
    188 H188       -5.2888  -13.2288  -46.7165 H         1 UNK         0.0600 
    189 H189       -4.1510  -16.4463  -45.5083 H         1 UNK         0.3000 
    190 H190        1.8654  -24.4622  -45.2973 H         1 UNK         0.3000 
    191 H191        0.1537  -25.5680  -44.4908 H         1 UNK         0.0600 
    192 H192       -0.3826  -27.8463  -45.2086 H         1 UNK         0.0600 
    193 H193        1.3617  -27.6478  -45.2242 H         1 UNK         0.0600 
    194 H194        0.4551  -27.6290  -46.7369 H         1 UNK         0.0600 
    195 H195       -0.2231  -23.3905  -46.3342 H         1 UNK         0.3000 
    196 H196       -2.7919  -24.0100  -47.7283 H         1 UNK         0.0600 
    197 H197       -2.3342  -21.8428  -48.8918 H         1 UNK         0.0600 
    198 H198       -1.0622  -23.0226  -49.1580 H         1 UNK         0.0600 
    199 H199       -0.8089  -21.6918  -48.0375 H         1 UNK         0.0600 
    200 H200       -1.3054  -21.3406  -45.9011 H         1 UNK         0.3000 
    201 H201       -1.9479  -19.7950  -44.4857 H         1 UNK         0.0600 
    202 H202       -4.0383  -21.8043  -43.5201 H         1 UNK         0.0600 
    203 H203       -3.5286  -20.3592  -42.6599 H         1 UNK         0.0600 
    204 H204       -2.3778  -21.6538  -42.9446 H         1 UNK         0.0600 
    205 H205       -4.8524  -21.1411  -45.9670 H         1 UNK         0.3000 
    206 H206       -5.6469  -18.5803  -47.0731 H         1 UNK         0.0600 
    207 H207       -6.7171  -18.3524  -44.8443 H         1 UNK         0.0600 
    208 H208       -7.9495  -18.5828  -46.0735 H         1 UNK         0.0600 
    209 H209       -7.4959  -19.9241  -45.0269 H         1 UNK         0.0600 
    210 H210       -5.7172  -22.0656  -46.9669 H         1 UNK         0.3000 
    211 H211       -7.8164  -22.4947  -48.8891 H         1 UNK         0.0600 
    212 H212       -5.4800  -24.2651  -47.9860 H         1 UNK         0.0600 
    213 H213       -6.8634  -24.7949  -48.9342 H         1 UNK         0.0600 
    214 H214       -7.0951  -24.2491  -47.2796 H         1 UNK         0.0600 
    215 H215       -7.7078  -22.1735  -51.0100 H         1 UNK         0.3000 
    216 H216       -7.0827  -21.7004  -53.0690 H         1 UNK         0.0600 
    217 H217       -6.0445  -23.9752  -52.9969 H         1 UNK         0.0600 
    218 H218       -4.5082  -23.2607  -52.5121 H         1 UNK         0.0600 
    219 H219       -5.1901  -22.8996  -54.0890 H         1 UNK         0.0600 
    220 H220       -6.4393  -19.7569  -50.9780 H         1 UNK         0.3000 
    221 H221       -3.9869  -18.4757  -51.3618 H         1 UNK         0.0600 
    222 H222       -5.1481  -16.5164  -50.2851 H         1 UNK         0.0600 
    223 H223       -6.6957  -17.3261  -50.5028 H         1 UNK         0.0600 
    224 H224       -5.4685  -18.0282  -49.4512 H         1 UNK         0.0600 
    225 H225       -6.8364  -18.3155  -53.3838 H         1 UNK         0.3000 
    226 H226       -5.9800  -15.9356  -54.8791 H         1 UNK         0.0600 
    227 H227       -8.3872  -16.3348  -54.3779 H         1 UNK         0.0600 
    228 H228       -8.1029  -16.3346  -56.1099 H         1 UNK         0.0600 
    229 H229       -8.3361  -17.8595  -55.2639 H         1 UNK         0.0600 
    230 H230       -5.0829  -19.2338  -54.9834 H         1 UNK         0.3000 
    231 H231       -5.0035  -19.5147  -57.8996 H         1 UNK         0.0600 
    232 H232       -4.1413  -21.7564  -57.3980 H         1 UNK         0.0600 
    233 H233       -5.5220  -21.4497  -56.3591 H         1 UNK         0.0600 
    234 H234       -3.8870  -21.3421  -55.7121 H         1 UNK         0.0600 
    235 H235       -2.9329  -20.3002  -58.8693 H         1 UNK         0.3000 
    236 H236       -1.0266  -18.2585  -58.9154 H         1 UNK         0.0600 
    237 H237       -0.8815  -21.1160  -60.0170 H         1 UNK         0.0600 
    238 H238       -1.5716  -19.7178  -60.8434 H         1 UNK         0.0600 
    239 H239        0.1514  -19.7818  -60.5154 H         1 UNK         0.0600 
    240 H240       -1.1169  -20.9255  -56.7256 H         1 UNK         0.3000 
    241 H241        1.6930  -21.0070  -56.0774 H         1 UNK         0.0600 
    242 H242        0.1547  -17.8698  -54.0096 H         1 UNK         0.3800 
    243 H243       -0.8127  -18.6537  -55.2360 H         1 UNK         0.3800 
    244 H244        1.0049  -22.3505  -54.1231 H         1 UNK         0.0800 
    245 H245        0.3774  -22.9685  -55.6141 H         1 UNK         0.0800 
    246 H246       -0.6730  -23.5500  -52.4748 H         1 UNK         0.0800 
    247 H247       -2.1752  -22.7557  -52.0819 H         1 UNK         0.0800 
@<TRIPOS>BOND
     1    1    2 1    
     2    1  127 1    
     3    1  128 1    
     4    1  129 1    
     5    2    3 2    
     6    2    4 am   BACKBONE|DICT|INTERRES
     7    4    5 1    
     8    4  130 1    
     9    5    6 1    
    10    5   65 1    
    11    5  131 1    
    12    6    7 1    
    13    6  132 1    
    14    6  133 1    
    15    7    8 1    
    16    8    9 1    
    17    8  134 1    
    18    8  135 1    
    19    9   10 ar   
    20    9   14 ar   
    21   10   11 ar   
    22   10  136 1    
    23   11   12 ar   
    24   11  126 1    
    25   12   13 ar   
    26   12  137 1    
    27   13   14 ar   
    28   13   15 1    
    29   14  138 1    
    30   15   16 1    
    31   15  139 1    
    32   15  140 1    
    33   16   17 1    
    34   17   18 1    
    35   17  141 1    
    36   17  142 1    
    37   18   19 1    
    38   18   67 1    
    39   18  143 1    
    40   19   20 am   BACKBONE|DICT|INTERRES
    41   19  144 1    
    42   20   21 2    
    43   20   22 1    
    44   22   23 1    
    45   22   24 1    
    46   22  145 1    
    47   23  146 1    
    48   23  147 1    
    49   23  148 1    
    50   24   25 am   BACKBONE|DICT|INTERRES
    51   24  149 1    
    52   25   26 2    
    53   25   27 1    
    54   27   28 1    
    55   27   29 1    
    56   27  150 1    
    57   28  151 1    
    58   28  152 1    
    59   28  153 1    
    60   29   30 am   BACKBONE|DICT|INTERRES
    61   29  154 1    
    62   30   31 2    
    63   30   32 1    
    64   32   33 1    
    65   32   34 1    
    66   32  155 1    
    67   33  156 1    
    68   33  157 1    
    69   33  158 1    
    70   34   35 am   BACKBONE|DICT|INTERRES
    71   34  159 1    
    72   35   36 2    
    73   35   37 1    
    74   37   38 1    
    75   37   39 1    
    76   37  160 1    
    77   38  161 1    
    78   38  162 1    
    79   38  163 1    
    80   39   40 am   BACKBONE|DICT|INTERRES
    81   39  164 1    
    82   40   41 2    
    83   40   42 1    
    84   42   43 1    
    85   42   44 1    
    86   42  165 1    
    87   43  166 1    
    88   43  167 1    
    89   43  168 1    
    90   44   45 am   BACKBONE|DICT|INTERRES
    91   44  169 1    
    92   45   46 2    
    93   45   47 1    
    94   47   48 1    
    95   47   49 1    
    96   47  170 1    
    97   48  171 1    
    98   48  172 1    
    99   48  173 1    
   100   49   50 am   BACKBONE|DICT|INTERRES
   101   49  174 1    
   102   50   51 2    
   103   50   52 1    
   104   52   53 1    
   105   52   54 1    
   106   52  175 1    
   107   53  176 1    
   108   53  177 1    
   109   53  178 1    
   110   54   55 am   BACKBONE|DICT|INTERRES
   111   54  179 1    
   112   55   56 2    
   113   55   57 1    
   114   57   58 1    
   115   57   59 1    
   116   57  180 1    
   117   58  181 1    
   118   58  182 1    
   119   58  183 1    
   120   59   60 am   BACKBONE|DICT|INTERRES
   121   59  184 1    
   122   60   61 2    
   123   60   62 1    
   124   62   63 1    
   125   62   64 1    
   126   62  185 1    
   127   63  186 1    
   128   63  187 1    
   129   63  188 1    
   130   64   65 am   BACKBONE|DICT|INTERRES
   131   64  189 1    
   132   65   66 2    
   133   67   68 2    
   134   67   69 am   BACKBONE|DICT|INTERRES
   135   69   70 1    
   136   69  190 1    
   137   70   71 1    
   138   70   72 1    
   139   70  191 1    
   140   71  192 1    
   141   71  193 1    
   142   71  194 1    
   143   72   73 2    
   144   72   74 am   BACKBONE|DICT|INTERRES
   145   74   75 1    
   146   74  195 1    
   147   75   76 1    
   148   75   77 1    
   149   75  196 1    
   150   76  197 1    
   151   76  198 1    
   152   76  199 1    
   153   77   78 2    
   154   77   79 am   BACKBONE|DICT|INTERRES
   155   79   80 1    
   156   79  200 1    
   157   80   81 1    
   158   80   82 1    
   159   80  201 1    
   160   81  202 1    
   161   81  203 1    
   162   81  204 1    
   163   82   83 2    
   164   82   84 am   BACKBONE|DICT|INTERRES
   165   84   85 1    
   166   84  205 1    
   167   85   86 1    
   168   85   87 1    
   169   85  206 1    
   170   86  207 1    
   171   86  208 1    
   172   86  209 1    
   173   87   88 2    
   174   87   89 am   BACKBONE|DICT|INTERRES
   175   89   90 1    
   176   89  210 1    
   177   90   91 1    
   178   90   92 1    
   179   90  211 1    
   180   91  212 1    
   181   91  213 1    
   182   91  214 1    
   183   92   93 2    
   184   92   94 am   BACKBONE|DICT|INTERRES
   185   94   95 1    
   186   94  215 1    
   187   95   96 1    
   188   95   97 1    
   189   95  216 1    
   190   96  217 1    
   191   96  218 1    
   192   96  219 1    
   193   97   98 2    
   194   97   99 am   BACKBONE|DICT|INTERRES
   195   99  100 1    
   196   99  220 1    
   197  100  101 1    
   198  100  102 1    
   199  100  221 1    
   200  101  222 1    
   201  101  223 1    
   202  101  224 1    
   203  102  103 2    
   204  102  104 am   BACKBONE|DICT|INTERRES
   205  104  105 1    
   206  104  225 1    
   207  105  106 1    
   208  105  107 1    
   209  105  226 1    
   210  106  227 1    
   211  106  228 1    
   212  106  229 1    
   213  107  108 2    
   214  107  109 am   BACKBONE|DICT|INTERRES
   215  109  110 1    
   216  109  230 1    
   217  110  111 1    
   218  110  112 1    
   219  110  231 1    
   220  111  232 1    
   221  111  233 1    
   222  111  234 1    
   223  112  113 2    
   224  112  114 am   BACKBONE|DICT|INTERRES
   225  114  115 1    
   226  114  235 1    
   227  115  116 1    
   228  115  117 1    
   229  115  236 1    
   230  116  237 1    
   231  116  238 1    
   232  116  239 1    
   233  117  118 2    
   234  117  119 am   BACKBONE|DICT|INTERRES
   235  119  120 1    
   236  119  240 1    
   237  120  121 1    
   238  120  124 1    
   239  120  241 1    
   240  121  122 am   BACKBONE|DICT|INTERRES
   241  121  123 2    
   242  122  242 1    
   243  122  243 1    
   244  124  125 1    
   245  124  244 1    
   246  124  245 1    
   247  125  126 1    
   248  126  246 1    
   249  126  247 1    
@<TRIPOS>SUBSTRUCTURE
     1 UNK         1 GROUP             0       ****    0 ROOT    
