@<TRIPOS>MOLECULE
3R540
247   249    1
SMALL
USER_CHARGES


@<TRIPOS>ATOM
      1 CA          2.3448  -17.7035  -44.2867 C.3       0 UNK        -0.1800 
      2 C           3.0172  -16.8645  -45.3641 C.2       0 UNK         0.5000 
      3 O           3.9069  -17.3561  -46.0564 O.2       0 UNK        -0.5000 
      4 N           2.6043  -15.5965  -45.4963 N.am      1 UNK        -0.5000 
      5 CA          3.0778  -14.6163  -46.4839 C.3       1 UNK         0.1400 
      6 C6          2.9571  -15.1158  -47.9506 C.3       23 UNK        -0.0398 
      7 S7          2.4921  -13.7993  -49.1275 S.3       23 UNK        -0.2404 
      8 C8          2.9335  -14.5770  -50.7166 C.3       23 UNK        -0.0205 
      9 C9          2.0937  -15.8184  -50.9832 C.ar      23 UNK        -0.0193 
     10 C10         0.8198  -15.7038  -51.5468 C.ar      23 UNK        -0.1150 
     11 C11         0.0186  -16.8338  -51.7500 C.ar      23 UNK        -0.0193 
     12 C12         0.5160  -18.0918  -51.3789 C.ar      23 UNK        -0.1150 
     13 C13         1.7863  -18.2181  -50.8113 C.ar      23 UNK        -0.0193 
     14 C14         2.5789  -17.0811  -50.6361 C.ar      23 UNK        -0.1150 
     15 C15         2.2909  -19.5785  -50.3546 C.3       23 UNK        -0.0205 
     16 S16         2.4825  -19.6536  -48.5439 S.3       23 UNK        -0.2404 
     17 C17         0.7656  -19.4404  -47.9592 C.3       23 UNK        -0.0398 
     18 CA          0.1594  -20.7663  -47.4456 C.3       11 UNK         0.1400 
     19 N          -0.8491  -20.5492  -46.4046 N.am      11 UNK        -0.5000 
     20 C          -1.3530  -21.5292  -45.6409 C.2       10 UNK         0.5000 
     21 O          -1.0377  -22.7125  -45.7537 O.2       10 UNK        -0.5000 
     22 CA         -2.3909  -21.1303  -44.5828 C.3       10 UNK         0.1400 
     23 CB         -1.6896  -20.6361  -43.3150 C.3       10 UNK        -0.1800 
     24 N          -3.3051  -20.0996  -45.0644 N.am      10 UNK        -0.5000 
     25 C          -4.2774  -20.3234  -45.9577 C.2       9 UNK         0.5000 
     26 O          -4.5081  -21.4194  -46.4699 O.2       9 UNK        -0.5000 
     27 CA         -5.0888  -19.0930  -46.3954 C.3       9 UNK         0.1400 
     28 CB         -6.0145  -18.6066  -45.2703 C.3       9 UNK        -0.1800 
     29 N          -4.2343  -17.9927  -46.8371 N.am      9 UNK        -0.5000 
     30 C          -3.3450  -18.0623  -47.8382 C.2       8 UNK         0.5000 
     31 O          -3.1866  -19.0563  -48.5452 O.2       8 UNK        -0.5000 
     32 CA         -2.4686  -16.8211  -48.0760 C.3       8 UNK         0.1400 
     33 CB         -3.1304  -15.9087  -49.1188 C.3       8 UNK        -0.1800 
     34 N          -2.2120  -16.0357  -46.8668 N.am      8 UNK        -0.5000 
     35 C          -1.6102  -16.4637  -45.7480 C.2       7 UNK         0.5000 
     36 O          -1.1666  -17.6072  -45.6031 O.2       7 UNK        -0.5000 
     37 CA         -1.4896  -15.4018  -44.6340 C.3       7 UNK         0.1400 
     38 CB         -2.8386  -14.7105  -44.3326 C.3       7 UNK        -0.1800 
     39 N          -0.8760  -15.8812  -43.3925 N.am      7 UNK        -0.5000 
     40 C          -1.3568  -16.7757  -42.5143 C.2       6 UNK         0.5000 
     41 O          -2.4174  -17.3851  -42.6680 O.2       6 UNK        -0.5000 
     42 CA         -0.5266  -17.0206  -41.2294 C.3       6 UNK         0.1400 
     43 CB         -0.0854  -18.4872  -41.1074 C.3       6 UNK        -0.1800 
     44 N           0.6680  -16.1779  -41.1279 N.am      6 UNK        -0.5000 
     45 C           0.6815  -14.9001  -40.7294 C.2       5 UNK         0.5000 
     46 O          -0.3236  -14.2915  -40.3576 O.2       5 UNK        -0.5000 
     47 CA          2.0359  -14.1587  -40.7811 C.3       5 UNK         0.1400 
     48 CB          3.2325  -15.0391  -41.2107 C.3       5 UNK        -0.1800 
     49 N           1.9593  -12.9647  -41.6277 N.am      5 UNK        -0.5000 
     50 C           1.5861  -12.9168  -42.9151 C.2       4 UNK         0.5000 
     51 O           1.3071  -13.9087  -43.5917 O.2       4 UNK        -0.5000 
     52 CA          1.5933  -11.5302  -43.5653 C.3       4 UNK         0.1400 
     53 CB          0.6797  -10.5290  -42.8328 C.3       4 UNK        -0.1800 
     54 N           2.9738  -11.0672  -43.5962 N.am      4 UNK        -0.5000 
     55 C           3.4862  -10.1484  -44.4195 C.2       3 UNK         0.5000 
     56 O           2.8096   -9.4541  -45.1785 O.2       3 UNK        -0.5000 
     57 CA          5.0248  -10.0317  -44.4467 C.3       3 UNK         0.1400 
     58 CB          5.5660   -9.2573  -43.2284 C.3       3 UNK        -0.1800 
     59 N           5.6808  -11.3371  -44.6234 N.am      3 UNK        -0.5000 
     60 C           5.7535  -12.3637  -43.7643 C.2       2 UNK         0.5000 
     61 O           5.3689  -12.3140  -42.5942 O.2       2 UNK        -0.5000 
     62 CA          6.1852  -13.7103  -44.3704 C.3       2 UNK         0.1400 
     63 CB          6.7937  -14.6618  -43.3260 C.3       2 UNK        -0.1800 
     64 N           5.0053  -14.3421  -44.9598 N.am      2 UNK        -0.5000 
     65 C           4.4687  -14.0244  -46.1469 C.2       1 UNK         0.5000 
     66 O           5.0134  -13.2499  -46.9355 O.2       1 UNK        -0.5000 
     67 C          -0.3659  -21.6514  -48.5969 C.2       11 UNK         0.5000 
     68 O           0.3370  -22.5662  -49.0274 O.2       11 UNK        -0.5000 
     69 N          -1.6082  -21.4086  -49.0407 N.am      12 UNK        -0.5000 
     70 CA         -2.2819  -22.2335  -50.0435 C.3       12 UNK         0.1400 
     71 CB         -3.5437  -21.5214  -50.5399 C.3       12 UNK        -0.1800 
     72 C          -2.6222  -23.6373  -49.5121 C.2       12 UNK         0.5000 
     73 O          -2.4670  -24.6095  -50.2496 O.2       12 UNK        -0.5000 
     74 N          -3.0256  -23.7313  -48.2354 N.am      13 UNK        -0.5000 
     75 CA         -3.2838  -25.0009  -47.5513 C.3       13 UNK         0.1400 
     76 CB         -3.9323  -24.7409  -46.1840 C.3       13 UNK        -0.1800 
     77 C          -2.0166  -25.8658  -47.4137 C.2       13 UNK         0.5000 
     78 O          -2.0763  -27.0707  -47.6587 O.2       13 UNK        -0.5000 
     79 N          -0.8796  -25.2324  -47.0905 N.am      14 UNK        -0.5000 
     80 CA          0.4469  -25.8551  -47.0514 C.3       14 UNK         0.1400 
     81 CB          1.4546  -24.8712  -46.4379 C.3       14 UNK        -0.1800 
     82 C           0.9292  -26.3399  -48.4340 C.2       14 UNK         0.5000 
     83 O           1.6329  -27.3472  -48.5128 O.2       14 UNK        -0.5000 
     84 N           0.5063  -25.6444  -49.4983 N.am      15 UNK        -0.5000 
     85 CA          0.7200  -26.0192  -50.8984 C.3       15 UNK         0.1400 
     86 CB          0.6704  -24.7488  -51.7642 C.3       15 UNK        -0.1800 
     87 C          -0.2789  -27.0839  -51.4100 C.2       15 UNK         0.5000 
     88 O          -0.1955  -27.4652  -52.5784 O.2       15 UNK        -0.5000 
     89 N          -1.1943  -27.5450  -50.5428 N.am      16 UNK        -0.5000 
     90 CA         -2.2397  -28.5473  -50.7777 C.3       16 UNK         0.1400 
     91 CB         -1.6329  -29.9112  -51.1714 C.3       16 UNK        -0.1800 
     92 C          -3.3563  -28.0790  -51.7354 C.2       16 UNK         0.5000 
     93 O          -4.0157  -28.9126  -52.3604 O.2       16 UNK        -0.5000 
     94 N          -3.5755  -26.7617  -51.8096 N.am      17 UNK        -0.5000 
     95 CA         -4.7073  -26.1303  -52.4832 C.3       17 UNK         0.1400 
     96 CB         -4.1874  -24.9049  -53.2559 C.3       17 UNK        -0.1800 
     97 C          -5.7685  -25.7225  -51.4426 C.2       17 UNK         0.5000 
     98 O          -5.5611  -25.8900  -50.2374 O.2       17 UNK        -0.5000 
     99 N          -6.8949  -25.1795  -51.9206 N.am      18 UNK        -0.5000 
    100 CA        -7.8967  -24.5238  -51.0775 C.3       18 UNK         0.1400 
    101 CB        -9.1954  -24.3488  -51.8792 C.3       18 UNK        -0.1800 
    102 C         -7.3732  -23.1694  -50.5592 C.2       18 UNK         0.5000 
    103 O         -6.5273  -22.5519  -51.2107 O.2       18 UNK        -0.5000 
    104 N         -7.8824  -22.7319  -49.4003 N.am      19 UNK        -0.5000 
    105 CA        -7.4605  -21.5176  -48.6983 C.3       19 UNK         0.1400 
    106 CB        -8.2906  -21.3583  -47.4148 C.3       19 UNK        -0.1800 
    107 C         -7.5445  -20.2514  -49.5749 C.2       19 UNK         0.5000 
    108 O         -8.6381  -19.8727  -49.9985 O.2       19 UNK        -0.5000 
    109 N         -6.3755  -19.6487  -49.8349 N.am      20 UNK        -0.5000 
    110 CA        -6.1415  -18.4535  -50.6492 C.3       20 UNK         0.1400 
    111 CB        -6.8165  -17.2162  -50.0233 C.3       20 UNK        -0.1800 
    112 C         -6.4598  -18.6214  -52.1525 C.2       20 UNK         0.5000 
    113 O         -6.5607  -17.6184  -52.8625 O.2       20 UNK        -0.5000 
    114 N         -6.5436  -19.8702  -52.6452 N.am      21 UNK        -0.5000 
    115 CA        -6.7363  -20.1943  -54.0683 C.3       21 UNK         0.1400 
    116 CB        -7.0527  -21.6890  -54.2155 C.3       21 UNK        -0.1800 
    117 C         -5.5388  -19.8060  -54.9622 C.2       21 UNK         0.5000 
    118 O         -5.6812  -19.7421  -56.1839 O.2       21 UNK        -0.5000 
    119 N         -4.3945  -19.5285  -54.3283 N.am      22 UNK        -0.5000 
    120 CA        -3.1991  -18.8979  -54.9015 C.3       22 UNK         0.1400 
    121 C         -3.4164  -17.4608  -55.4699 C.2       22 UNK         0.5000 
    122 N         -4.4730  -16.7457  -55.0949 N.am      22 UNK        -0.7600 
    123 O         -2.6103  -16.9908  -56.2684 O.2       22 UNK        -0.5000 
    124 C124       -2.0389  -18.9232  -53.8723 C.3       23 UNK        -0.0398 
    125 S125       -2.4737  -18.0879  -52.3009 S.3       23 UNK        -0.2404 
    126 C126       -1.3742  -16.6310  -52.3503 C.3       23 UNK        -0.0205 
    127 H127        1.5685  -17.1411  -43.7650 H         1 UNK         0.0600 
    128 H128        3.0816  -18.0365  -43.5518 H         1 UNK         0.0600 
    129 H129        1.8795  -18.5846  -44.7350 H         1 UNK         0.0600 
    130 H130        1.9277  -15.2176  -44.8386 H         1 UNK         0.3000 
    131 H131        2.3856  -13.7813  -46.3625 H         1 UNK         0.0600 
    132 H132        3.8793  -15.6012  -48.2756 H         1 UNK         0.0800 
    133 H133        2.1792  -15.8778  -48.0210 H         1 UNK         0.0800 
    134 H134        2.7860  -13.8527  -51.5194 H         1 UNK         0.0800 
    135 H135        3.9969  -14.8236  -50.7207 H         1 UNK         0.0800 
    136 H136        0.4433  -14.7251  -51.8116 H         1 UNK         0.1150 
    137 H137       -0.0814  -18.9829  -51.5087 H         1 UNK         0.1150 
    138 H138        3.5589  -17.1787  -50.1900 H         1 UNK         0.1150 
    139 H139        1.6231  -20.3778  -50.6801 H         1 UNK         0.0800 
    140 H140        3.2570  -19.7759  -50.8215 H         1 UNK         0.0800 
    141 H141        0.1370  -18.9815  -48.7228 H         1 UNK         0.0800 
    142 H142        0.8139  -18.7137  -47.1472 H         1 UNK         0.0800 
    143 H143        0.9602  -21.3293  -46.9599 H         1 UNK         0.0600 
    144 H144       -1.1312  -19.5916  -46.2231 H         1 UNK         0.3000 
    145 H145       -2.9728  -22.0178  -44.3256 H         1 UNK         0.0600 
    146 H146       -1.0269  -21.4005  -42.9073 H         1 UNK         0.0600 
    147 H147       -1.0870  -19.7513  -43.5212 H         1 UNK         0.0600 
    148 H148       -2.4130  -20.3812  -42.5404 H         1 UNK         0.0600 
    149 H149       -3.1474  -19.1592  -44.7267 H         1 UNK         0.3000 
    150 H150       -5.7125  -19.3893  -47.2370 H         1 UNK         0.0600 
    151 H151       -6.6702  -17.8085  -45.6190 H         1 UNK         0.0600 
    152 H152       -5.4509  -18.2284  -44.4162 H         1 UNK         0.0600 
    153 H153       -6.6519  -19.4156  -44.9108 H         1 UNK         0.0600 
    154 H154       -4.2905  -17.1345  -46.3100 H         1 UNK         0.3000 
    155 H155       -1.5096  -17.1626  -48.4703 H         1 UNK         0.0600 
    156 H156       -3.3965  -16.4653  -50.0168 H         1 UNK         0.0600 
    157 H157       -2.4598  -15.1040  -49.4208 H         1 UNK         0.0600 
    158 H158       -4.0478  -15.4585  -48.7371 H         1 UNK         0.0600 
    159 H159       -2.5271  -15.0769  -46.8980 H         1 UNK         0.3000 
    160 H160       -0.8107  -14.6411  -45.0213 H         1 UNK         0.0600 
    161 H161       -3.2031  -14.1455  -45.1909 H         1 UNK         0.0600 
    162 H162       -2.7398  -14.0027  -43.5088 H         1 UNK         0.0600 
    163 H163       -3.6127  -15.4295  -44.0616 H         1 UNK         0.0600 
    164 H164       -0.0015  -15.4238  -43.1619 H         1 UNK         0.3000 
    165 H165       -1.1805  -16.7985  -40.3825 H         1 UNK         0.0600 
    166 H166        0.5037  -18.6493  -40.2033 H         1 UNK         0.0600 
    167 H167       -0.9506  -19.1467  -41.0426 H         1 UNK         0.0600 
    168 H168        0.5174  -18.8018  -41.9612 H         1 UNK         0.0600 
    169 H169        1.5400  -16.6007  -41.4095 H         1 UNK         0.3000 
    170 H170        2.2298  -13.8106  -39.7655 H         1 UNK         0.0600 
    171 H171        4.1598  -14.4688  -41.1612 H         1 UNK         0.0600 
    172 H172        3.3545  -15.8961  -40.5472 H         1 UNK         0.0600 
    173 H173        3.1320  -15.4122  -42.2300 H         1 UNK         0.0600 
    174 H174        2.1566  -12.0919  -41.1592 H         1 UNK         0.3000 
    175 H175        1.2354  -11.6470  -44.5908 H         1 UNK         0.0600 
    176 H176        1.0463  -10.2954  -41.8325 H         1 UNK         0.0600 
    177 H177        0.6041   -9.5914  -43.3835 H         1 UNK         0.0600 
    178 H178       -0.3315  -10.9261  -42.7310 H         1 UNK         0.0600 
    179 H179        3.6332  -11.6023  -43.0354 H         1 UNK         0.3000 
    180 H180        5.2812   -9.4535  -45.3362 H         1 UNK         0.0600 
    181 H181        6.6525   -9.1742  -43.2654 H         1 UNK         0.0600 
    182 H182        5.2966   -9.7295  -42.2833 H         1 UNK         0.0600 
    183 H183        5.1628   -8.2440  -43.2068 H         1 UNK         0.0600 
    184 H184        5.9413  -11.5399  -45.5811 H         1 UNK         0.3000 
    185 H185        6.9364  -13.5276  -45.1424 H         1 UNK         0.0600 
    186 H186        7.1331  -15.5879  -43.7910 H         1 UNK         0.0600 
    187 H187        7.6575  -14.2052  -42.8410 H         1 UNK         0.0600 
    188 H188        6.0792  -14.9249  -42.5455 H         1 UNK         0.0600 
    189 H189        4.4866  -14.9698  -44.3641 H         1 UNK         0.3000 
    190 H190       -2.1356  -20.6206  -48.6725 H         1 UNK         0.3000 
    191 H191       -1.6061  -22.3475  -50.8938 H         1 UNK         0.0600 
    192 H192       -4.2974  -21.4670  -49.7553 H         1 UNK         0.0600 
    193 H193       -3.9791  -22.0528  -51.3859 H         1 UNK         0.0600 
    194 H194       -3.3248  -20.5085  -50.8732 H         1 UNK         0.0600 
    195 H195       -3.1440  -22.8874  -47.6903 H         1 UNK         0.3000 
    196 H196       -3.9975  -25.5635  -48.1552 H         1 UNK         0.0600 
    197 H197       -4.1628  -25.6793  -45.6782 H         1 UNK         0.0600 
    198 H198       -4.8680  -24.1916  -46.2909 H         1 UNK         0.0600 
    199 H199       -3.2794  -24.1670  -45.5273 H         1 UNK         0.0600 
    200 H200       -0.9256  -24.2482  -46.8371 H         1 UNK         0.3000 
    201 H201        0.3847  -26.7289  -46.3995 H         1 UNK         0.0600 
    202 H202        1.1570  -24.5792  -45.4304 H         1 UNK         0.0600 
    203 H203        1.5461  -23.9636  -47.0350 H         1 UNK         0.0600 
    204 H204        2.4463  -25.3197  -46.3676 H         1 UNK         0.0600 
    205 H205       -0.0355  -24.8041  -49.3382 H         1 UNK         0.3000 
    206 H206        1.7197  -26.4477  -50.9940 H         1 UNK         0.0600 
    207 H207        1.3739  -23.9972  -51.4046 H         1 UNK         0.0600 
    208 H208        0.9334  -24.9699  -52.7994 H         1 UNK         0.0600 
    209 H209       -0.3230  -24.3016  -51.7696 H         1 UNK         0.0600 
    210 H210       -1.1998  -27.1456  -49.6119 H         1 UNK         0.3000 
    211 H211       -2.7296  -28.6848  -49.8129 H         1 UNK         0.0600 
    212 H212       -1.1989  -29.8907  -52.1713 H         1 UNK         0.0600 
    213 H213       -2.3928  -30.6936  -51.1638 H         1 UNK         0.0600 
    214 H214       -0.8531  -30.2127  -50.4718 H         1 UNK         0.0600 
    215 H215       -3.0363  -26.1409  -51.2098 H         1 UNK         0.3000 
    216 H216       -5.1692  -26.8209  -53.1914 H         1 UNK         0.0600 
    217 H217       -4.9771  -24.4473  -53.8522 H         1 UNK         0.0600 
    218 H218       -3.3867  -25.1837  -53.9417 H         1 UNK         0.0600 
    219 H219       -3.7980  -24.1396  -52.5840 H         1 UNK         0.0600 
    220 H220       -6.9903  -25.0443  -52.9160 H         1 UNK         0.3000 
    221 H221       -8.1065  -25.1650  -50.2185 H         1 UNK         0.0600 
    222 H222       -9.0392  -23.7658  -52.7860 H         1 UNK         0.0600 
    223 H223       -9.6071  -25.3148  -52.1727 H         1 UNK         0.0600 
    224 H224       -9.9571  -23.8390  -51.2877 H         1 UNK         0.0600 
    225 H225       -8.5962  -23.2816  -48.9451 H         1 UNK         0.3000 
    226 H226       -6.4206  -21.6688  -48.4025 H         1 UNK         0.0600 
    227 H227       -8.1346  -22.1982  -46.7375 H         1 UNK         0.0600 
    228 H228       -8.0107  -20.4525  -46.8761 H         1 UNK         0.0600 
    229 H229       -9.3576  -21.2929  -47.6315 H         1 UNK         0.0600 
    230 H230       -5.5332  -20.0679  -49.4656 H         1 UNK         0.3000 
    231 H231       -5.0651  -18.2840  -50.6042 H         1 UNK         0.0600 
    232 H232       -7.9036  -17.2713  -50.0872 H         1 UNK         0.0600 
    233 H233       -6.5452  -17.1091  -48.9727 H         1 UNK         0.0600 
    234 H234       -6.5054  -16.3020  -50.5301 H         1 UNK         0.0600 
    235 H235       -6.4599  -20.6608  -52.0132 H         1 UNK         0.3000 
    236 H236       -7.6004  -19.6292  -54.4246 H         1 UNK         0.0600 
    237 H237       -6.2267  -22.3099  -53.8668 H         1 UNK         0.0600 
    238 H238       -7.9423  -21.9518  -53.6452 H         1 UNK         0.0600 
    239 H239       -7.2453  -21.9516  -55.2569 H         1 UNK         0.0600 
    240 H240       -4.3910  -19.6121  -53.3232 H         1 UNK         0.3000 
    241 H241       -2.8989  -19.5137  -55.7513 H         1 UNK         0.0600 
    242 H242       -4.6028  -15.8207  -55.4726 H         1 UNK         0.3800 
    243 H243       -5.1333  -17.1068  -54.4173 H         1 UNK         0.3800 
    244 H244       -1.1308  -18.4906  -54.2962 H         1 UNK         0.0800 
    245 H245       -1.7838  -19.9576  -53.6376 H         1 UNK         0.0800 
    246 H246       -1.8697  -15.8243  -51.8084 H         1 UNK         0.0800 
    247 H247       -1.2757  -16.2813  -53.3795 H         1 UNK         0.0800 
@<TRIPOS>BOND
     1    1    2 1    
     2    1  127 1    
     3    1  128 1    
     4    1  129 1    
     5    2    3 2    
     6    2    4 am   BACKBONE|DICT|INTERRES
     7    4    5 1    
     8    4  130 1    
     9    5    6 1    
    10    5   65 1    
    11    5  131 1    
    12    6    7 1    
    13    6  132 1    
    14    6  133 1    
    15    7    8 1    
    16    8    9 1    
    17    8  134 1    
    18    8  135 1    
    19    9   10 ar   
    20    9   14 ar   
    21   10   11 ar   
    22   10  136 1    
    23   11   12 ar   
    24   11  126 1    
    25   12   13 ar   
    26   12  137 1    
    27   13   14 ar   
    28   13   15 1    
    29   14  138 1    
    30   15   16 1    
    31   15  139 1    
    32   15  140 1    
    33   16   17 1    
    34   17   18 1    
    35   17  141 1    
    36   17  142 1    
    37   18   19 1    
    38   18   67 1    
    39   18  143 1    
    40   19   20 am   BACKBONE|DICT|INTERRES
    41   19  144 1    
    42   20   21 2    
    43   20   22 1    
    44   22   23 1    
    45   22   24 1    
    46   22  145 1    
    47   23  146 1    
    48   23  147 1    
    49   23  148 1    
    50   24   25 am   BACKBONE|DICT|INTERRES
    51   24  149 1    
    52   25   26 2    
    53   25   27 1    
    54   27   28 1    
    55   27   29 1    
    56   27  150 1    
    57   28  151 1    
    58   28  152 1    
    59   28  153 1    
    60   29   30 am   BACKBONE|DICT|INTERRES
    61   29  154 1    
    62   30   31 2    
    63   30   32 1    
    64   32   33 1    
    65   32   34 1    
    66   32  155 1    
    67   33  156 1    
    68   33  157 1    
    69   33  158 1    
    70   34   35 am   BACKBONE|DICT|INTERRES
    71   34  159 1    
    72   35   36 2    
    73   35   37 1    
    74   37   38 1    
    75   37   39 1    
    76   37  160 1    
    77   38  161 1    
    78   38  162 1    
    79   38  163 1    
    80   39   40 am   BACKBONE|DICT|INTERRES
    81   39  164 1    
    82   40   41 2    
    83   40   42 1    
    84   42   43 1    
    85   42   44 1    
    86   42  165 1    
    87   43  166 1    
    88   43  167 1    
    89   43  168 1    
    90   44   45 am   BACKBONE|DICT|INTERRES
    91   44  169 1    
    92   45   46 2    
    93   45   47 1    
    94   47   48 1    
    95   47   49 1    
    96   47  170 1    
    97   48  171 1    
    98   48  172 1    
    99   48  173 1    
   100   49   50 am   BACKBONE|DICT|INTERRES
   101   49  174 1    
   102   50   51 2    
   103   50   52 1    
   104   52   53 1    
   105   52   54 1    
   106   52  175 1    
   107   53  176 1    
   108   53  177 1    
   109   53  178 1    
   110   54   55 am   BACKBONE|DICT|INTERRES
   111   54  179 1    
   112   55   56 2    
   113   55   57 1    
   114   57   58 1    
   115   57   59 1    
   116   57  180 1    
   117   58  181 1    
   118   58  182 1    
   119   58  183 1    
   120   59   60 am   BACKBONE|DICT|INTERRES
   121   59  184 1    
   122   60   61 2    
   123   60   62 1    
   124   62   63 1    
   125   62   64 1    
   126   62  185 1    
   127   63  186 1    
   128   63  187 1    
   129   63  188 1    
   130   64   65 am   BACKBONE|DICT|INTERRES
   131   64  189 1    
   132   65   66 2    
   133   67   68 2    
   134   67   69 am   BACKBONE|DICT|INTERRES
   135   69   70 1    
   136   69  190 1    
   137   70   71 1    
   138   70   72 1    
   139   70  191 1    
   140   71  192 1    
   141   71  193 1    
   142   71  194 1    
   143   72   73 2    
   144   72   74 am   BACKBONE|DICT|INTERRES
   145   74   75 1    
   146   74  195 1    
   147   75   76 1    
   148   75   77 1    
   149   75  196 1    
   150   76  197 1    
   151   76  198 1    
   152   76  199 1    
   153   77   78 2    
   154   77   79 am   BACKBONE|DICT|INTERRES
   155   79   80 1    
   156   79  200 1    
   157   80   81 1    
   158   80   82 1    
   159   80  201 1    
   160   81  202 1    
   161   81  203 1    
   162   81  204 1    
   163   82   83 2    
   164   82   84 am   BACKBONE|DICT|INTERRES
   165   84   85 1    
   166   84  205 1    
   167   85   86 1    
   168   85   87 1    
   169   85  206 1    
   170   86  207 1    
   171   86  208 1    
   172   86  209 1    
   173   87   88 2    
   174   87   89 am   BACKBONE|DICT|INTERRES
   175   89   90 1    
   176   89  210 1    
   177   90   91 1    
   178   90   92 1    
   179   90  211 1    
   180   91  212 1    
   181   91  213 1    
   182   91  214 1    
   183   92   93 2    
   184   92   94 am   BACKBONE|DICT|INTERRES
   185   94   95 1    
   186   94  215 1    
   187   95   96 1    
   188   95   97 1    
   189   95  216 1    
   190   96  217 1    
   191   96  218 1    
   192   96  219 1    
   193   97   98 2    
   194   97   99 am   BACKBONE|DICT|INTERRES
   195   99  100 1    
   196   99  220 1    
   197  100  101 1    
   198  100  102 1    
   199  100  221 1    
   200  101  222 1    
   201  101  223 1    
   202  101  224 1    
   203  102  103 2    
   204  102  104 am   BACKBONE|DICT|INTERRES
   205  104  105 1    
   206  104  225 1    
   207  105  106 1    
   208  105  107 1    
   209  105  226 1    
   210  106  227 1    
   211  106  228 1    
   212  106  229 1    
   213  107  108 2    
   214  107  109 am   BACKBONE|DICT|INTERRES
   215  109  110 1    
   216  109  230 1    
   217  110  111 1    
   218  110  112 1    
   219  110  231 1    
   220  111  232 1    
   221  111  233 1    
   222  111  234 1    
   223  112  113 2    
   224  112  114 am   BACKBONE|DICT|INTERRES
   225  114  115 1    
   226  114  235 1    
   227  115  116 1    
   228  115  117 1    
   229  115  236 1    
   230  116  237 1    
   231  116  238 1    
   232  116  239 1    
   233  117  118 2    
   234  117  119 am   BACKBONE|DICT|INTERRES
   235  119  120 1    
   236  119  240 1    
   237  120  121 1    
   238  120  124 1    
   239  120  241 1    
   240  121  122 am   BACKBONE|DICT|INTERRES
   241  121  123 2    
   242  122  242 1    
   243  122  243 1    
   244  124  125 1    
   245  124  244 1    
   246  124  245 1    
   247  125  126 1    
   248  126  246 1    
   249  126  247 1    
@<TRIPOS>SUBSTRUCTURE
     1 UNK         1 GROUP             0       ****    0 ROOT    
