@<TRIPOS>MOLECULE
3R540
247   249    1
SMALL
USER_CHARGES


@<TRIPOS>ATOM
      1 CA         -1.1128  -16.9214  -50.9177 C.3       0 UNK        -0.1800 
      2 C          -1.1860  -16.4331  -49.4826 C.2       0 UNK         0.5000 
      3 O          -0.6593  -17.0868  -48.5860 O.2       0 UNK        -0.5000 
      4 N          -1.8123  -15.2735  -49.2582 N.am      1 UNK        -0.5000 
      5 CA         -1.9266  -14.5631  -47.9774 C.3       1 UNK         0.1400 
      6 C6         -3.1562  -13.6093  -47.9522 C.3       23 UNK        -0.0398 
      7 S7         -3.3847  -12.6170  -49.4778 S.3       23 UNK        -0.2404 
      8 C8         -5.0033  -13.1962  -50.0941 C.3       23 UNK        -0.0205 
      9 C9         -5.0004  -14.6763  -50.4535 C.ar      23 UNK        -0.0193 
     10 C10        -4.4224  -15.1154  -51.6483 C.ar      23 UNK        -0.1150 
     11 C11        -4.3966  -16.4778  -51.9634 C.ar      23 UNK        -0.0193 
     12 C12        -4.9457  -17.4029  -51.0713 C.ar      23 UNK        -0.1150 
     13 C13        -5.5439  -16.9758  -49.8830 C.ar      23 UNK        -0.0193 
     14 C14        -5.5804  -15.6094  -49.5892 C.ar      23 UNK        -0.1150 
     15 C15        -6.1532  -17.9923  -48.9243 C.3       23 UNK        -0.0205 
     16 S16        -5.5406  -17.8114  -47.2157 S.3       23 UNK        -0.2404 
     17 C17        -3.7589  -18.1641  -47.4218 C.3       23 UNK        -0.0398 
     18 CA         -3.3059  -19.5134  -46.8199 C.3       11 UNK         0.1400 
     19 N          -3.6297  -19.6148  -45.3897 N.am      11 UNK        -0.5000 
     20 C          -3.1415  -20.5459  -44.5645 C.2       10 UNK         0.5000 
     21 O          -2.3693  -21.4367  -44.9280 O.2       10 UNK        -0.5000 
     22 CA         -3.6351  -20.5225  -43.1148 C.3       10 UNK         0.1400 
     23 CB         -4.9654  -21.2849  -42.9850 C.3       10 UNK        -0.1800 
     24 N          -2.6175  -21.1572  -42.2875 N.am      10 UNK        -0.5000 
     25 C          -2.4186  -20.9442  -40.9838 C.2       9 UNK         0.5000 
     26 O          -3.1213  -20.1983  -40.2999 O.2       9 UNK        -0.5000 
     27 CA         -1.2379  -21.6799  -40.3254 C.3       9 UNK         0.1400 
     28 CB         -0.6793  -22.8486  -41.1649 C.3       9 UNK        -0.1800 
     29 N          -0.1716  -20.7139  -40.0891 N.am      9 UNK        -0.5000 
     30 C           0.1290  -20.1561  -38.9104 C.2       8 UNK         0.5000 
     31 O          -0.4153  -20.4529  -37.8459 O.2       8 UNK        -0.5000 
     32 CA          1.2209  -19.0697  -38.9282 C.3       8 UNK         0.1400 
     33 CB          2.6182  -19.6953  -39.0608 C.3       8 UNK        -0.1800 
     34 N           1.0193  -18.0957  -40.0015 N.am      8 UNK        -0.5000 
     35 C           0.0348  -17.1850  -40.0282 C.2       7 UNK         0.5000 
     36 O          -0.7865  -17.0370  -39.1227 O.2       7 UNK        -0.5000 
     37 CA         -0.0490  -16.2884  -41.2753 C.3       7 UNK         0.1400 
     38 CB          0.8169  -15.0327  -41.1014 C.3       7 UNK        -0.1800 
     39 N           0.3697  -17.0116  -42.4751 N.am      7 UNK        -0.5000 
     40 C          -0.4550  -17.7677  -43.2119 C.2       6 UNK         0.5000 
     41 O          -1.6670  -17.8425  -43.0143 O.2       6 UNK        -0.5000 
     42 CA          0.1633  -18.5979  -44.3527 C.3       6 UNK         0.1400 
     43 CB         -0.0163  -17.8912  -45.6973 C.3       6 UNK        -0.1800 
     44 N           1.5796  -18.9054  -44.1659 N.am      6 UNK        -0.5000 
     45 C           2.0521  -19.7435  -43.2362 C.2       5 UNK         0.5000 
     46 O           1.3372  -20.3547  -42.4446 O.2       5 UNK        -0.5000 
     47 CA          3.5812  -19.8928  -43.1491 C.3       5 UNK         0.1400 
     48 CB          4.0514  -21.0332  -44.0645 C.3       5 UNK        -0.1800 
     49 N           4.3310  -18.6737  -43.4731 N.am      5 UNK        -0.5000 
     50 C           4.1904  -17.4791  -42.8784 C.2       4 UNK         0.5000 
     51 O           3.3312  -17.2518  -42.0242 O.2       4 UNK        -0.5000 
     52 CA          5.1614  -16.3570  -43.3067 C.3       4 UNK         0.1400 
     53 CB          6.1657  -16.7775  -44.3999 C.3       4 UNK        -0.1800 
     54 N           4.4246  -15.1893  -43.7849 N.am      4 UNK        -0.5000 
     55 C           3.9966  -14.1691  -43.0291 C.2       3 UNK         0.5000 
     56 O           4.2020  -14.0838  -41.8179 O.2       3 UNK        -0.5000 
     57 CA          3.2430  -13.0263  -43.7458 C.3       3 UNK         0.1400 
     58 CB          4.0551  -11.7221  -43.6834 C.3       3 UNK        -0.1800 
     59 N           2.9349  -13.3134  -45.1511 N.am      3 UNK        -0.5000 
     60 C           1.9132  -14.0701  -45.5683 C.2       2 UNK         0.5000 
     61 O           1.1120  -14.6136  -44.8062 O.2       2 UNK        -0.5000 
     62 CA          1.8202  -14.2952  -47.0899 C.3       2 UNK         0.1400 
     63 CB          2.8020  -15.3948  -47.5297 C.3       2 UNK        -0.1800 
     64 N           0.4773  -14.6844  -47.5115 N.am      2 UNK        -0.5000 
     65 C          -0.5942  -13.8850  -47.5675 C.2       1 UNK         0.5000 
     66 O          -0.5480  -12.6770  -47.3273 O.2       1 UNK        -0.5000 
     67 C          -3.8155  -20.7081  -47.6562 C.2       11 UNK         0.5000 
     68 O          -3.2745  -20.9676  -48.7275 O.2       11 UNK        -0.5000 
     69 N          -4.8314  -21.4207  -47.1510 N.am      12 UNK        -0.5000 
     70 CA         -5.3355  -22.6641  -47.7314 C.3       12 UNK         0.1400 
     71 CB         -6.7987  -22.8491  -47.3019 C.3       12 UNK        -0.1800 
     72 C          -4.4932  -23.8939  -47.3314 C.2       12 UNK         0.5000 
     73 O          -4.5854  -24.9213  -48.0035 O.2       12 UNK        -0.5000 
     74 N          -3.7111  -23.7839  -46.2476 N.am      13 UNK        -0.5000 
     75 CA         -2.8495  -24.8474  -45.7305 C.3       13 UNK         0.1400 
     76 CB         -2.8752  -24.8190  -44.1930 C.3       13 UNK        -0.1800 
     77 C          -1.4102  -24.7061  -46.2525 C.2       13 UNK         0.5000 
     78 O          -0.7964  -25.7093  -46.6189 O.2       13 UNK        -0.5000 
     79 N          -0.8978  -23.4684  -46.2744 N.am      14 UNK        -0.5000 
     80 CA          0.4187  -23.1116  -46.7990 C.3       14 UNK         0.1400 
     81 CB          0.7326  -21.6648  -46.3915 C.3       14 UNK        -0.1800 
     82 C           0.4924  -23.2702  -48.3288 C.2       14 UNK         0.5000 
     83 O          -0.5057  -23.0641  -49.0175 O.2       14 UNK        -0.5000 
     84 N           1.6857  -23.6037  -48.8354 N.am      15 UNK        -0.5000 
     85 CA          1.9478  -23.8389  -50.2599 C.3       15 UNK         0.1400 
     86 CB          3.2207  -24.6909  -50.3881 C.3       15 UNK        -0.1800 
     87 C           2.0737  -22.5517  -51.1019 C.2       15 UNK         0.5000 
     88 O           2.1341  -22.6446  -52.3299 O.2       15 UNK        -0.5000 
     89 N           2.1326  -21.3858  -50.4403 N.am      16 UNK        -0.5000 
     90 CA          2.2492  -20.0523  -51.0352 C.3       16 UNK         0.1400 
     91 CB          2.1817  -19.0003  -49.9155 C.3       16 UNK        -0.1800 
     92 C           1.1651  -19.7862  -52.0962 C.2       16 UNK         0.5000 
     93 O          -0.0166  -19.9759  -51.8100 O.2       16 UNK        -0.5000 
     94 N           1.5952  -19.3967  -53.3056 N.am      17 UNK        -0.5000 
     95 CA          0.7713  -19.1300  -54.4952 C.3       17 UNK         0.1400 
     96 CB         -0.0700  -17.8535  -54.2901 C.3       17 UNK        -0.1800 
     97 C          -0.0890  -20.3321  -54.9538 C.2       17 UNK         0.5000 
     98 O          -1.1360  -20.1310  -55.5696 O.2       17 UNK        -0.5000 
     99 N           0.3700  -21.5555  -54.6437 N.am      18 UNK        -0.5000 
    100 CA        -0.3291  -22.8341  -54.8194 C.3       18 UNK         0.1400 
    101 CB        -0.6290  -23.1249  -56.3060 C.3       18 UNK        -0.1800 
    102 C         -1.5715  -22.9630  -53.9112 C.2       18 UNK         0.5000 
    103 O         -2.5416  -23.6257  -54.2810 O.2       18 UNK        -0.5000 
    104 N         -1.5087  -22.3412  -52.7263 N.am      19 UNK        -0.5000 
    105 CA        -2.5515  -22.2752  -51.7050 C.3       19 UNK         0.1400 
    106 CB        -2.8852  -23.6854  -51.1615 C.3       19 UNK        -0.1800 
    107 C         -3.7752  -21.4830  -52.2105 C.2       19 UNK         0.5000 
    108 O         -3.6103  -20.4257  -52.8193 O.2       19 UNK        -0.5000 
    109 N         -4.9851  -22.0051  -51.9734 N.am      20 UNK        -0.5000 
    110 CA        -6.2570  -21.4078  -52.3861 C.3       20 UNK         0.1400 
    111 CB        -7.3877  -22.0728  -51.5848 C.3       20 UNK        -0.1800 
    112 C         -6.5340  -21.4856  -53.9047 C.2       20 UNK         0.5000 
    113 O         -7.5102  -20.8929  -54.3655 O.2       20 UNK        -0.5000 
    114 N         -5.6892  -22.1998  -54.6642 N.am      21 UNK        -0.5000 
    115 CA        -5.8071  -22.3839  -56.1145 C.3       21 UNK         0.1400 
    116 CB        -4.9843  -23.6125  -56.5349 C.3       21 UNK        -0.1800 
    117 C         -5.4085  -21.1469  -56.9498 C.2       21 UNK         0.5000 
    118 O         -5.4817  -21.2119  -58.1780 O.2       21 UNK        -0.5000 
    119 N         -4.9965  -20.0519  -56.2963 N.am      22 UNK        -0.5000 
    120 CA        -4.6406  -18.7680  -56.9232 C.3       22 UNK         0.1400 
    121 C         -5.7894  -18.0441  -57.6920 C.2       22 UNK         0.5000 
    122 N         -7.0553  -18.3770  -57.4671 N.am      22 UNK        -0.7600 
    123 O         -5.5229  -17.1708  -58.5135 O.2       22 UNK        -0.5000 
    124 C124       -3.9495  -17.8157  -55.9139 C.3       23 UNK        -0.0398 
    125 S125       -5.0165  -17.3172  -54.5158 S.3       23 UNK        -0.2404 
    126 C126       -3.7599  -16.9589  -53.2563 C.3       23 UNK        -0.0205 
    127 H127       -1.7032  -17.8304  -51.0342 H         1 UNK         0.0600 
    128 H128       -0.0802  -17.1479  -51.1802 H         1 UNK         0.0600 
    129 H129       -1.4788  -16.1719  -51.6182 H         1 UNK         0.0600 
    130 H130       -2.2299  -14.7827  -50.0366 H         1 UNK         0.3000 
    131 H131       -2.1054  -15.3107  -47.2028 H         1 UNK         0.0600 
    132 H132       -3.1148  -12.9312  -47.0982 H         1 UNK         0.0800 
    133 H133       -4.0528  -14.2028  -47.7801 H         1 UNK         0.0800 
    134 H134       -5.7687  -12.9834  -49.3460 H         1 UNK         0.0800 
    135 H135       -5.2728  -12.6129  -50.9757 H         1 UNK         0.0800 
    136 H136       -3.9865  -14.3964  -52.3278 H         1 UNK         0.1150 
    137 H137       -4.9100  -18.4561  -51.3121 H         1 UNK         0.1150 
    138 H138       -6.0447  -15.2756  -48.6720 H         1 UNK         0.1150 
    139 H139       -7.2366  -17.8667  -48.9245 H         1 UNK         0.0800 
    140 H140       -5.9609  -19.0119  -49.2628 H         1 UNK         0.0800 
    141 H141       -3.4779  -18.1054  -48.4743 H         1 UNK         0.0800 
    142 H142       -3.2137  -17.3570  -46.9346 H         1 UNK         0.0800 
    143 H143       -2.2172  -19.5460  -46.8996 H         1 UNK         0.0600 
    144 H144       -4.2711  -18.9202  -45.0330 H         1 UNK         0.3000 
    145 H145       -3.7704  -19.4850  -42.8031 H         1 UNK         0.0600 
    146 H146       -5.3270  -21.2755  -41.9566 H         1 UNK         0.0600 
    147 H147       -5.7410  -20.8314  -43.6032 H         1 UNK         0.0600 
    148 H148       -4.8640  -22.3266  -43.2928 H         1 UNK         0.0600 
    149 H149       -1.9714  -21.7396  -42.8046 H         1 UNK         0.3000 
    150 H150       -1.6006  -22.0921  -39.3817 H         1 UNK         0.0600 
    151 H151       -1.4547  -23.5858  -41.3773 H         1 UNK         0.0600 
    152 H152        0.1141  -23.3658  -40.6252 H         1 UNK         0.0600 
    153 H153       -0.2619  -22.5166  -42.1162 H         1 UNK         0.0600 
    154 H154        0.3444  -20.4201  -40.9163 H         1 UNK         0.3000 
    155 H155        1.1802  -18.5366  -37.9759 H         1 UNK         0.0600 
    156 H156        2.8196  -20.3738  -38.2310 H         1 UNK         0.0600 
    157 H157        3.3960  -18.9314  -39.0538 H         1 UNK         0.0600 
    158 H158        2.7189  -20.2683  -39.9823 H         1 UNK         0.0600 
    159 H159        1.6759  -18.1167  -40.7709 H         1 UNK         0.3000 
    160 H160       -1.0854  -15.9628  -41.3877 H         1 UNK         0.0600 
    161 H161        1.8648  -15.2839  -40.9376 H         1 UNK         0.0600 
    162 H162        0.4841  -14.4460  -40.2445 H         1 UNK         0.0600 
    163 H163        0.7569  -14.3901  -41.9795 H         1 UNK         0.0600 
    164 H164        1.3616  -17.0089  -42.6808 H         1 UNK         0.3000 
    165 H165       -0.3820  -19.5418  -44.3923 H         1 UNK         0.0600 
    166 H166       -1.0564  -17.6083  -45.8571 H         1 UNK         0.0600 
    167 H167        0.5793  -16.9827  -45.7534 H         1 UNK         0.0600 
    168 H168        0.2798  -18.5362  -46.5242 H         1 UNK         0.0600 
    169 H169        2.2361  -18.4312  -44.7672 H         1 UNK         0.3000 
    170 H170        3.8248  -20.1599  -42.1195 H         1 UNK         0.0600 
    171 H171        3.5219  -21.9601  -43.8387 H         1 UNK         0.0600 
    172 H172        3.8762  -20.8038  -45.1164 H         1 UNK         0.0600 
    173 H173        5.1158  -21.2301  -43.9357 H         1 UNK         0.0600 
    174 H174        5.0580  -18.7729  -44.1666 H         1 UNK         0.3000 
    175 H175        5.7362  -16.0854  -42.4190 H         1 UNK         0.0600 
    176 H176        5.6675  -17.0651  -45.3269 H         1 UNK         0.0600 
    177 H177        6.8455  -15.9582  -44.6352 H         1 UNK         0.0600 
    178 H178        6.7847  -17.6140  -44.0725 H         1 UNK         0.0600 
    179 H179        4.1954  -15.1725  -44.7663 H         1 UNK         0.3000 
    180 H180        2.3075  -12.8668  -43.2057 H         1 UNK         0.0600 
    181 H181        5.0105  -11.8178  -44.2007 H         1 UNK         0.0600 
    182 H182        4.2677  -11.4406  -42.6512 H         1 UNK         0.0600 
    183 H183        3.5083  -10.8948  -44.1362 H         1 UNK         0.0600 
    184 H184        3.5579  -12.9076  -45.8351 H         1 UNK         0.3000 
    185 H185        2.0828  -13.3643  -47.5967 H         1 UNK         0.0600 
    186 H186        3.8313  -15.1262  -47.2895 H         1 UNK         0.0600 
    187 H187        2.5881  -16.3472  -47.0432 H         1 UNK         0.0600 
    188 H188        2.7551  -15.5555  -48.6071 H         1 UNK         0.0600 
    189 H189        0.3319  -15.6657  -47.7305 H         1 UNK         0.3000 
    190 H190       -5.2513  -21.1162  -46.2855 H         1 UNK         0.3000 
    191 H191       -5.3116  -22.5859  -48.8202 H         1 UNK         0.0600 
    192 H192       -6.8931  -22.9361  -46.2187 H         1 UNK         0.0600 
    193 H193       -7.2241  -23.7517  -47.7426 H         1 UNK         0.0600 
    194 H194       -7.4137  -22.0097  -47.6273 H         1 UNK         0.0600 
    195 H195       -3.6331  -22.8853  -45.7911 H         1 UNK         0.3000 
    196 H196       -3.2279  -25.8208  -46.0501 H         1 UNK         0.0600 
    197 H197       -2.2608  -25.6194  -43.7789 H         1 UNK         0.0600 
    198 H198       -3.8878  -24.9575  -43.8140 H         1 UNK         0.0600 
    199 H199       -2.4960  -23.8779  -43.7954 H         1 UNK         0.0600 
    200 H200       -1.4649  -22.6996  -45.9291 H         1 UNK         0.3000 
    201 H201        1.1572  -23.7724  -46.3402 H         1 UNK         0.0600 
    202 H202        0.7162  -21.5564  -45.3074 H         1 UNK         0.0600 
    203 H203        0.0062  -20.9667  -46.8095 H         1 UNK         0.0600 
    204 H204        1.7216  -21.3592  -46.7345 H         1 UNK         0.0600 
    205 H205        2.4654  -23.7444  -48.2090 H         1 UNK         0.3000 
    206 H206        1.1151  -24.4107  -50.6754 H         1 UNK         0.0600 
    207 H207        3.1175  -25.6373  -49.8568 H         1 UNK         0.0600 
    208 H208        3.4305  -24.9293  -51.4318 H         1 UNK         0.0600 
    209 H209        4.0934  -24.1732  -49.9882 H         1 UNK         0.0600 
    210 H210        2.0456  -21.4190  -49.4368 H         1 UNK         0.3000 
    211 H211        3.2314  -19.9906  -51.5075 H         1 UNK         0.0600 
    212 H212        2.2775  -17.9913  -50.3186 H         1 UNK         0.0600 
    213 H213        2.9848  -19.1376  -49.1914 H         1 UNK         0.0600 
    214 H214        1.2334  -19.0475  -49.3775 H         1 UNK         0.0600 
    215 H215        2.5911  -19.2968  -53.4464 H         1 UNK         0.3000 
    216 H216        1.4699  -18.9349  -55.3099 H         1 UNK         0.0600 
    217 H217       -0.5468  -17.5421  -55.2200 H         1 UNK         0.0600 
    218 H218        0.5448  -17.0217  -53.9467 H         1 UNK         0.0600 
    219 H219       -0.8595  -18.0146  -53.5573 H         1 UNK         0.0600 
    220 H220        1.2276  -21.6152  -54.1072 H         1 UNK         0.3000 
    221 H221        0.3676  -23.5998  -54.4756 H         1 UNK         0.0600 
    222 H222       -0.9792  -24.1493  -56.4376 H         1 UNK         0.0600 
    223 H223        0.2634  -23.0062  -56.9202 H         1 UNK         0.0600 
    224 H224       -1.4025  -22.4674  -56.7034 H         1 UNK         0.0600 
    225 H225       -0.7233  -21.7237  -52.5501 H         1 UNK         0.3000 
    226 H226       -2.1184  -21.6945  -50.8910 H         1 UNK         0.0600 
    227 H227       -1.9774  -24.2290  -50.9011 H         1 UNK         0.0600 
    228 H228       -3.4834  -23.6190  -50.2533 H         1 UNK         0.0600 
    229 H229       -3.4329  -24.2938  -51.8815 H         1 UNK         0.0600 
    230 H230       -5.0378  -22.8916  -51.4941 H         1 UNK         0.3000 
    231 H231       -6.2362  -20.3484  -52.1231 H         1 UNK         0.0600 
    232 H232       -8.3550  -21.6324  -51.8304 H         1 UNK         0.0600 
    233 H233       -7.2400  -21.9446  -50.5122 H         1 UNK         0.0600 
    234 H234       -7.4520  -23.1418  -51.7914 H         1 UNK         0.0600 
    235 H235       -4.8879  -22.6314  -54.2232 H         1 UNK         0.3000 
    236 H236       -6.8545  -22.5945  -56.3398 H         1 UNK         0.0600 
    237 H237       -5.2118  -24.4794  -55.9142 H         1 UNK         0.0600 
    238 H238       -5.1979  -23.8891  -57.5680 H         1 UNK         0.0600 
    239 H239       -3.9138  -23.4192  -56.4684 H         1 UNK         0.0600 
    240 H240       -4.9495  -20.0789  -55.2876 H         1 UNK         0.3000 
    241 H241       -3.8949  -19.0073  -57.6836 H         1 UNK         0.0600 
    242 H242       -7.7915  -17.9078  -57.9706 H         1 UNK         0.3800 
    243 H243       -7.2829  -19.0785  -56.7796 H         1 UNK         0.3800 
    244 H244       -3.0597  -18.3044  -55.5161 H         1 UNK         0.0800 
    245 H245       -3.5915  -16.9160  -56.4173 H         1 UNK         0.0800 
    246 H246       -3.1769  -17.8592  -53.0623 H         1 UNK         0.0800 
    247 H247       -3.0630  -16.2131  -53.6417 H         1 UNK         0.0800 
@<TRIPOS>BOND
     1    1    2 1    
     2    1  127 1    
     3    1  128 1    
     4    1  129 1    
     5    2    3 2    
     6    2    4 am   BACKBONE|DICT|INTERRES
     7    4    5 1    
     8    4  130 1    
     9    5    6 1    
    10    5   65 1    
    11    5  131 1    
    12    6    7 1    
    13    6  132 1    
    14    6  133 1    
    15    7    8 1    
    16    8    9 1    
    17    8  134 1    
    18    8  135 1    
    19    9   10 ar   
    20    9   14 ar   
    21   10   11 ar   
    22   10  136 1    
    23   11   12 ar   
    24   11  126 1    
    25   12   13 ar   
    26   12  137 1    
    27   13   14 ar   
    28   13   15 1    
    29   14  138 1    
    30   15   16 1    
    31   15  139 1    
    32   15  140 1    
    33   16   17 1    
    34   17   18 1    
    35   17  141 1    
    36   17  142 1    
    37   18   19 1    
    38   18   67 1    
    39   18  143 1    
    40   19   20 am   BACKBONE|DICT|INTERRES
    41   19  144 1    
    42   20   21 2    
    43   20   22 1    
    44   22   23 1    
    45   22   24 1    
    46   22  145 1    
    47   23  146 1    
    48   23  147 1    
    49   23  148 1    
    50   24   25 am   BACKBONE|DICT|INTERRES
    51   24  149 1    
    52   25   26 2    
    53   25   27 1    
    54   27   28 1    
    55   27   29 1    
    56   27  150 1    
    57   28  151 1    
    58   28  152 1    
    59   28  153 1    
    60   29   30 am   BACKBONE|DICT|INTERRES
    61   29  154 1    
    62   30   31 2    
    63   30   32 1    
    64   32   33 1    
    65   32   34 1    
    66   32  155 1    
    67   33  156 1    
    68   33  157 1    
    69   33  158 1    
    70   34   35 am   BACKBONE|DICT|INTERRES
    71   34  159 1    
    72   35   36 2    
    73   35   37 1    
    74   37   38 1    
    75   37   39 1    
    76   37  160 1    
    77   38  161 1    
    78   38  162 1    
    79   38  163 1    
    80   39   40 am   BACKBONE|DICT|INTERRES
    81   39  164 1    
    82   40   41 2    
    83   40   42 1    
    84   42   43 1    
    85   42   44 1    
    86   42  165 1    
    87   43  166 1    
    88   43  167 1    
    89   43  168 1    
    90   44   45 am   BACKBONE|DICT|INTERRES
    91   44  169 1    
    92   45   46 2    
    93   45   47 1    
    94   47   48 1    
    95   47   49 1    
    96   47  170 1    
    97   48  171 1    
    98   48  172 1    
    99   48  173 1    
   100   49   50 am   BACKBONE|DICT|INTERRES
   101   49  174 1    
   102   50   51 2    
   103   50   52 1    
   104   52   53 1    
   105   52   54 1    
   106   52  175 1    
   107   53  176 1    
   108   53  177 1    
   109   53  178 1    
   110   54   55 am   BACKBONE|DICT|INTERRES
   111   54  179 1    
   112   55   56 2    
   113   55   57 1    
   114   57   58 1    
   115   57   59 1    
   116   57  180 1    
   117   58  181 1    
   118   58  182 1    
   119   58  183 1    
   120   59   60 am   BACKBONE|DICT|INTERRES
   121   59  184 1    
   122   60   61 2    
   123   60   62 1    
   124   62   63 1    
   125   62   64 1    
   126   62  185 1    
   127   63  186 1    
   128   63  187 1    
   129   63  188 1    
   130   64   65 am   BACKBONE|DICT|INTERRES
   131   64  189 1    
   132   65   66 2    
   133   67   68 2    
   134   67   69 am   BACKBONE|DICT|INTERRES
   135   69   70 1    
   136   69  190 1    
   137   70   71 1    
   138   70   72 1    
   139   70  191 1    
   140   71  192 1    
   141   71  193 1    
   142   71  194 1    
   143   72   73 2    
   144   72   74 am   BACKBONE|DICT|INTERRES
   145   74   75 1    
   146   74  195 1    
   147   75   76 1    
   148   75   77 1    
   149   75  196 1    
   150   76  197 1    
   151   76  198 1    
   152   76  199 1    
   153   77   78 2    
   154   77   79 am   BACKBONE|DICT|INTERRES
   155   79   80 1    
   156   79  200 1    
   157   80   81 1    
   158   80   82 1    
   159   80  201 1    
   160   81  202 1    
   161   81  203 1    
   162   81  204 1    
   163   82   83 2    
   164   82   84 am   BACKBONE|DICT|INTERRES
   165   84   85 1    
   166   84  205 1    
   167   85   86 1    
   168   85   87 1    
   169   85  206 1    
   170   86  207 1    
   171   86  208 1    
   172   86  209 1    
   173   87   88 2    
   174   87   89 am   BACKBONE|DICT|INTERRES
   175   89   90 1    
   176   89  210 1    
   177   90   91 1    
   178   90   92 1    
   179   90  211 1    
   180   91  212 1    
   181   91  213 1    
   182   91  214 1    
   183   92   93 2    
   184   92   94 am   BACKBONE|DICT|INTERRES
   185   94   95 1    
   186   94  215 1    
   187   95   96 1    
   188   95   97 1    
   189   95  216 1    
   190   96  217 1    
   191   96  218 1    
   192   96  219 1    
   193   97   98 2    
   194   97   99 am   BACKBONE|DICT|INTERRES
   195   99  100 1    
   196   99  220 1    
   197  100  101 1    
   198  100  102 1    
   199  100  221 1    
   200  101  222 1    
   201  101  223 1    
   202  101  224 1    
   203  102  103 2    
   204  102  104 am   BACKBONE|DICT|INTERRES
   205  104  105 1    
   206  104  225 1    
   207  105  106 1    
   208  105  107 1    
   209  105  226 1    
   210  106  227 1    
   211  106  228 1    
   212  106  229 1    
   213  107  108 2    
   214  107  109 am   BACKBONE|DICT|INTERRES
   215  109  110 1    
   216  109  230 1    
   217  110  111 1    
   218  110  112 1    
   219  110  231 1    
   220  111  232 1    
   221  111  233 1    
   222  111  234 1    
   223  112  113 2    
   224  112  114 am   BACKBONE|DICT|INTERRES
   225  114  115 1    
   226  114  235 1    
   227  115  116 1    
   228  115  117 1    
   229  115  236 1    
   230  116  237 1    
   231  116  238 1    
   232  116  239 1    
   233  117  118 2    
   234  117  119 am   BACKBONE|DICT|INTERRES
   235  119  120 1    
   236  119  240 1    
   237  120  121 1    
   238  120  124 1    
   239  120  241 1    
   240  121  122 am   BACKBONE|DICT|INTERRES
   241  121  123 2    
   242  122  242 1    
   243  122  243 1    
   244  124  125 1    
   245  124  244 1    
   246  124  245 1    
   247  125  126 1    
   248  126  246 1    
   249  126  247 1    
@<TRIPOS>SUBSTRUCTURE
     1 UNK         1 GROUP             0       ****    0 ROOT    
