@<TRIPOS>MOLECULE
3R540
247   249    1
SMALL
USER_CHARGES


@<TRIPOS>ATOM
      1 CA         -1.4708  -13.0062  -50.8631 C.3       0 UNK        -0.1800 
      2 C          -0.5340  -14.1429  -50.4797 C.2       0 UNK         0.5000 
      3 O          -0.4284  -14.4622  -49.2972 O.2       0 UNK        -0.5000 
      4 N           0.1380  -14.7356  -51.4794 N.am      1 UNK        -0.5000 
      5 CA          1.0961  -15.8505  -51.3976 C.3       1 UNK         0.1400 
      6 C6          0.4146  -17.2517  -51.4707 C.3       23 UNK        -0.0398 
      7 S7         -0.5613  -17.7450  -50.0008 S.3       23 UNK        -0.2404 
      8 C8         -2.2502  -17.7504  -50.6587 C.3       23 UNK        -0.0205 
      9 C9         -3.2618  -17.4375  -49.5705 C.ar      23 UNK        -0.0193 
     10 C10        -3.7483  -16.1370  -49.4270 C.ar      23 UNK        -0.1150 
     11 C11        -4.7130  -15.8366  -48.4602 C.ar      23 UNK        -0.0193 
     12 C12        -5.1824  -16.8555  -47.6256 C.ar      23 UNK        -0.1150 
     13 C13        -4.6899  -18.1581  -47.7462 C.ar      23 UNK        -0.0193 
     14 C14        -3.7277  -18.4432  -48.7198 C.ar      23 UNK        -0.1150 
     15 C15        -5.1929  -19.2560  -46.8233 C.3       23 UNK        -0.0205 
     16 S16        -4.2646  -19.2674  -45.2572 S.3       23 UNK        -0.2404 
     17 C17        -4.3462  -21.0362  -44.8144 C.3       23 UNK        -0.0398 
     18 CA         -3.2278  -21.8451  -45.5107 C.3       11 UNK         0.1400 
     19 N          -1.8858  -21.3185  -45.2500 N.am      11 UNK        -0.5000 
     20 C          -0.7848  -21.6686  -45.9267 C.2       10 UNK         0.5000 
     21 O          -0.7845  -22.4654  -46.8642 O.2       10 UNK        -0.5000 
     22 CA          0.5395  -21.0487  -45.4563 C.3       10 UNK         0.1400 
     23 CB          0.7445  -19.6798  -46.1102 C.3       10 UNK        -0.1800 
     24 N           0.5871  -20.9118  -43.9999 N.am      10 UNK        -0.5000 
     25 C           0.7577  -21.9476  -43.1648 C.2       9 UNK         0.5000 
     26 O           0.9679  -23.0995  -43.5439 O.2       9 UNK        -0.5000 
     27 CA          0.6227  -21.6624  -41.6565 C.3       9 UNK         0.1400 
     28 CB          1.9762  -21.2544  -41.0582 C.3       9 UNK        -0.1800 
     29 N          -0.3779  -20.6363  -41.3536 N.am      9 UNK        -0.5000 
     30 C          -1.6893  -20.7655  -41.6039 C.2       8 UNK         0.5000 
     31 O          -2.1869  -21.7826  -42.0853 O.2       8 UNK        -0.5000 
     32 CA         -2.6071  -19.5647  -41.3039 C.3       8 UNK         0.1400 
     33 CB         -3.3929  -19.8049  -40.0065 C.3       8 UNK        -0.1800 
     34 N          -1.9276  -18.2713  -41.2145 N.am      8 UNK        -0.5000 
     35 C          -1.2341  -17.6789  -42.1956 C.2       7 UNK         0.5000 
     36 O          -1.0239  -18.2032  -43.2927 O.2       7 UNK        -0.5000 
     37 CA         -0.6693  -16.2713  -41.9020 C.3       7 UNK         0.1400 
     38 CB         -0.8209  -15.8102  -40.4338 C.3       7 UNK        -0.1800 
     39 N           0.7235  -16.1441  -42.3382 N.am      7 UNK        -0.5000 
     40 C           1.7600  -16.8876  -41.9244 C.2       6 UNK         0.5000 
     41 O           1.6719  -17.7544  -41.0532 O.2       6 UNK        -0.5000 
     42 CA          3.1218  -16.6564  -42.6044 C.3       6 UNK         0.1400 
     43 CB          3.4500  -17.8350  -43.5341 C.3       6 UNK        -0.1800 
     44 N           3.2029  -15.4180  -43.3826 N.am      6 UNK        -0.5000 
     45 C           3.4788  -14.2102  -42.8731 C.2       5 UNK         0.5000 
     46 O           3.5816  -13.9893  -41.6660 O.2       5 UNK        -0.5000 
     47 CA          3.6978  -13.0605  -43.8728 C.3       5 UNK         0.1400 
     48 CB          5.0977  -13.1550  -44.5007 C.3       5 UNK        -0.1800 
     49 N           2.6965  -13.0712  -44.9391 N.am      5 UNK        -0.5000 
     50 C           1.8205  -12.0848  -45.1821 C.2       4 UNK         0.5000 
     51 O           1.8040  -11.0189  -44.5647 O.2       4 UNK        -0.5000 
     52 CA          0.7699  -12.3169  -46.2930 C.3       4 UNK         0.1400 
     53 CB          1.2095  -11.6391  -47.5997 C.3       4 UNK        -0.1800 
     54 N           0.4848  -13.7246  -46.5723 N.am      4 UNK        -0.5000 
     55 C           0.0528  -14.6253  -45.6817 C.2       3 UNK         0.5000 
     56 O          -0.2457  -14.3463  -44.5219 O.2       3 UNK        -0.5000 
     57 CA          0.0284  -16.0953  -46.1333 C.3       3 UNK         0.1400 
     58 CB         -1.3836  -16.4942  -46.5854 C.3       3 UNK        -0.1800 
     59 N           0.9984  -16.4120  -47.1898 N.am      3 UNK        -0.5000 
     60 C           2.3327  -16.2809  -47.0920 C.2       2 UNK         0.5000 
     61 O           2.8941  -15.8113  -46.1027 O.2       2 UNK        -0.5000 
     62 CA          3.1935  -16.7334  -48.2873 C.3       2 UNK         0.1400 
     63 CB          3.7744  -18.1321  -48.0300 C.3       2 UNK        -0.1800 
     64 N           2.4345  -16.7586  -49.5337 N.am      2 UNK        -0.5000 
     65 C           2.1491  -15.6789  -50.2716 C.2       1 UNK         0.5000 
     66 O           2.6765  -14.5782  -50.0926 O.2       1 UNK        -0.5000 
     67 C          -3.3104  -23.3493  -45.1918 C.2       11 UNK         0.5000 
     68 O          -3.8337  -24.1110  -46.0063 O.2       11 UNK        -0.5000 
     69 N          -2.7163  -23.7519  -44.0587 N.am      12 UNK        -0.5000 
     70 CA         -2.5371  -25.1427  -43.6377 C.3       12 UNK         0.1400 
     71 CB         -1.9344  -25.1681  -42.2253 C.3       12 UNK        -0.1800 
     72 C          -1.6712  -25.9668  -44.6108 C.2       12 UNK         0.5000 
     73 O          -1.9295  -27.1566  -44.7911 O.2       12 UNK        -0.5000 
     74 N          -0.7063  -25.3138  -45.2731 N.am      13 UNK        -0.5000 
     75 CA          0.1274  -25.8674  -46.3434 C.3       13 UNK         0.1400 
     76 CB          1.4743  -25.1222  -46.3633 C.3       13 UNK        -0.1800 
     77 C          -0.5832  -25.8398  -47.7169 C.2       13 UNK         0.5000 
     78 O           0.0481  -25.5382  -48.7319 O.2       13 UNK        -0.5000 
     79 N          -1.8884  -26.1500  -47.7228 N.am      14 UNK        -0.5000 
     80 CA         -2.7910  -26.2289  -48.8753 C.3       14 UNK         0.1400 
     81 CB         -2.4413  -27.4592  -49.7389 C.3       14 UNK        -0.1800 
     82 C          -2.8453  -24.9224  -49.6926 C.2       14 UNK         0.5000 
     83 O          -2.7735  -24.9668  -50.9209 O.2       14 UNK        -0.5000 
     84 N          -2.9379  -23.7832  -48.9901 N.am      15 UNK        -0.5000 
     85 CA         -2.8946  -22.4186  -49.5322 C.3       15 UNK         0.1400 
     86 CB         -4.1786  -22.0986  -50.3252 C.3       15 UNK        -0.1800 
     87 C          -1.6056  -22.1557  -50.3336 C.2       15 UNK         0.5000 
     88 O          -1.6711  -21.7997  -51.5101 O.2       15 UNK        -0.5000 
     89 N          -0.4637  -22.3869  -49.6710 N.am      16 UNK        -0.5000 
     90 CA          0.9052  -22.2986  -50.1866 C.3       16 UNK         0.1400 
     91 CB          1.2978  -20.8267  -50.4177 C.3       16 UNK        -0.1800 
     92 C           1.1284  -23.1882  -51.4272 C.2       16 UNK         0.5000 
     93 O           1.6517  -22.7212  -52.4407 O.2       16 UNK        -0.5000 
     94 N           0.7073  -24.4561  -51.3118 N.am      17 UNK        -0.5000 
     95 CA          0.7191  -25.4918  -52.3478 C.3       17 UNK         0.1400 
     96 CB          2.1654  -25.9109  -52.6853 C.3       17 UNK        -0.1800 
     97 C          -0.1093  -25.0935  -53.5882 C.2       17 UNK         0.5000 
     98 O           0.3980  -25.1184  -54.7115 O.2       17 UNK        -0.5000 
     99 N          -1.3793  -24.7436  -53.3431 N.am      18 UNK        -0.5000 
    100 CA        -2.4070  -24.3573  -54.3104 C.3       18 UNK         0.1400 
    101 CB        -2.7761  -25.5475  -55.2213 C.3       18 UNK        -0.1800 
    102 C         -2.0556  -23.0745  -55.0899 C.2       18 UNK         0.5000 
    103 O         -2.0744  -23.0701  -56.3235 O.2       18 UNK        -0.5000 
    104 N         -1.7584  -21.9991  -54.3492 N.am      19 UNK        -0.5000 
    105 CA        -1.6194  -20.6393  -54.8698 C.3       19 UNK         0.1400 
    106 CB        -0.6897  -19.8412  -53.9351 C.3       19 UNK        -0.1800 
    107 C         -3.0022  -19.9694  -55.0609 C.2       19 UNK         0.5000 
    108 O         -4.0191  -20.6570  -55.1811 O.2       19 UNK        -0.5000 
    109 N         -3.0232  -18.6290  -55.1006 N.am      20 UNK        -0.5000 
    110 CA        -4.2134  -17.8058  -55.3509 C.3       20 UNK         0.1400 
    111 CB        -3.7758  -16.3399  -55.4980 C.3       20 UNK        -0.1800 
    112 C         -5.3202  -17.9200  -54.2821 C.2       20 UNK         0.5000 
    113 O         -6.4825  -17.6461  -54.5870 O.2       20 UNK        -0.5000 
    114 N         -4.9374  -18.2880  -53.0490 N.am      21 UNK        -0.5000 
    115 CA        -5.7992  -18.5323  -51.8809 C.3       21 UNK         0.1400 
    116 CB        -6.6630  -19.7884  -52.1171 C.3       21 UNK        -0.1800 
    117 C         -6.6480  -17.3177  -51.4347 C.2       21 UNK         0.5000 
    118 O         -7.6385  -17.4983  -50.7244 O.2       21 UNK        -0.5000 
    119 N         -6.2680  -16.1125  -51.8859 N.am      22 UNK        -0.5000 
    120 CA        -7.0547  -14.8689  -51.8051 C.3       22 UNK         0.1400 
    121 C         -8.4256  -14.9357  -52.5540 C.2       22 UNK         0.5000 
    122 N         -8.5899  -15.8006  -53.5500 N.am      22 UNK        -0.7600 
    123 O         -9.3450  -14.1756  -52.2613 O.2       22 UNK        -0.5000 
    124 C124       -7.1514  -14.3000  -50.3589 C.3       23 UNK        -0.0398 
    125 S125       -5.5793  -13.5376  -49.8300 S.3       23 UNK        -0.2404 
    126 C126       -5.2125  -14.4091  -48.2703 C.3       23 UNK        -0.0205 
    127 H127       -1.0565  -12.0539  -50.5327 H         1 UNK         0.0600 
    128 H128       -2.4404  -13.1389  -50.3836 H         1 UNK         0.0600 
    129 H129       -1.6298  -12.9567  -51.9405 H         1 UNK         0.0600 
    130 H130        0.0082  -14.3699  -52.4115 H         1 UNK         0.3000 
    131 H131        1.6826  -15.7612  -52.3132 H         1 UNK         0.0600 
    132 H132        1.1679  -18.0200  -51.6496 H         1 UNK         0.0800 
    133 H133       -0.2235  -17.2870  -52.3534 H         1 UNK         0.0800 
    134 H134       -2.3414  -17.0180  -51.4621 H         1 UNK         0.0800 
    135 H135       -2.4578  -18.7277  -51.0961 H         1 UNK         0.0800 
    136 H136       -3.3719  -15.3552  -50.0697 H         1 UNK         0.1150 
    137 H137       -5.9180  -16.6336  -46.8654 H         1 UNK         0.1150 
    138 H138       -3.3389  -19.4451  -48.8171 H         1 UNK         0.1150 
    139 H139       -6.2541  -19.1157  -46.6128 H         1 UNK         0.0800 
    140 H140       -5.1062  -20.2210  -47.3242 H         1 UNK         0.0800 
    141 H141       -5.3307  -21.4251  -45.0807 H         1 UNK         0.0800 
    142 H142       -4.2686  -21.1237  -43.7302 H         1 UNK         0.0800 
    143 H143       -3.4004  -21.7524  -46.5808 H         1 UNK         0.0600 
    144 H144       -1.8038  -20.6445  -44.5027 H         1 UNK         0.3000 
    145 H145        1.3508  -21.7045  -45.7790 H         1 UNK         0.0600 
    146 H146        1.7383  -19.2890  -45.9000 H         1 UNK         0.0600 
    147 H147        0.6374  -19.7358  -47.1940 H         1 UNK         0.0600 
    148 H148        0.0122  -18.9628  -45.7449 H         1 UNK         0.0600 
    149 H149        0.3670  -20.0012  -43.6156 H         1 UNK         0.3000 
    150 H150        0.3047  -22.5890  -41.1739 H         1 UNK         0.0600 
    151 H151        2.7259  -22.0287  -41.2262 H         1 UNK         0.0600 
    152 H152        1.9029  -21.1005  -39.9816 H         1 UNK         0.0600 
    153 H153        2.3515  -20.3336  -41.5038 H         1 UNK         0.0600 
    154 H154       -0.0371  -19.7601  -40.9817 H         1 UNK         0.3000 
    155 H155       -3.3217  -19.4965  -42.1260 H         1 UNK         0.0600 
    156 H156       -3.9413  -20.7471  -40.0492 H         1 UNK         0.0600 
    157 H157       -4.1238  -19.0145  -39.8346 H         1 UNK         0.0600 
    158 H158       -2.7327  -19.8484  -39.1393 H         1 UNK         0.0600 
    159 H159       -2.0252  -17.7776  -40.3393 H         1 UNK         0.3000 
    160 H160       -1.2552  -15.5875  -42.5154 H         1 UNK         0.0600 
    161 H161       -0.3145  -16.4783  -39.7363 H         1 UNK         0.0600 
    162 H162       -1.8700  -15.7520  -40.1418 H         1 UNK         0.0600 
    163 H163       -0.4003  -14.8138  -40.2966 H         1 UNK         0.0600 
    164 H164        0.8774  -15.4669  -43.0748 H         1 UNK         0.3000 
    165 H165        3.8784  -16.6269  -41.8174 H         1 UNK         0.0600 
    166 H166        4.4219  -17.7062  -44.0106 H         1 UNK         0.0600 
    167 H167        2.7026  -17.9370  -44.3197 H         1 UNK         0.0600 
    168 H168        3.4800  -18.7761  -42.9846 H         1 UNK         0.0600 
    169 H169        3.1400  -15.5288  -44.3933 H         1 UNK         0.3000 
    170 H170        3.6472  -12.1286  -43.3060 H         1 UNK         0.0600 
    171 H171        5.8720  -13.1630  -43.7324 H         1 UNK         0.0600 
    172 H172        5.2134  -14.0621  -45.0955 H         1 UNK         0.0600 
    173 H173        5.2937  -12.3024  -45.1510 H         1 UNK         0.0600 
    174 H174        2.6338  -13.9210  -45.4889 H         1 UNK         0.3000 
    175 H175       -0.1615  -11.8542  -45.9611 H         1 UNK         0.0600 
    176 H176        2.1117  -12.0993  -48.0053 H         1 UNK         0.0600 
    177 H177        0.4302  -11.7061  -48.3590 H         1 UNK         0.0600 
    178 H178        1.4200  -10.5805  -47.4426 H         1 UNK         0.0600 
    179 H179        0.6117  -14.0378  -47.5292 H         1 UNK         0.3000 
    180 H180        0.2914  -16.6985  -45.2629 H         1 UNK         0.0600 
    181 H181       -1.7200  -15.8850  -47.4237 H         1 UNK         0.0600 
    182 H182       -2.1045  -16.3658  -45.7771 H         1 UNK         0.0600 
    183 H183       -1.4316  -17.5377  -46.8949 H         1 UNK         0.0600 
    184 H184        0.6038  -16.7294  -48.0649 H         1 UNK         0.3000 
    185 H185        4.0240  -16.0306  -48.3819 H         1 UNK         0.0600 
    186 H186        2.9947  -18.8925  -47.9838 H         1 UNK         0.0600 
    187 H187        4.4713  -18.4178  -48.8180 H         1 UNK         0.0600 
    188 H188        4.3214  -18.1627  -47.0864 H         1 UNK         0.0600 
    189 H189        1.9492  -17.6194  -49.7422 H         1 UNK         0.3000 
    190 H190       -2.3557  -23.0425  -43.4239 H         1 UNK         0.3000 
    191 H191       -3.5244  -25.6072  -43.5987 H         1 UNK         0.0600 
    192 H192       -0.9521  -24.6953  -42.1997 H         1 UNK         0.0600 
    193 H193       -2.5747  -24.6462  -41.5138 H         1 UNK         0.0600 
    194 H194       -1.8168  -26.1918  -41.8679 H         1 UNK         0.0600 
    195 H195       -0.5698  -24.3328  -45.0712 H         1 UNK         0.3000 
    196 H196        0.3364  -26.9149  -46.1182 H         1 UNK         0.0600 
    197 H197        1.9576  -25.1541  -45.3867 H         1 UNK         0.0600 
    198 H198        1.3524  -24.0757  -46.6416 H         1 UNK         0.0600 
    199 H199        2.1620  -25.5736  -47.0794 H         1 UNK         0.0600 
    200 H200       -2.3068  -26.3730  -46.8287 H         1 UNK         0.3000 
    201 H201       -3.7939  -26.3786  -48.4731 H         1 UNK         0.0600 
    202 H202       -3.1674  -27.5945  -50.5414 H         1 UNK         0.0600 
    203 H203       -2.4446  -28.3720  -49.1434 H         1 UNK         0.0600 
    204 H204       -1.4577  -27.3638  -50.1997 H         1 UNK         0.0600 
    205 H205       -2.9760  -23.8622  -47.9806 H         1 UNK         0.3000 
    206 H206       -2.8554  -21.7372  -48.6859 H         1 UNK         0.0600 
    207 H207       -5.0668  -22.2302  -49.7076 H         1 UNK         0.0600 
    208 H208       -4.1731  -21.0646  -50.6705 H         1 UNK         0.0600 
    209 H209       -4.2839  -22.7333  -51.2056 H         1 UNK         0.0600 
    210 H210       -0.5418  -22.6658  -48.6952 H         1 UNK         0.3000 
    211 H211        1.5534  -22.6949  -49.4036 H         1 UNK         0.0600 
    212 H212        1.1726  -20.2401  -49.5087 H         1 UNK         0.0600 
    213 H213        2.3421  -20.7397  -50.7192 H         1 UNK         0.0600 
    214 H214        0.6897  -20.3718  -51.1993 H         1 UNK         0.0600 
    215 H215        0.3180  -24.7448  -50.4161 H         1 UNK         0.3000 
    216 H216        0.2216  -26.3600  -51.9133 H         1 UNK         0.0600 
    217 H217        2.1744  -26.7545  -53.3764 H         1 UNK         0.0600 
    218 H218        2.7267  -25.1010  -53.1519 H         1 UNK         0.0600 
    219 H219        2.7042  -26.2199  -51.7896 H         1 UNK         0.0600 
    220 H220       -1.7041  -24.7536  -52.3772 H         1 UNK         0.3000 
    221 H221       -3.2932  -24.1160  -53.7211 H         1 UNK         0.0600 
    222 H222       -1.9480  -25.8388  -55.8679 H         1 UNK         0.0600 
    223 H223       -3.0649  -26.4183  -54.6327 H         1 UNK         0.0600 
    224 H224       -3.6201  -25.2973  -55.8649 H         1 UNK         0.0600 
    225 H225       -1.7568  -22.0804  -53.3337 H         1 UNK         0.3000 
    226 H226       -1.1438  -20.6854  -55.8513 H         1 UNK         0.0600 
    227 H227        0.2299  -20.3920  -53.7349 H         1 UNK         0.0600 
    228 H228       -0.3975  -18.8890  -54.3781 H         1 UNK         0.0600 
    229 H229       -1.1633  -19.6334  -52.9758 H         1 UNK         0.0600 
    230 H230       -2.1497  -18.1318  -55.0076 H         1 UNK         0.3000 
    231 H231       -4.6475  -18.1303  -56.2988 H         1 UNK         0.0600 
    232 H232       -4.6298  -15.6951  -55.7105 H         1 UNK         0.0600 
    233 H233       -3.0696  -16.2191  -56.3197 H         1 UNK         0.0600 
    234 H234       -3.3015  -15.9674  -54.5891 H         1 UNK         0.0600 
    235 H235       -3.9567  -18.4829  -52.9179 H         1 UNK         0.3000 
    236 H236       -5.1346  -18.7593  -51.0513 H         1 UNK         0.0600 
    237 H237       -6.0526  -20.6325  -52.4387 H         1 UNK         0.0600 
    238 H238       -7.1755  -20.0906  -51.2032 H         1 UNK         0.0600 
    239 H239       -7.4241  -19.6169  -52.8789 H         1 UNK         0.0600 
    240 H240       -5.4395  -16.0673  -52.4585 H         1 UNK         0.3000 
    241 H241       -6.4955  -14.1417  -52.3948 H         1 UNK         0.0600 
    242 H242       -9.4718  -15.8303  -54.0365 H         1 UNK         0.3800 
    243 H243       -7.8430  -16.4290  -53.8310 H         1 UNK         0.3800 
    244 H244       -7.9034  -13.5130  -50.2907 H         1 UNK         0.0800 
    245 H245       -7.4617  -15.0705  -49.6527 H         1 UNK         0.0800 
    246 H246       -6.0996  -14.3870  -47.6355 H         1 UNK         0.0800 
    247 H247       -4.4405  -13.8514  -47.7387 H         1 UNK         0.0800 
@<TRIPOS>BOND
     1    1    2 1    
     2    1  127 1    
     3    1  128 1    
     4    1  129 1    
     5    2    3 2    
     6    2    4 am   BACKBONE|DICT|INTERRES
     7    4    5 1    
     8    4  130 1    
     9    5    6 1    
    10    5   65 1    
    11    5  131 1    
    12    6    7 1    
    13    6  132 1    
    14    6  133 1    
    15    7    8 1    
    16    8    9 1    
    17    8  134 1    
    18    8  135 1    
    19    9   10 ar   
    20    9   14 ar   
    21   10   11 ar   
    22   10  136 1    
    23   11   12 ar   
    24   11  126 1    
    25   12   13 ar   
    26   12  137 1    
    27   13   14 ar   
    28   13   15 1    
    29   14  138 1    
    30   15   16 1    
    31   15  139 1    
    32   15  140 1    
    33   16   17 1    
    34   17   18 1    
    35   17  141 1    
    36   17  142 1    
    37   18   19 1    
    38   18   67 1    
    39   18  143 1    
    40   19   20 am   BACKBONE|DICT|INTERRES
    41   19  144 1    
    42   20   21 2    
    43   20   22 1    
    44   22   23 1    
    45   22   24 1    
    46   22  145 1    
    47   23  146 1    
    48   23  147 1    
    49   23  148 1    
    50   24   25 am   BACKBONE|DICT|INTERRES
    51   24  149 1    
    52   25   26 2    
    53   25   27 1    
    54   27   28 1    
    55   27   29 1    
    56   27  150 1    
    57   28  151 1    
    58   28  152 1    
    59   28  153 1    
    60   29   30 am   BACKBONE|DICT|INTERRES
    61   29  154 1    
    62   30   31 2    
    63   30   32 1    
    64   32   33 1    
    65   32   34 1    
    66   32  155 1    
    67   33  156 1    
    68   33  157 1    
    69   33  158 1    
    70   34   35 am   BACKBONE|DICT|INTERRES
    71   34  159 1    
    72   35   36 2    
    73   35   37 1    
    74   37   38 1    
    75   37   39 1    
    76   37  160 1    
    77   38  161 1    
    78   38  162 1    
    79   38  163 1    
    80   39   40 am   BACKBONE|DICT|INTERRES
    81   39  164 1    
    82   40   41 2    
    83   40   42 1    
    84   42   43 1    
    85   42   44 1    
    86   42  165 1    
    87   43  166 1    
    88   43  167 1    
    89   43  168 1    
    90   44   45 am   BACKBONE|DICT|INTERRES
    91   44  169 1    
    92   45   46 2    
    93   45   47 1    
    94   47   48 1    
    95   47   49 1    
    96   47  170 1    
    97   48  171 1    
    98   48  172 1    
    99   48  173 1    
   100   49   50 am   BACKBONE|DICT|INTERRES
   101   49  174 1    
   102   50   51 2    
   103   50   52 1    
   104   52   53 1    
   105   52   54 1    
   106   52  175 1    
   107   53  176 1    
   108   53  177 1    
   109   53  178 1    
   110   54   55 am   BACKBONE|DICT|INTERRES
   111   54  179 1    
   112   55   56 2    
   113   55   57 1    
   114   57   58 1    
   115   57   59 1    
   116   57  180 1    
   117   58  181 1    
   118   58  182 1    
   119   58  183 1    
   120   59   60 am   BACKBONE|DICT|INTERRES
   121   59  184 1    
   122   60   61 2    
   123   60   62 1    
   124   62   63 1    
   125   62   64 1    
   126   62  185 1    
   127   63  186 1    
   128   63  187 1    
   129   63  188 1    
   130   64   65 am   BACKBONE|DICT|INTERRES
   131   64  189 1    
   132   65   66 2    
   133   67   68 2    
   134   67   69 am   BACKBONE|DICT|INTERRES
   135   69   70 1    
   136   69  190 1    
   137   70   71 1    
   138   70   72 1    
   139   70  191 1    
   140   71  192 1    
   141   71  193 1    
   142   71  194 1    
   143   72   73 2    
   144   72   74 am   BACKBONE|DICT|INTERRES
   145   74   75 1    
   146   74  195 1    
   147   75   76 1    
   148   75   77 1    
   149   75  196 1    
   150   76  197 1    
   151   76  198 1    
   152   76  199 1    
   153   77   78 2    
   154   77   79 am   BACKBONE|DICT|INTERRES
   155   79   80 1    
   156   79  200 1    
   157   80   81 1    
   158   80   82 1    
   159   80  201 1    
   160   81  202 1    
   161   81  203 1    
   162   81  204 1    
   163   82   83 2    
   164   82   84 am   BACKBONE|DICT|INTERRES
   165   84   85 1    
   166   84  205 1    
   167   85   86 1    
   168   85   87 1    
   169   85  206 1    
   170   86  207 1    
   171   86  208 1    
   172   86  209 1    
   173   87   88 2    
   174   87   89 am   BACKBONE|DICT|INTERRES
   175   89   90 1    
   176   89  210 1    
   177   90   91 1    
   178   90   92 1    
   179   90  211 1    
   180   91  212 1    
   181   91  213 1    
   182   91  214 1    
   183   92   93 2    
   184   92   94 am   BACKBONE|DICT|INTERRES
   185   94   95 1    
   186   94  215 1    
   187   95   96 1    
   188   95   97 1    
   189   95  216 1    
   190   96  217 1    
   191   96  218 1    
   192   96  219 1    
   193   97   98 2    
   194   97   99 am   BACKBONE|DICT|INTERRES
   195   99  100 1    
   196   99  220 1    
   197  100  101 1    
   198  100  102 1    
   199  100  221 1    
   200  101  222 1    
   201  101  223 1    
   202  101  224 1    
   203  102  103 2    
   204  102  104 am   BACKBONE|DICT|INTERRES
   205  104  105 1    
   206  104  225 1    
   207  105  106 1    
   208  105  107 1    
   209  105  226 1    
   210  106  227 1    
   211  106  228 1    
   212  106  229 1    
   213  107  108 2    
   214  107  109 am   BACKBONE|DICT|INTERRES
   215  109  110 1    
   216  109  230 1    
   217  110  111 1    
   218  110  112 1    
   219  110  231 1    
   220  111  232 1    
   221  111  233 1    
   222  111  234 1    
   223  112  113 2    
   224  112  114 am   BACKBONE|DICT|INTERRES
   225  114  115 1    
   226  114  235 1    
   227  115  116 1    
   228  115  117 1    
   229  115  236 1    
   230  116  237 1    
   231  116  238 1    
   232  116  239 1    
   233  117  118 2    
   234  117  119 am   BACKBONE|DICT|INTERRES
   235  119  120 1    
   236  119  240 1    
   237  120  121 1    
   238  120  124 1    
   239  120  241 1    
   240  121  122 am   BACKBONE|DICT|INTERRES
   241  121  123 2    
   242  122  242 1    
   243  122  243 1    
   244  124  125 1    
   245  124  244 1    
   246  124  245 1    
   247  125  126 1    
   248  126  246 1    
   249  126  247 1    
@<TRIPOS>SUBSTRUCTURE
     1 UNK         1 GROUP             0       ****    0 ROOT    
