@<TRIPOS>MOLECULE
3R540
247   249    1
SMALL
USER_CHARGES


@<TRIPOS>ATOM
      1 CA         -8.3368  -15.6139  -48.7793 C.3       0 UNK        -0.1800 
      2 C          -7.0057  -14.9531  -49.1093 C.2       0 UNK         0.5000 
      3 O          -6.9903  -13.8259  -49.6048 O.2       0 UNK        -0.5000 
      4 N          -5.8969  -15.6521  -48.8394 N.am      1 UNK        -0.5000 
      5 CA         -4.5239  -15.1979  -49.0751 C.3       1 UNK         0.1400 
      6 C6         -3.5331  -16.3723  -48.8921 C.3       23 UNK        -0.0398 
      7 S7         -1.7784  -15.9692  -49.2165 S.3       23 UNK        -0.2404 
      8 C8         -0.9259  -17.1830  -48.1563 C.3       23 UNK        -0.0205 
      9 C9         -0.6673  -18.5123  -48.8554 C.ar      23 UNK        -0.0193 
     10 C10        -1.7277  -19.3438  -49.2244 C.ar      23 UNK        -0.1150 
     11 C11        -1.4941  -20.5841  -49.8203 C.ar      23 UNK        -0.0193 
     12 C12        -0.1801  -20.9892  -50.0659 C.ar      23 UNK        -0.1150 
     13 C13         0.8923  -20.1615  -49.7233 C.ar      23 UNK        -0.0193 
     14 C14         0.6430  -18.9303  -49.1086 C.ar      23 UNK        -0.1150 
     15 C15         2.3169  -20.5750  -50.0581 C.3       23 UNK        -0.0205 
     16 S16         3.2194  -21.1769  -48.6005 S.3       23 UNK        -0.2404 
     17 C17         2.3855  -22.7685  -48.2785 C.3       23 UNK        -0.0398 
     18 CA          3.2610  -23.7423  -47.4484 C.3       11 UNK         0.1400 
     19 N           3.7315  -23.1250  -46.2030 N.am      11 UNK        -0.5000 
     20 C           4.7960  -23.5146  -45.4906 C.2       10 UNK         0.5000 
     21 O           5.5597  -24.4166  -45.8355 O.2       10 UNK        -0.5000 
     22 CA          5.0176  -22.7966  -44.1459 C.3       10 UNK         0.1400 
     23 CB          5.9517  -21.5893  -44.3181 C.3       10 UNK        -0.1800 
     24 N           3.7534  -22.3595  -43.5461 N.am      10 UNK        -0.5000 
     25 C           2.8821  -23.1873  -42.9496 C.2       9 UNK         0.5000 
     26 O           3.0885  -24.3902  -42.7887 O.2       9 UNK        -0.5000 
     27 CA          1.5347  -22.5914  -42.4985 C.3       9 UNK         0.1400 
     28 CB          1.6362  -22.0738  -41.0564 C.3       9 UNK        -0.1800 
     29 N           1.0480  -21.5256  -43.3784 N.am      9 UNK        -0.5000 
     30 C           0.7153  -21.7068  -44.6649 C.2       8 UNK         0.5000 
     31 O           0.7359  -22.8051  -45.2165 O.2       8 UNK        -0.5000 
     32 CA          0.3445  -20.4704  -45.5030 C.3       8 UNK         0.1400 
     33 CB         -1.1763  -20.3152  -45.5807 C.3       8 UNK        -0.1800 
     34 N           0.9570  -19.2187  -45.0525 N.am      8 UNK        -0.5000 
     35 C           2.2802  -18.9955  -45.0433 C.2       7 UNK         0.5000 
     36 O           3.1202  -19.8656  -45.2730 O.2       7 UNK        -0.5000 
     37 CA          2.7437  -17.5710  -44.7085 C.3       7 UNK         0.1400 
     38 CB          2.4879  -16.6220  -45.8859 C.3       7 UNK        -0.1800 
     39 N           2.0631  -17.0653  -43.5215 N.am      7 UNK        -0.5000 
     40 C           2.5143  -17.2304  -42.2713 C.2       6 UNK         0.5000 
     41 O           3.6065  -17.7269  -41.9933 O.2       6 UNK        -0.5000 
     42 CA          1.5697  -16.7973  -41.1332 C.3       6 UNK         0.1400 
     43 CB          1.7603  -15.3077  -40.8100 C.3       6 UNK        -0.1800 
     44 N           0.1578  -17.0459  -41.4292 N.am      6 UNK        -0.5000 
     45 C          -0.3747  -18.2480  -41.6930 C.2       5 UNK         0.5000 
     46 O           0.2643  -19.2976  -41.6767 O.2       5 UNK        -0.5000 
     47 CA         -1.8613  -18.2836  -42.0868 C.3       5 UNK         0.1400 
     48 CB         -2.7368  -18.5719  -40.8590 C.3       5 UNK        -0.1800 
     49 N          -2.3308  -17.0579  -42.7344 N.am      5 UNK        -0.5000 
     50 C          -1.8605  -16.5412  -43.8783 C.2       4 UNK         0.5000 
     51 O          -0.9608  -17.0632  -44.5438 O.2       4 UNK        -0.5000 
     52 CA         -2.5409  -15.2376  -44.3448 C.3       4 UNK         0.1400 
     53 CB         -2.8760  -14.2843  -43.1756 C.3       4 UNK        -0.1800 
     54 N          -1.8100  -14.5047  -45.3791 N.am      4 UNK        -0.5000 
     55 C          -0.5813  -13.9688  -45.3054 C.2       3 UNK         0.5000 
     56 O           0.1876  -14.1338  -44.3570 O.2       3 UNK        -0.5000 
     57 CA         -0.1539  -13.0479  -46.4712 C.3       3 UNK         0.1400 
     58 CB          0.9863  -13.6581  -47.2978 C.3       3 UNK        -0.1800 
     59 N          -1.2619  -12.7097  -47.3691 N.am      3 UNK        -0.5000 
     60 C          -2.1819  -11.7682  -47.1152 C.2       2 UNK         0.5000 
     61 O          -2.1501  -11.0284  -46.1314 O.2       2 UNK        -0.5000 
     62 CA         -3.3486  -11.6479  -48.1144 C.3       2 UNK         0.1400 
     63 CB         -3.0377  -10.5834  -49.1775 C.3       2 UNK        -0.1800 
     64 N          -3.6900  -12.9068  -48.7840 N.am      2 UNK        -0.5000 
     65 C          -4.1872  -13.9921  -48.1740 C.2       1 UNK         0.5000 
     66 O          -4.3601  -14.0758  -46.9569 O.2       1 UNK        -0.5000 
     67 C           2.4947  -25.0616  -47.1901 C.2       11 UNK         0.5000 
     68 O           2.2566  -25.8111  -48.1376 O.2       11 UNK        -0.5000 
     69 N           2.1129  -25.3056  -45.9257 N.am      12 UNK        -0.5000 
     70 CA          1.2586  -26.3857  -45.4251 C.3       12 UNK         0.1400 
     71 CB          1.9367  -27.7595  -45.6080 C.3       12 UNK        -0.1800 
     72 C          -0.1673  -26.3178  -46.0128 C.2       12 UNK         0.5000 
     73 O          -0.7288  -27.3453  -46.3990 O.2       12 UNK        -0.5000 
     74 N          -0.7167  -25.0992  -46.0827 N.am      13 UNK        -0.5000 
     75 CA         -2.0183  -24.7864  -46.6635 C.3       13 UNK         0.1400 
     76 CB         -1.7876  -23.9767  -47.9476 C.3       13 UNK        -0.1800 
     77 C          -2.8959  -24.0018  -45.6727 C.2       13 UNK         0.5000 
     78 O          -2.4090  -23.5098  -44.6534 O.2       13 UNK        -0.5000 
     79 N          -4.1865  -23.8872  -46.0105 N.am      14 UNK        -0.5000 
     80 CA         -5.2334  -23.2676  -45.1898 C.3       14 UNK         0.1400 
     81 CB         -6.5356  -24.0611  -45.4004 C.3       14 UNK        -0.1800 
     82 C          -5.4476  -21.7645  -45.4785 C.2       14 UNK         0.5000 
     83 O          -6.4576  -21.2101  -45.0439 O.2       14 UNK        -0.5000 
     84 N          -4.5196  -21.1375  -46.2186 N.am      15 UNK        -0.5000 
     85 CA         -4.5300  -19.7305  -46.6528 C.3       15 UNK         0.1400 
     86 CB         -4.5065  -18.7659  -45.4468 C.3       15 UNK        -0.1800 
     87 C          -5.6608  -19.4062  -47.6567 C.2       15 UNK         0.5000 
     88 O          -6.1528  -18.2777  -47.6876 O.2       15 UNK        -0.5000 
     89 N          -6.0556  -20.4167  -48.4426 N.am      16 UNK        -0.5000 
     90 CA         -7.2938  -20.4737  -49.2193 C.3       16 UNK         0.1400 
     91 CB         -7.4026  -21.8646  -49.8650 C.3       16 UNK        -0.1800 
     92 C          -7.4993  -19.3775  -50.2819 C.2       16 UNK         0.5000 
     93 O          -8.6103  -18.8542  -50.3798 O.2       16 UNK        -0.5000 
     94 N          -6.4653  -19.0863  -51.0818 N.am      17 UNK        -0.5000 
     95 CA         -6.5844  -18.2528  -52.2806 C.3       17 UNK         0.1400 
     96 CB         -6.5546  -19.1475  -53.5348 C.3       17 UNK        -0.1800 
     97 C          -5.5076  -17.1625  -52.3205 C.2       17 UNK         0.5000 
     98 O          -5.8285  -15.9900  -52.1353 O.2       17 UNK        -0.5000 
     99 N          -4.2583  -17.5615  -52.5730 N.am      18 UNK        -0.5000 
    100 CA        -3.0864  -16.7069  -52.7396 C.3       18 UNK         0.1400 
    101 CB        -3.2298  -15.7943  -53.9745 C.3       18 UNK        -0.1800 
    102 C         -1.8785  -17.6276  -52.9240 C.2       18 UNK         0.5000 
    103 O         -2.0435  -18.7294  -53.4510 O.2       18 UNK        -0.5000 
    104 N         -0.6810  -17.1562  -52.5604 N.am      19 UNK        -0.5000 
    105 CA         0.5674  -17.9231  -52.6477 C.3       19 UNK         0.1400 
    106 CB         1.7120  -17.0920  -52.0495 C.3       19 UNK        -0.1800 
    107 C          0.9248  -18.4055  -54.0689 C.2       19 UNK         0.5000 
    108 O          1.5277  -19.4682  -54.2168 O.2       19 UNK        -0.5000 
    109 N          0.5116  -17.6396  -55.0864 N.am      20 UNK        -0.5000 
    110 CA         0.6571  -17.9874  -56.5002 C.3       20 UNK         0.1400 
    111 CB         0.6540  -16.6889  -57.3227 C.3       20 UNK        -0.1800 
    112 C         -0.4389  -18.9461  -57.0130 C.2       20 UNK         0.5000 
    113 O         -0.2600  -19.5355  -58.0798 O.2       20 UNK        -0.5000 
    114 N         -1.5544  -19.0672  -56.2800 N.am      21 UNK        -0.5000 
    115 CA        -2.7292  -19.8473  -56.6686 C.3       21 UNK         0.1400 
    116 CB        -3.9994  -19.0413  -56.3501 C.3       21 UNK        -0.1800 
    117 C         -2.7640  -21.2129  -55.9654 C.2       21 UNK         0.5000 
    118 O         -2.9769  -22.2264  -56.6326 O.2       21 UNK        -0.5000 
    119 N         -2.5563  -21.2162  -54.6433 N.am      22 UNK        -0.5000 
    120 CA        -2.5723  -22.4102  -53.7818 C.3       22 UNK         0.1400 
    121 C         -1.1782  -22.7939  -53.2087 C.2       22 UNK         0.5000 
    122 N         -0.1065  -22.0741  -53.5155 N.am      22 UNK        -0.7600 
    123 O         -1.0577  -23.7866  -52.4963 O.2       22 UNK        -0.5000 
    124 C124       -3.6762  -22.3279  -52.6901 C.3       23 UNK        -0.0398 
    125 S125       -3.5914  -20.8572  -51.6069 S.3       23 UNK        -0.2404 
    126 C126       -2.6620  -21.4886  -50.1793 C.3       23 UNK        -0.0205 
    127 H127       -8.9172  -14.9799  -48.1093 H         1 UNK         0.0600 
    128 H128       -8.2012  -16.5826  -48.2979 H         1 UNK         0.0600 
    129 H129       -8.9129  -15.7693  -49.6916 H         1 UNK         0.0600 
    130 H130       -5.9938  -16.5656  -48.4010 H         1 UNK         0.3000 
    131 H131       -4.4657  -14.8722  -50.1153 H         1 UNK         0.0600 
    132 H132       -3.6267  -16.7756  -47.8834 H         1 UNK         0.0800 
    133 H133       -3.8195  -17.1747  -49.5717 H         1 UNK         0.0800 
    134 H134        0.0220  -16.7502  -47.8437 H         1 UNK         0.0800 
    135 H135       -1.4892  -17.3469  -47.2379 H         1 UNK         0.0800 
    136 H136       -2.7427  -19.0289  -49.0595 H         1 UNK         0.1150 
    137 H137        0.0076  -21.9442  -50.5354 H         1 UNK         0.1150 
    138 H138        1.4746  -18.2967  -48.8345 H         1 UNK         0.1150 
    139 H139        2.3273  -21.3369  -50.8389 H         1 UNK         0.0800 
    140 H140        2.8505  -19.7168  -50.4685 H         1 UNK         0.0800 
    141 H141        1.4390  -22.5660  -47.7763 H         1 UNK         0.0800 
    142 H142        2.1280  -23.2242  -49.2363 H         1 UNK         0.0800 
    143 H143        4.1363  -23.9971  -48.0497 H         1 UNK         0.0600 
    144 H144        3.1844  -22.3468  -45.8608 H         1 UNK         0.3000 
    145 H145        5.5000  -23.5015  -43.4653 H         1 UNK         0.0600 
    146 H146        6.1152  -21.0771  -43.3699 H         1 UNK         0.0600 
    147 H147        5.5517  -20.8645  -45.0274 H         1 UNK         0.0600 
    148 H148        6.9271  -21.9045  -44.6906 H         1 UNK         0.0600 
    149 H149        3.4896  -21.3937  -43.6996 H         1 UNK         0.3000 
    150 H150        0.7984  -23.3978  -42.5171 H         1 UNK         0.0600 
    151 H151        2.0241  -22.8439  -40.3884 H         1 UNK         0.0600 
    152 H152        0.6582  -21.7802  -40.6751 H         1 UNK         0.0600 
    153 H153        2.2987  -21.2102  -40.9851 H         1 UNK         0.0600 
    154 H154        0.9546  -20.6025  -42.9646 H         1 UNK         0.3000 
    155 H155        0.7074  -20.6438  -46.5178 H         1 UNK         0.0600 
    156 H156       -1.6079  -21.1268  -46.1648 H         1 UNK         0.0600 
    157 H157       -1.4591  -19.3809  -46.0612 H         1 UNK         0.0600 
    158 H158       -1.6369  -20.3464  -44.5953 H         1 UNK         0.0600 
    159 H159        0.3240  -18.4510  -44.8452 H         1 UNK         0.3000 
    160 H160        3.8219  -17.6033  -44.5374 H         1 UNK         0.0600 
    161 H161        1.4230  -16.4411  -46.0287 H         1 UNK         0.0600 
    162 H162        2.8872  -17.0262  -46.8171 H         1 UNK         0.0600 
    163 H163        2.9711  -15.6611  -45.7131 H         1 UNK         0.0600 
    164 H164        1.1444  -16.6629  -43.6614 H         1 UNK         0.3000 
    165 H165        1.8307  -17.3793  -40.2469 H         1 UNK         0.0600 
    166 H166        1.1588  -15.0095  -39.9511 H         1 UNK         0.0600 
    167 H167        2.8015  -15.0907  -40.5678 H         1 UNK         0.0600 
    168 H168        1.4801  -14.6748  -41.6534 H         1 UNK         0.0600 
    169 H169       -0.4424  -16.2367  -41.4824 H         1 UNK         0.3000 
    170 H170       -1.9931  -19.1030  -42.7920 H         1 UNK         0.0600 
    171 H171       -2.4267  -19.4947  -40.3665 H         1 UNK         0.0600 
    172 H172       -2.6750  -17.7697  -40.1226 H         1 UNK         0.0600 
    173 H173       -3.7833  -18.6920  -41.1400 H         1 UNK         0.0600 
    174 H174       -3.0742  -16.5668  -42.2597 H         1 UNK         0.3000 
    175 H175       -3.4817  -15.5400  -44.8059 H         1 UNK         0.0600 
    176 H176       -1.9902  -14.0356  -42.5897 H         1 UNK         0.0600 
    177 H177       -3.3010  -13.3502  -43.5443 H         1 UNK         0.0600 
    178 H178       -3.6130  -14.7162  -42.4982 H         1 UNK         0.0600 
    179 H179       -2.3621  -14.2915  -46.1995 H         1 UNK         0.3000 
    180 H180        0.2246  -12.1267  -46.0231 H         1 UNK         0.0600 
    181 H181        1.8566  -13.8521  -46.6721 H         1 UNK         0.0600 
    182 H182        1.3064  -12.9777  -48.0871 H         1 UNK         0.0600 
    183 H183        0.6934  -14.5954  -47.7664 H         1 UNK         0.0600 
    184 H184       -1.3616  -13.2723  -48.2019 H         1 UNK         0.3000 
    185 H185       -4.2266  -11.3223  -47.5524 H         1 UNK         0.0600 
    186 H186       -2.8044   -9.6240  -48.7134 H         1 UNK         0.0600 
    187 H187       -2.1829  -10.8665  -49.7931 H         1 UNK         0.0600 
    188 H188       -3.8903  -10.4238  -49.8378 H         1 UNK         0.0600 
    189 H189       -3.5802  -12.9192  -49.7878 H         1 UNK         0.3000 
    190 H190        2.3315  -24.5895  -45.2468 H         1 UNK         0.3000 
    191 H191        1.1523  -26.2133  -44.3531 H         1 UNK         0.0600 
    192 H192        1.3640  -28.5451  -45.1138 H         1 UNK         0.0600 
    193 H193        2.9364  -27.7653  -45.1737 H         1 UNK         0.0600 
    194 H194        2.0257  -28.0337  -46.6594 H         1 UNK         0.0600 
    195 H195       -0.2096  -24.3031  -45.6982 H         1 UNK         0.3000 
    196 H196       -2.5525  -25.7039  -46.9183 H         1 UNK         0.0600 
    197 H197       -1.3150  -23.0153  -47.7424 H         1 UNK         0.0600 
    198 H198       -1.1476  -24.5176  -48.6455 H         1 UNK         0.0600 
    199 H199       -2.7317  -23.7898  -48.4577 H         1 UNK         0.0600 
    200 H200       -4.5008  -24.3127  -46.8711 H         1 UNK         0.3000 
    201 H201       -4.9597  -23.3498  -44.1358 H         1 UNK         0.0600 
    202 H202       -7.3305  -23.6994  -44.7468 H         1 UNK         0.0600 
    203 H203       -6.3941  -25.1183  -45.1747 H         1 UNK         0.0600 
    204 H204       -6.8935  -23.9817  -46.4278 H         1 UNK         0.0600 
    205 H205       -3.7256  -21.6871  -46.5103 H         1 UNK         0.3000 
    206 H206       -3.5955  -19.5856  -47.1848 H         1 UNK         0.0600 
    207 H207       -3.7247  -19.0336  -44.7375 H         1 UNK         0.0600 
    208 H208       -4.3151  -17.7423  -45.7680 H         1 UNK         0.0600 
    209 H209       -5.4553  -18.7623  -44.9100 H         1 UNK         0.0600 
    210 H210       -5.5709  -21.2944  -48.3406 H         1 UNK         0.3000 
    211 H211       -8.1135  -20.3766  -48.5042 H         1 UNK         0.0600 
    212 H212       -6.5711  -22.0588  -50.5442 H         1 UNK         0.0600 
    213 H213       -8.3246  -21.9594  -50.4404 H         1 UNK         0.0600 
    214 H214       -7.4115  -22.6517  -49.1106 H         1 UNK         0.0600 
    215 H215       -5.5765  -19.5425  -50.9257 H         1 UNK         0.3000 
    216 H216       -7.5402  -17.7246  -52.2874 H         1 UNK         0.0600 
    217 H217       -7.4211  -19.8083  -53.5608 H         1 UNK         0.0600 
    218 H218       -5.6635  -19.7739  -53.5752 H         1 UNK         0.0600 
    219 H219       -6.5786  -18.5472  -54.4452 H         1 UNK         0.0600 
    220 H220       -4.0552  -18.5463  -52.7004 H         1 UNK         0.3000 
    221 H221       -2.9526  -16.1004  -51.8449 H         1 UNK         0.0600 
    222 H222       -2.3224  -15.2124  -54.1400 H         1 UNK         0.0600 
    223 H223       -3.4197  -16.3701  -54.8808 H         1 UNK         0.0600 
    224 H224       -4.0442  -15.0801  -53.8572 H         1 UNK         0.0600 
    225 H225       -0.6174  -16.2416  -52.1375 H         1 UNK         0.3000 
    226 H226        0.4345  -18.8183  -52.0406 H         1 UNK         0.0600 
    227 H227        1.5035  -16.8197  -51.0147 H         1 UNK         0.0600 
    228 H228        2.6470  -17.6536  -52.0552 H         1 UNK         0.0600 
    229 H229        1.8767  -16.1722  -52.6118 H         1 UNK         0.0600 
    230 H230        0.0259  -16.7806  -54.8752 H         1 UNK         0.3000 
    231 H231        1.6204  -18.4801  -56.6489 H         1 UNK         0.0600 
    232 H232        0.7953  -16.8969  -58.3841 H         1 UNK         0.0600 
    233 H233        1.4611  -16.0243  -57.0138 H         1 UNK         0.0600 
    234 H234       -0.2871  -16.1476  -57.2168 H         1 UNK         0.0600 
    235 H235       -1.5932  -18.6287  -55.3675 H         1 UNK         0.3000 
    236 H236       -2.7189  -20.0287  -57.7455 H         1 UNK         0.0600 
    237 H237       -4.0191  -18.1040  -56.9061 H         1 UNK         0.0600 
    238 H238       -4.8960  -19.5999  -56.6218 H         1 UNK         0.0600 
    239 H239       -4.0723  -18.8007  -55.2900 H         1 UNK         0.0600 
    240 H240       -2.3797  -20.3356  -54.1627 H         1 UNK         0.3000 
    241 H241       -2.8335  -23.2741  -54.3950 H         1 UNK         0.0600 
    242 H242       -0.1772  -21.2550  -54.0980 H         1 UNK         0.3800 
    243 H243        0.7925  -22.3490  -53.1568 H         1 UNK         0.3800 
    244 H244       -3.6965  -23.2355  -52.0849 H         1 UNK         0.0800 
    245 H245       -4.6485  -22.2986  -53.1833 H         1 UNK         0.0800 
    246 H246       -3.3359  -21.5703  -49.3269 H         1 UNK         0.0800 
    247 H247       -2.2995  -22.4956  -50.3838 H         1 UNK         0.0800 
@<TRIPOS>BOND
     1    1    2 1    
     2    1  127 1    
     3    1  128 1    
     4    1  129 1    
     5    2    3 2    
     6    2    4 am   BACKBONE|DICT|INTERRES
     7    4    5 1    
     8    4  130 1    
     9    5    6 1    
    10    5   65 1    
    11    5  131 1    
    12    6    7 1    
    13    6  132 1    
    14    6  133 1    
    15    7    8 1    
    16    8    9 1    
    17    8  134 1    
    18    8  135 1    
    19    9   10 ar   
    20    9   14 ar   
    21   10   11 ar   
    22   10  136 1    
    23   11   12 ar   
    24   11  126 1    
    25   12   13 ar   
    26   12  137 1    
    27   13   14 ar   
    28   13   15 1    
    29   14  138 1    
    30   15   16 1    
    31   15  139 1    
    32   15  140 1    
    33   16   17 1    
    34   17   18 1    
    35   17  141 1    
    36   17  142 1    
    37   18   19 1    
    38   18   67 1    
    39   18  143 1    
    40   19   20 am   BACKBONE|DICT|INTERRES
    41   19  144 1    
    42   20   21 2    
    43   20   22 1    
    44   22   23 1    
    45   22   24 1    
    46   22  145 1    
    47   23  146 1    
    48   23  147 1    
    49   23  148 1    
    50   24   25 am   BACKBONE|DICT|INTERRES
    51   24  149 1    
    52   25   26 2    
    53   25   27 1    
    54   27   28 1    
    55   27   29 1    
    56   27  150 1    
    57   28  151 1    
    58   28  152 1    
    59   28  153 1    
    60   29   30 am   BACKBONE|DICT|INTERRES
    61   29  154 1    
    62   30   31 2    
    63   30   32 1    
    64   32   33 1    
    65   32   34 1    
    66   32  155 1    
    67   33  156 1    
    68   33  157 1    
    69   33  158 1    
    70   34   35 am   BACKBONE|DICT|INTERRES
    71   34  159 1    
    72   35   36 2    
    73   35   37 1    
    74   37   38 1    
    75   37   39 1    
    76   37  160 1    
    77   38  161 1    
    78   38  162 1    
    79   38  163 1    
    80   39   40 am   BACKBONE|DICT|INTERRES
    81   39  164 1    
    82   40   41 2    
    83   40   42 1    
    84   42   43 1    
    85   42   44 1    
    86   42  165 1    
    87   43  166 1    
    88   43  167 1    
    89   43  168 1    
    90   44   45 am   BACKBONE|DICT|INTERRES
    91   44  169 1    
    92   45   46 2    
    93   45   47 1    
    94   47   48 1    
    95   47   49 1    
    96   47  170 1    
    97   48  171 1    
    98   48  172 1    
    99   48  173 1    
   100   49   50 am   BACKBONE|DICT|INTERRES
   101   49  174 1    
   102   50   51 2    
   103   50   52 1    
   104   52   53 1    
   105   52   54 1    
   106   52  175 1    
   107   53  176 1    
   108   53  177 1    
   109   53  178 1    
   110   54   55 am   BACKBONE|DICT|INTERRES
   111   54  179 1    
   112   55   56 2    
   113   55   57 1    
   114   57   58 1    
   115   57   59 1    
   116   57  180 1    
   117   58  181 1    
   118   58  182 1    
   119   58  183 1    
   120   59   60 am   BACKBONE|DICT|INTERRES
   121   59  184 1    
   122   60   61 2    
   123   60   62 1    
   124   62   63 1    
   125   62   64 1    
   126   62  185 1    
   127   63  186 1    
   128   63  187 1    
   129   63  188 1    
   130   64   65 am   BACKBONE|DICT|INTERRES
   131   64  189 1    
   132   65   66 2    
   133   67   68 2    
   134   67   69 am   BACKBONE|DICT|INTERRES
   135   69   70 1    
   136   69  190 1    
   137   70   71 1    
   138   70   72 1    
   139   70  191 1    
   140   71  192 1    
   141   71  193 1    
   142   71  194 1    
   143   72   73 2    
   144   72   74 am   BACKBONE|DICT|INTERRES
   145   74   75 1    
   146   74  195 1    
   147   75   76 1    
   148   75   77 1    
   149   75  196 1    
   150   76  197 1    
   151   76  198 1    
   152   76  199 1    
   153   77   78 2    
   154   77   79 am   BACKBONE|DICT|INTERRES
   155   79   80 1    
   156   79  200 1    
   157   80   81 1    
   158   80   82 1    
   159   80  201 1    
   160   81  202 1    
   161   81  203 1    
   162   81  204 1    
   163   82   83 2    
   164   82   84 am   BACKBONE|DICT|INTERRES
   165   84   85 1    
   166   84  205 1    
   167   85   86 1    
   168   85   87 1    
   169   85  206 1    
   170   86  207 1    
   171   86  208 1    
   172   86  209 1    
   173   87   88 2    
   174   87   89 am   BACKBONE|DICT|INTERRES
   175   89   90 1    
   176   89  210 1    
   177   90   91 1    
   178   90   92 1    
   179   90  211 1    
   180   91  212 1    
   181   91  213 1    
   182   91  214 1    
   183   92   93 2    
   184   92   94 am   BACKBONE|DICT|INTERRES
   185   94   95 1    
   186   94  215 1    
   187   95   96 1    
   188   95   97 1    
   189   95  216 1    
   190   96  217 1    
   191   96  218 1    
   192   96  219 1    
   193   97   98 2    
   194   97   99 am   BACKBONE|DICT|INTERRES
   195   99  100 1    
   196   99  220 1    
   197  100  101 1    
   198  100  102 1    
   199  100  221 1    
   200  101  222 1    
   201  101  223 1    
   202  101  224 1    
   203  102  103 2    
   204  102  104 am   BACKBONE|DICT|INTERRES
   205  104  105 1    
   206  104  225 1    
   207  105  106 1    
   208  105  107 1    
   209  105  226 1    
   210  106  227 1    
   211  106  228 1    
   212  106  229 1    
   213  107  108 2    
   214  107  109 am   BACKBONE|DICT|INTERRES
   215  109  110 1    
   216  109  230 1    
   217  110  111 1    
   218  110  112 1    
   219  110  231 1    
   220  111  232 1    
   221  111  233 1    
   222  111  234 1    
   223  112  113 2    
   224  112  114 am   BACKBONE|DICT|INTERRES
   225  114  115 1    
   226  114  235 1    
   227  115  116 1    
   228  115  117 1    
   229  115  236 1    
   230  116  237 1    
   231  116  238 1    
   232  116  239 1    
   233  117  118 2    
   234  117  119 am   BACKBONE|DICT|INTERRES
   235  119  120 1    
   236  119  240 1    
   237  120  121 1    
   238  120  124 1    
   239  120  241 1    
   240  121  122 am   BACKBONE|DICT|INTERRES
   241  121  123 2    
   242  122  242 1    
   243  122  243 1    
   244  124  125 1    
   245  124  244 1    
   246  124  245 1    
   247  125  126 1    
   248  126  246 1    
   249  126  247 1    
@<TRIPOS>SUBSTRUCTURE
     1 UNK         1 GROUP             0       ****    0 ROOT    
