@<TRIPOS>MOLECULE
3R540
247   249    1
SMALL
USER_CHARGES


@<TRIPOS>ATOM
      1 CA          3.5019  -10.0464  -48.4767 C.3       0 UNK        -0.1800 
      2 C           4.0061  -11.3739  -47.9281 C.2       0 UNK         0.5000 
      3 O           5.1765  -11.4798  -47.5593 O.2       0 UNK        -0.5000 
      4 N           3.1321  -12.3861  -47.8826 N.am      1 UNK        -0.5000 
      5 CA          3.4178  -13.7207  -47.3441 C.3       1 UNK         0.1400 
      6 C6          2.3816  -14.7719  -47.8149 C.3       23 UNK        -0.0398 
      7 S7          2.2163  -14.8547  -49.6311 S.3       23 UNK        -0.2404 
      8 C8          3.4430  -16.1279  -50.0951 C.3       23 UNK        -0.0205 
      9 C9          2.8249  -17.4795  -50.4451 C.ar      23 UNK        -0.0193 
     10 C10         1.7632  -17.5606  -51.3532 C.ar      23 UNK        -0.1150 
     11 C11         1.2222  -18.7973  -51.7153 C.ar      23 UNK        -0.0193 
     12 C12         1.7695  -19.9678  -51.1831 C.ar      23 UNK        -0.1150 
     13 C13         2.8474  -19.9078  -50.2945 C.ar      23 UNK        -0.0193 
     14 C14         3.3625  -18.6606  -49.9208 C.ar      23 UNK        -0.1150 
     15 C15         3.4923  -21.1935  -49.7909 C.3       23 UNK        -0.0205 
     16 S16         3.3239  -21.4171  -47.9933 S.3       23 UNK        -0.2404 
     17 C17         1.5281  -21.6750  -47.8027 C.3       23 UNK        -0.0398 
     18 CA          1.1795  -22.7395  -46.7368 C.3       11 UNK         0.1400 
     19 N           1.7885  -22.4211  -45.4438 N.am      11 UNK        -0.5000 
     20 C           2.1928  -23.3103  -44.5309 C.2       10 UNK         0.5000 
     21 O           2.0798  -24.5280  -44.6671 O.2       10 UNK        -0.5000 
     22 CA          2.8352  -22.7407  -43.2493 C.3       10 UNK         0.1400 
     23 CB          4.3645  -22.7079  -43.3903 C.3       10 UNK        -0.1800 
     24 N           2.3608  -21.3936  -42.9195 N.am      10 UNK        -0.5000 
     25 C           1.1400  -21.1226  -42.4388 C.2       9 UNK         0.5000 
     26 O           0.3062  -21.9890  -42.1729 O.2       9 UNK        -0.5000 
     27 CA          0.7676  -19.6337  -42.2798 C.3       9 UNK         0.1400 
     28 CB          1.1641  -19.1107  -40.8927 C.3       9 UNK        -0.1800 
     29 N           1.3207  -18.7475  -43.3128 N.am      9 UNK        -0.5000 
     30 C           1.0932  -18.8824  -44.6245 C.2       8 UNK         0.5000 
     31 O           0.4592  -19.8211  -45.1029 O.2       8 UNK        -0.5000 
     32 CA          1.7348  -17.8493  -45.5648 C.3       8 UNK         0.1400 
     33 CB          3.2252  -18.1813  -45.7455 C.3       8 UNK        -0.1800 
     34 N           1.0988  -17.8247  -46.8850 N.am      8 UNK        -0.5000 
     35 C          -0.1666  -17.4581  -47.1284 C.2       7 UNK         0.5000 
     36 O          -0.9633  -17.0659  -46.2704 O.2       7 UNK        -0.5000 
     37 CA         -0.6236  -17.5565  -48.5884 C.3       7 UNK         0.1400 
     38 CB         -0.9018  -19.0094  -48.9885 C.3       7 UNK        -0.1800 
     39 N          -1.8462  -16.7856  -48.7211 N.am      7 UNK        -0.5000 
     40 C          -2.1600  -15.9734  -49.7323 C.2       6 UNK         0.5000 
     41 O          -1.5230  -15.9041  -50.7835 O.2       6 UNK        -0.5000 
     42 CA         -3.3956  -15.0726  -49.5304 C.3       6 UNK         0.1400 
     43 CB         -4.5628  -15.5619  -50.4024 C.3       6 UNK        -0.1800 
     44 N          -3.8524  -14.9782  -48.1370 N.am      6 UNK        -0.5000 
     45 C          -3.1831  -14.3963  -47.1295 C.2       5 UNK         0.5000 
     46 O          -2.0757  -13.8742  -47.2603 O.2       5 UNK        -0.5000 
     47 CA         -3.8625  -14.3797  -45.7502 C.3       5 UNK         0.1400 
     48 CB         -5.3172  -14.9023  -45.7472 C.3       5 UNK        -0.1800 
     49 N          -3.0659  -15.1334  -44.7815 N.am      5 UNK        -0.5000 
     50 C          -3.0453  -14.8694  -43.4686 C.2       4 UNK         0.5000 
     51 O          -3.6128  -13.8985  -42.9636 O.2       4 UNK        -0.5000 
     52 CA         -2.3163  -15.8530  -42.5300 C.3       4 UNK         0.1400 
     53 CB         -2.1220  -17.2727  -43.0982 C.3       4 UNK        -0.1800 
     54 N          -1.0647  -15.3052  -42.0007 N.am      4 UNK        -0.5000 
     55 C           0.0102  -14.9063  -42.6957 C.2       3 UNK         0.5000 
     56 O           0.1064  -14.9907  -43.9208 O.2       3 UNK        -0.5000 
     57 CA          1.1482  -14.2547  -41.8779 C.3       3 UNK         0.1400 
     58 CB          1.3564  -14.8896  -40.4842 C.3       3 UNK        -0.1800 
     59 N           2.4159  -14.1879  -42.6108 N.am      3 UNK        -0.5000 
     60 C           3.1869  -15.2063  -43.0125 C.2       2 UNK         0.5000 
     61 O           2.9331  -16.3961  -42.8063 O.2       2 UNK        -0.5000 
     62 CA          4.4612  -14.8090  -43.7867 C.3       2 UNK         0.1400 
     63 CB          5.6107  -15.8072  -43.5635 C.3       2 UNK        -0.1800 
     64 N           4.2224  -14.6705  -45.2250 N.am      2 UNK        -0.5000 
     65 C           3.5145  -13.6885  -45.8005 C.2       1 UNK         0.5000 
     66 O           2.9634  -12.7853  -45.1644 O.2       1 UNK        -0.5000 
     67 C          -0.3489  -22.8872  -46.5851 C.2       11 UNK         0.5000 
     68 O          -0.9553  -23.7358  -47.2389 O.2       11 UNK        -0.5000 
     69 N          -0.9480  -22.0888  -45.6905 N.am      12 UNK        -0.5000 
     70 CA         -2.3540  -22.1323  -45.2892 C.3       12 UNK         0.1400 
     71 CB         -2.6341  -20.9819  -44.3110 C.3       12 UNK        -0.1800 
     72 C          -2.7607  -23.4824  -44.6720 C.2       12 UNK         0.5000 
     73 O          -3.8943  -23.9184  -44.8672 O.2       12 UNK        -0.5000 
     74 N          -1.8093  -24.1567  -44.0103 N.am      13 UNK        -0.5000 
     75 CA         -1.9408  -25.5271  -43.5082 C.3       13 UNK         0.1400 
     76 CB         -0.7224  -25.8550  -42.6326 C.3       13 UNK        -0.1800 
     77 C          -2.1078  -26.5816  -44.6254 C.2       13 UNK         0.5000 
     78 O          -2.6681  -27.6470  -44.3679 O.2       13 UNK        -0.5000 
     79 N          -1.6527  -26.2576  -45.8442 N.am      14 UNK        -0.5000 
     80 CA         -1.8391  -27.0420  -47.0667 C.3       14 UNK         0.1400 
     81 CB         -0.5082  -27.0754  -47.8390 C.3       14 UNK        -0.1800 
     82 C          -2.9870  -26.4816  -47.9369 C.2       14 UNK         0.5000 
     83 O          -3.1108  -26.8733  -49.0977 O.2       14 UNK        -0.5000 
     84 N          -3.8014  -25.5785  -47.3671 N.am      15 UNK        -0.5000 
     85 CA         -4.9755  -24.9172  -47.9458 C.3       15 UNK         0.1400 
     86 CB         -6.0478  -25.9419  -48.3709 C.3       15 UNK        -0.1800 
     87 C          -4.6614  -23.8984  -49.0599 C.2       15 UNK         0.5000 
     88 O          -5.5835  -23.4732  -49.7573 O.2       15 UNK        -0.5000 
     89 N          -3.3993  -23.4608  -49.1896 N.am      16 UNK        -0.5000 
     90 CA         -2.9729  -22.4961  -50.2127 C.3       16 UNK         0.1400 
     91 CB         -1.4419  -22.4179  -50.2354 C.3       16 UNK        -0.1800 
     92 C          -3.5706  -21.0873  -50.0249 C.2       16 UNK         0.5000 
     93 O          -3.6687  -20.3373  -50.9932 O.2       16 UNK        -0.5000 
     94 N          -3.9589  -20.7500  -48.7870 N.am      17 UNK        -0.5000 
     95 CA         -4.6385  -19.4970  -48.4568 C.3       17 UNK         0.1400 
     96 CB         -4.4578  -19.1980  -46.9611 C.3       17 UNK        -0.1800 
     97 C          -6.1311  -19.5215  -48.8390 C.2       17 UNK         0.5000 
     98 O          -6.6979  -18.4630  -49.1083 O.2       17 UNK        -0.5000 
     99 N          -6.7364  -20.7189  -48.8666 N.am      18 UNK        -0.5000 
    100 CA        -8.0998  -20.9429  -49.3476 C.3       18 UNK         0.1400 
    101 CB        -8.6742  -22.2217  -48.7174 C.3       18 UNK        -0.1800 
    102 C         -8.1155  -21.0190  -50.8824 C.2       18 UNK         0.5000 
    103 O         -8.9224  -20.3440  -51.5229 O.2       18 UNK        -0.5000 
    104 N         -7.1697  -21.7791  -51.4515 N.am      19 UNK        -0.5000 
    105 CA        -6.8689  -21.8438  -52.8822 C.3       19 UNK         0.1400 
    106 CB        -6.1834  -23.1887  -53.1813 C.3       19 UNK        -0.1800 
    107 C         -6.0181  -20.6309  -53.3171 C.2       19 UNK         0.5000 
    108 O         -4.9160  -20.7974  -53.8436 O.2       19 UNK        -0.5000 
    109 N         -6.5542  -19.4267  -53.0704 N.am      20 UNK        -0.5000 
    110 CA        -5.8995  -18.1164  -53.1614 C.3       20 UNK         0.1400 
    111 CB        -6.9013  -17.0438  -52.7062 C.3       20 UNK        -0.1800 
    112 C         -5.3023  -17.7494  -54.5353 C.2       20 UNK         0.5000 
    113 O         -4.4934  -16.8240  -54.6110 O.2       20 UNK        -0.5000 
    114 N         -5.6813  -18.4868  -55.5881 N.am      21 UNK        -0.5000 
    115 CA        -5.0659  -18.4433  -56.9154 C.3       21 UNK         0.1400 
    116 CB        -5.8960  -19.3084  -57.8759 C.3       21 UNK        -0.1800 
    117 C         -3.5890  -18.8955  -56.9225 C.2       21 UNK         0.5000 
    118 O         -2.8527  -18.5127  -57.8325 O.2       21 UNK        -0.5000 
    119 N         -3.1799  -19.6886  -55.9197 N.am      22 UNK        -0.5000 
    120 CA        -1.8071  -20.1408  -55.6275 C.3       22 UNK         0.1400 
    121 C         -1.2038  -21.1553  -56.6464 C.2       22 UNK         0.5000 
    122 N         -1.5241  -21.0737  -57.9303 N.am      22 UNK        -0.7600 
    123 O         -0.4592  -22.0522  -56.2612 O.2       22 UNK        -0.5000 
    124 C124       -0.8569  -18.9399  -55.3601 C.3       23 UNK        -0.0398 
    125 S125        0.6075  -19.3459  -54.3488 S.3       23 UNK        -0.2404 
    126 C126        0.0513  -18.8648  -52.6844 C.3       23 UNK        -0.0205 
    127 H127        2.4551  -10.1029  -48.7766 H         1 UNK         0.0600 
    128 H128        4.0890   -9.7522  -49.3467 H         1 UNK         0.0600 
    129 H129        3.5971   -9.2676  -47.7201 H         1 UNK         0.0600 
    130 H130        2.1820  -12.2360  -48.1893 H         1 UNK         0.3000 
    131 H131        4.3951  -14.0249  -47.7256 H         1 UNK         0.0600 
    132 H132        2.6579  -15.7587  -47.4535 H         1 UNK         0.0800 
    133 H133        1.3967  -14.5564  -47.3947 H         1 UNK         0.0800 
    134 H134        3.9852  -15.7715  -50.9717 H         1 UNK         0.0800 
    135 H135        4.1874  -16.2311  -49.3044 H         1 UNK         0.0800 
    136 H136        1.3511  -16.6549  -51.7761 H         1 UNK         0.1150 
    137 H137        1.3657  -20.9255  -51.4799 H         1 UNK         0.1150 
    138 H138        4.2042  -18.6165  -49.2437 H         1 UNK         0.1150 
    139 H139        3.0813  -22.0657  -50.3016 H         1 UNK         0.0800 
    140 H140        4.5541  -21.1711  -50.0396 H         1 UNK         0.0800 
    141 H141        1.1151  -21.9609  -48.7696 H         1 UNK         0.0800 
    142 H142        1.0874  -20.7156  -47.5358 H         1 UNK         0.0800 
    143 H143        1.5662  -23.7000  -47.0845 H         1 UNK         0.0600 
    144 H144        1.8623  -21.4369  -45.2259 H         1 UNK         0.3000 
    145 H145        2.5812  -23.4108  -42.4250 H         1 UNK         0.0600 
    146 H146        4.8388  -22.3678  -42.4695 H         1 UNK         0.0600 
    147 H147        4.7577  -23.7015  -43.6095 H         1 UNK         0.0600 
    148 H148        4.6802  -22.0448  -44.1970 H         1 UNK         0.0600 
    149 H149        2.9874  -20.6250  -43.1083 H         1 UNK         0.3000 
    150 H150       -0.3185  -19.5836  -42.3586 H         1 UNK         0.0600 
    151 H151        2.2462  -19.0224  -40.7895 H         1 UNK         0.0600 
    152 H152        0.8088  -19.7754  -40.1041 H         1 UNK         0.0600 
    153 H153        0.7253  -18.1308  -40.7087 H         1 UNK         0.0600 
    154 H154        1.8795  -17.9572  -42.9964 H         1 UNK         0.3000 
    155 H155        1.6314  -16.8591  -45.1197 H         1 UNK         0.0600 
    156 H156        3.3644  -19.1584  -46.2052 H         1 UNK         0.0600 
    157 H157        3.7393  -18.2060  -44.7850 H         1 UNK         0.0600 
    158 H158        3.7366  -17.4481  -46.3663 H         1 UNK         0.0600 
    159 H159        1.6550  -18.1735  -47.6511 H         1 UNK         0.3000 
    160 H160        0.1525  -17.1298  -49.2228 H         1 UNK         0.0600 
    161 H161       -1.5080  -19.5262  -48.2449 H         1 UNK         0.0600 
    162 H162        0.0272  -19.5608  -49.0984 H         1 UNK         0.0600 
    163 H163       -1.4157  -19.0597  -49.9476 H         1 UNK         0.0600 
    164 H164       -2.3706  -16.7068  -47.8605 H         1 UNK         0.3000 
    165 H165       -3.1189  -14.0693  -49.8606 H         1 UNK         0.0600 
    166 H166       -5.4175  -14.8886  -50.3361 H         1 UNK         0.0600 
    167 H167       -4.2712  -15.6115  -51.4526 H         1 UNK         0.0600 
    168 H168       -4.8957  -16.5577  -50.1093 H         1 UNK         0.0600 
    169 H169       -4.7617  -15.3709  -47.9412 H         1 UNK         0.3000 
    170 H170       -3.8844  -13.3286  -45.4546 H         1 UNK         0.0600 
    171 H171       -5.7776  -14.7691  -44.7680 H         1 UNK         0.0600 
    172 H172       -5.9379  -14.3586  -46.4607 H         1 UNK         0.0600 
    173 H173       -5.3698  -15.9637  -45.9901 H         1 UNK         0.0600 
    174 H174       -2.4677  -15.8664  -45.1506 H         1 UNK         0.3000 
    175 H175       -2.9788  -15.9596  -41.6696 H         1 UNK         0.0600 
    176 H176       -3.0166  -17.6304  -43.6095 H         1 UNK         0.0600 
    177 H177       -1.2915  -17.3263  -43.7972 H         1 UNK         0.0600 
    178 H178       -1.9183  -17.9742  -42.2911 H         1 UNK         0.0600 
    179 H179       -1.0567  -15.1550  -41.0020 H         1 UNK         0.3000 
    180 H180        0.8445  -13.2186  -41.7228 H         1 UNK         0.0600 
    181 H181        1.5713  -15.9554  -40.5509 H         1 UNK         0.0600 
    182 H182        0.4783  -14.7679  -39.8498 H         1 UNK         0.0600 
    183 H183        2.1888  -14.4182  -39.9616 H         1 UNK         0.0600 
    184 H184        2.6625  -13.2686  -42.9551 H         1 UNK         0.3000 
    185 H185        4.7968  -13.8430  -43.4028 H         1 UNK         0.0600 
    186 H186        5.8046  -15.9454  -42.4991 H         1 UNK         0.0600 
    187 H187        5.3910  -16.7873  -43.9851 H         1 UNK         0.0600 
    188 H188        6.5354  -15.4493  -44.0164 H         1 UNK         0.0600 
    189 H189        4.6526  -15.3722  -45.8085 H         1 UNK         0.3000 
    190 H190       -0.3910  -21.3448  -45.2723 H         1 UNK         0.3000 
    191 H191       -2.9576  -21.9803  -46.1849 H         1 UNK         0.0600 
    192 H192       -2.3536  -20.0192  -44.7388 H         1 UNK         0.0600 
    193 H193       -3.6938  -20.9316  -44.0586 H         1 UNK         0.0600 
    194 H194       -2.0799  -21.1037  -43.3801 H         1 UNK         0.0600 
    195 H195       -0.9129  -23.7090  -43.8780 H         1 UNK         0.3000 
    196 H196       -2.8341  -25.5686  -42.8816 H         1 UNK         0.0600 
    197 H197       -0.8176  -26.8457  -42.1864 H         1 UNK         0.0600 
    198 H198       -0.6168  -25.1393  -41.8168 H         1 UNK         0.0600 
    199 H199        0.2020  -25.8438  -43.2105 H         1 UNK         0.0600 
    200 H200       -1.2332  -25.3457  -45.9831 H         1 UNK         0.3000 
    201 H201       -2.1047  -28.0701  -46.8138 H         1 UNK         0.0600 
    202 H202       -0.5760  -27.7289  -48.7095 H         1 UNK         0.0600 
    203 H203        0.3004  -27.4544  -47.2138 H         1 UNK         0.0600 
    204 H204       -0.2201  -26.0862  -48.1952 H         1 UNK         0.0600 
    205 H205       -3.6058  -25.3110  -46.4097 H         1 UNK         0.3000 
    206 H206       -5.4053  -24.3292  -47.1341 H         1 UNK         0.0600 
    207 H207       -6.2639  -26.6443  -47.5660 H         1 UNK         0.0600 
    208 H208       -6.9852  -25.4458  -48.6250 H         1 UNK         0.0600 
    209 H209       -5.7390  -26.5153  -49.2451 H         1 UNK         0.0600 
    210 H210       -2.6802  -23.8278  -48.5766 H         1 UNK         0.3000 
    211 H211       -3.3070  -22.8681  -51.1831 H         1 UNK         0.0600 
    212 H212       -1.0669  -21.9605  -49.3226 H         1 UNK         0.0600 
    213 H213       -1.0943  -21.8107  -51.0720 H         1 UNK         0.0600 
    214 H214       -0.9897  -23.4049  -50.3345 H         1 UNK         0.0600 
    215 H215       -3.8292  -21.4185  -48.0445 H         1 UNK         0.3000 
    216 H216       -4.1695  -18.6864  -49.0185 H         1 UNK         0.0600 
    217 H217       -4.9662  -18.2743  -46.6838 H         1 UNK         0.0600 
    218 H218       -3.4048  -19.0722  -46.7097 H         1 UNK         0.0600 
    219 H219       -4.8637  -19.9948  -46.3371 H         1 UNK         0.0600 
    220 H220       -6.1844  -21.5452  -48.6887 H         1 UNK         0.3000 
    221 H221       -8.7305  -20.1053  -49.0416 H         1 UNK         0.0600 
    222 H222       -8.1058  -23.1087  -48.9968 H         1 UNK         0.0600 
    223 H223       -8.6782  -22.1562  -47.6293 H         1 UNK         0.0600 
    224 H224       -9.7046  -22.3813  -49.0370 H         1 UNK         0.0600 
    225 H225       -6.5513  -22.3139  -50.8460 H         1 UNK         0.3000 
    226 H226       -7.8027  -21.8109  -53.4471 H         1 UNK         0.0600 
    227 H227       -5.9762  -23.2951  -54.2468 H         1 UNK         0.0600 
    228 H228       -5.2362  -23.2842  -52.6496 H         1 UNK         0.0600 
    229 H229       -6.8156  -24.0267  -52.8875 H         1 UNK         0.0600 
    230 H230       -7.4730  -19.4262  -52.6408 H         1 UNK         0.3000 
    231 H231       -5.0682  -18.1285  -52.4534 H         1 UNK         0.0600 
    232 H232       -7.7904  -17.0330  -53.3376 H         1 UNK         0.0600 
    233 H233       -6.4600  -16.0471  -52.7450 H         1 UNK         0.0600 
    234 H234       -7.2207  -17.2149  -51.6777 H         1 UNK         0.0600 
    235 H235       -6.3488  -19.2255  -55.4243 H         1 UNK         0.3000 
    236 H236       -5.0951  -17.4102  -57.2674 H         1 UNK         0.0600 
    237 H237       -6.9258  -18.9556  -57.9357 H         1 UNK         0.0600 
    238 H238       -5.4841  -19.2769  -58.8855 H         1 UNK         0.0600 
    239 H239       -5.9151  -20.3528  -57.5615 H         1 UNK         0.0600 
    240 H240       -3.8740  -19.9964  -55.2427 H         1 UNK         0.3000 
    241 H241       -1.9086  -20.6883  -54.6891 H         1 UNK         0.0600 
    242 H242       -1.1477  -21.7345  -58.5916 H         1 UNK         0.3800 
    243 H243       -2.0889  -20.2932  -58.2457 H         1 UNK         0.3800 
    244 H244       -0.5147  -18.5075  -56.3018 H         1 UNK         0.0800 
    245 H245       -1.4025  -18.1392  -54.8585 H         1 UNK         0.0800 
    246 H246       -0.4523  -17.8973  -52.7244 H         1 UNK         0.0800 
    247 H247       -0.6891  -19.5820  -52.3270 H         1 UNK         0.0800 
@<TRIPOS>BOND
     1    1    2 1    
     2    1  127 1    
     3    1  128 1    
     4    1  129 1    
     5    2    3 2    
     6    2    4 am   BACKBONE|DICT|INTERRES
     7    4    5 1    
     8    4  130 1    
     9    5    6 1    
    10    5   65 1    
    11    5  131 1    
    12    6    7 1    
    13    6  132 1    
    14    6  133 1    
    15    7    8 1    
    16    8    9 1    
    17    8  134 1    
    18    8  135 1    
    19    9   10 ar   
    20    9   14 ar   
    21   10   11 ar   
    22   10  136 1    
    23   11   12 ar   
    24   11  126 1    
    25   12   13 ar   
    26   12  137 1    
    27   13   14 ar   
    28   13   15 1    
    29   14  138 1    
    30   15   16 1    
    31   15  139 1    
    32   15  140 1    
    33   16   17 1    
    34   17   18 1    
    35   17  141 1    
    36   17  142 1    
    37   18   19 1    
    38   18   67 1    
    39   18  143 1    
    40   19   20 am   BACKBONE|DICT|INTERRES
    41   19  144 1    
    42   20   21 2    
    43   20   22 1    
    44   22   23 1    
    45   22   24 1    
    46   22  145 1    
    47   23  146 1    
    48   23  147 1    
    49   23  148 1    
    50   24   25 am   BACKBONE|DICT|INTERRES
    51   24  149 1    
    52   25   26 2    
    53   25   27 1    
    54   27   28 1    
    55   27   29 1    
    56   27  150 1    
    57   28  151 1    
    58   28  152 1    
    59   28  153 1    
    60   29   30 am   BACKBONE|DICT|INTERRES
    61   29  154 1    
    62   30   31 2    
    63   30   32 1    
    64   32   33 1    
    65   32   34 1    
    66   32  155 1    
    67   33  156 1    
    68   33  157 1    
    69   33  158 1    
    70   34   35 am   BACKBONE|DICT|INTERRES
    71   34  159 1    
    72   35   36 2    
    73   35   37 1    
    74   37   38 1    
    75   37   39 1    
    76   37  160 1    
    77   38  161 1    
    78   38  162 1    
    79   38  163 1    
    80   39   40 am   BACKBONE|DICT|INTERRES
    81   39  164 1    
    82   40   41 2    
    83   40   42 1    
    84   42   43 1    
    85   42   44 1    
    86   42  165 1    
    87   43  166 1    
    88   43  167 1    
    89   43  168 1    
    90   44   45 am   BACKBONE|DICT|INTERRES
    91   44  169 1    
    92   45   46 2    
    93   45   47 1    
    94   47   48 1    
    95   47   49 1    
    96   47  170 1    
    97   48  171 1    
    98   48  172 1    
    99   48  173 1    
   100   49   50 am   BACKBONE|DICT|INTERRES
   101   49  174 1    
   102   50   51 2    
   103   50   52 1    
   104   52   53 1    
   105   52   54 1    
   106   52  175 1    
   107   53  176 1    
   108   53  177 1    
   109   53  178 1    
   110   54   55 am   BACKBONE|DICT|INTERRES
   111   54  179 1    
   112   55   56 2    
   113   55   57 1    
   114   57   58 1    
   115   57   59 1    
   116   57  180 1    
   117   58  181 1    
   118   58  182 1    
   119   58  183 1    
   120   59   60 am   BACKBONE|DICT|INTERRES
   121   59  184 1    
   122   60   61 2    
   123   60   62 1    
   124   62   63 1    
   125   62   64 1    
   126   62  185 1    
   127   63  186 1    
   128   63  187 1    
   129   63  188 1    
   130   64   65 am   BACKBONE|DICT|INTERRES
   131   64  189 1    
   132   65   66 2    
   133   67   68 2    
   134   67   69 am   BACKBONE|DICT|INTERRES
   135   69   70 1    
   136   69  190 1    
   137   70   71 1    
   138   70   72 1    
   139   70  191 1    
   140   71  192 1    
   141   71  193 1    
   142   71  194 1    
   143   72   73 2    
   144   72   74 am   BACKBONE|DICT|INTERRES
   145   74   75 1    
   146   74  195 1    
   147   75   76 1    
   148   75   77 1    
   149   75  196 1    
   150   76  197 1    
   151   76  198 1    
   152   76  199 1    
   153   77   78 2    
   154   77   79 am   BACKBONE|DICT|INTERRES
   155   79   80 1    
   156   79  200 1    
   157   80   81 1    
   158   80   82 1    
   159   80  201 1    
   160   81  202 1    
   161   81  203 1    
   162   81  204 1    
   163   82   83 2    
   164   82   84 am   BACKBONE|DICT|INTERRES
   165   84   85 1    
   166   84  205 1    
   167   85   86 1    
   168   85   87 1    
   169   85  206 1    
   170   86  207 1    
   171   86  208 1    
   172   86  209 1    
   173   87   88 2    
   174   87   89 am   BACKBONE|DICT|INTERRES
   175   89   90 1    
   176   89  210 1    
   177   90   91 1    
   178   90   92 1    
   179   90  211 1    
   180   91  212 1    
   181   91  213 1    
   182   91  214 1    
   183   92   93 2    
   184   92   94 am   BACKBONE|DICT|INTERRES
   185   94   95 1    
   186   94  215 1    
   187   95   96 1    
   188   95   97 1    
   189   95  216 1    
   190   96  217 1    
   191   96  218 1    
   192   96  219 1    
   193   97   98 2    
   194   97   99 am   BACKBONE|DICT|INTERRES
   195   99  100 1    
   196   99  220 1    
   197  100  101 1    
   198  100  102 1    
   199  100  221 1    
   200  101  222 1    
   201  101  223 1    
   202  101  224 1    
   203  102  103 2    
   204  102  104 am   BACKBONE|DICT|INTERRES
   205  104  105 1    
   206  104  225 1    
   207  105  106 1    
   208  105  107 1    
   209  105  226 1    
   210  106  227 1    
   211  106  228 1    
   212  106  229 1    
   213  107  108 2    
   214  107  109 am   BACKBONE|DICT|INTERRES
   215  109  110 1    
   216  109  230 1    
   217  110  111 1    
   218  110  112 1    
   219  110  231 1    
   220  111  232 1    
   221  111  233 1    
   222  111  234 1    
   223  112  113 2    
   224  112  114 am   BACKBONE|DICT|INTERRES
   225  114  115 1    
   226  114  235 1    
   227  115  116 1    
   228  115  117 1    
   229  115  236 1    
   230  116  237 1    
   231  116  238 1    
   232  116  239 1    
   233  117  118 2    
   234  117  119 am   BACKBONE|DICT|INTERRES
   235  119  120 1    
   236  119  240 1    
   237  120  121 1    
   238  120  124 1    
   239  120  241 1    
   240  121  122 am   BACKBONE|DICT|INTERRES
   241  121  123 2    
   242  122  242 1    
   243  122  243 1    
   244  124  125 1    
   245  124  244 1    
   246  124  245 1    
   247  125  126 1    
   248  126  246 1    
   249  126  247 1    
@<TRIPOS>SUBSTRUCTURE
     1 UNK         1 GROUP             0       ****    0 ROOT    
