@<TRIPOS>MOLECULE
3R540
247   249    1
SMALL
USER_CHARGES


@<TRIPOS>ATOM
      1 CA          2.8448  -11.9938  -51.6628 C.3       0 UNK        -0.1800 
      2 C           3.3074  -12.1731  -50.2238 C.2       0 UNK         0.5000 
      3 O           4.4501  -11.8472  -49.9023 O.2       0 UNK        -0.5000 
      4 N           2.4244  -12.6908  -49.3605 N.am      1 UNK        -0.5000 
      5 CA          2.6871  -12.9288  -47.9350 C.3       1 UNK         0.1400 
      6 C6          1.6403  -13.8739  -47.2980 C.3       23 UNK        -0.0398 
      7 S7          1.6228  -15.5482  -48.0203 S.3       23 UNK        -0.2404 
      8 C8          0.3287  -15.3835  -49.2934 C.3       23 UNK        -0.0205 
      9 C9         -0.3092  -16.7199  -49.6428 C.ar      23 UNK        -0.0193 
     10 C10        -1.6845  -16.9059  -49.4730 C.ar      23 UNK        -0.1150 
     11 C11        -2.2906  -18.1240  -49.8080 C.ar      23 UNK        -0.0193 
     12 C12        -1.4968  -19.1478  -50.3293 C.ar      23 UNK        -0.1150 
     13 C13        -0.1160  -18.9901  -50.4788 C.ar      23 UNK        -0.0193 
     14 C14         0.4681  -17.7659  -50.1467 C.ar      23 UNK        -0.1150 
     15 C15         0.7569  -20.1312  -50.9920 C.3       23 UNK        -0.0205 
     16 S16         0.3772  -21.7541  -50.2463 S.3       23 UNK        -0.2404 
     17 C17         0.4003  -21.3828  -48.4567 C.3       23 UNK        -0.0398 
     18 CA          0.0525  -22.6039  -47.5732 C.3       11 UNK         0.1400 
     19 N           0.2709  -22.3154  -46.1542 N.am      11 UNK        -0.5000 
     20 C           0.2278  -23.2282  -45.1739 C.2       10 UNK         0.5000 
     21 O           0.0500  -24.4298  -45.3649 O.2       10 UNK        -0.5000 
     22 CA          0.3465  -22.7085  -43.7320 C.3       10 UNK         0.1400 
     23 CB          1.8115  -22.4193  -43.3745 C.3       10 UNK        -0.1800 
     24 N          -0.4756  -21.5204  -43.4978 N.am      10 UNK        -0.5000 
     25 C          -1.8139  -21.5003  -43.5868 C.2       9 UNK         0.5000 
     26 O          -2.4947  -22.4970  -43.8280 O.2       9 UNK        -0.5000 
     27 CA         -2.5090  -20.1372  -43.4175 C.3       9 UNK         0.1400 
     28 CB         -2.6459  -19.7763  -41.9313 C.3       9 UNK        -0.1800 
     29 N          -1.8251  -19.0552  -44.1261 N.am      9 UNK        -0.5000 
     30 C          -1.6624  -18.9925  -45.4562 C.2       8 UNK         0.5000 
     31 O          -2.1000  -19.8324  -46.2415 O.2       8 UNK        -0.5000 
     32 CA         -0.8114  -17.8273  -45.9901 C.3       8 UNK         0.1400 
     33 CB         -1.6126  -16.5162  -46.0015 C.3       8 UNK        -0.1800 
     34 N           0.4179  -17.6530  -45.2170 N.am      8 UNK        -0.5000 
     35 C           1.3921  -18.5706  -45.1324 C.2       7 UNK         0.5000 
     36 O           1.3885  -19.6381  -45.7467 O.2       7 UNK        -0.5000 
     37 CA          2.5292  -18.2708  -44.1430 C.3       7 UNK         0.1400 
     38 CB          3.5946  -17.3689  -44.7857 C.3       7 UNK        -0.1800 
     39 N           2.0223  -17.6589  -42.9125 N.am      7 UNK        -0.5000 
     40 C           1.3301  -18.3267  -41.9765 C.2       6 UNK         0.5000 
     41 O           1.0810  -19.5288  -42.0473 O.2       6 UNK        -0.5000 
     42 CA          0.7950  -17.5226  -40.7757 C.3       6 UNK         0.1400 
     43 CB          1.8504  -17.4535  -39.6623 C.3       6 UNK        -0.1800 
     44 N           0.3801  -16.1665  -41.1300 N.am      6 UNK        -0.5000 
     45 C          -0.6317  -15.8655  -41.9562 C.2       5 UNK         0.5000 
     46 O          -1.3761  -16.7082  -42.4560 O.2       5 UNK        -0.5000 
     47 CA         -0.7997  -14.3789  -42.3329 C.3       5 UNK         0.1400 
     48 CB         -1.8002  -13.6927  -41.3920 C.3       5 UNK        -0.1800 
     49 N           0.4599  -13.6259  -42.3301 N.am      5 UNK        -0.5000 
     50 C           1.5336  -13.9185  -43.0741 C.2       4 UNK         0.5000 
     51 O           1.5610  -14.8610  -43.8665 O.2       4 UNK        -0.5000 
     52 CA          2.7798  -13.0346  -42.8672 C.3       4 UNK         0.1400 
     53 CB          4.0161  -13.5816  -43.6039 C.3       4 UNK        -0.1800 
     54 N           2.5472  -11.6431  -43.2627 N.am      4 UNK        -0.5000 
     55 C           1.8884  -10.7377  -42.5224 C.2       3 UNK         0.5000 
     56 O           1.3670  -11.0096  -41.4391 O.2       3 UNK        -0.5000 
     57 CA          1.7985   -9.2891  -43.0455 C.3       3 UNK         0.1400 
     58 CB          2.7463   -8.3760  -42.2519 C.3       3 UNK        -0.1800 
     59 N           2.1023   -9.1507  -44.4694 N.am      3 UNK        -0.5000 
     60 C           1.2713   -9.4790  -45.4658 C.2       2 UNK         0.5000 
     61 O           0.1388   -9.9305  -45.2888 O.2       2 UNK        -0.5000 
     62 CA          1.7923   -9.3026  -46.9088 C.3       2 UNK         0.1400 
     63 CB          3.0741   -8.4465  -47.0244 C.3       2 UNK        -0.1800 
     64 N           1.9805  -10.6006  -47.5623 N.am      2 UNK        -0.5000 
     65 C           2.7480  -11.6138  -47.1295 C.2       1 UNK         0.5000 
     66 O           3.4663  -11.5491  -46.1312 O.2       1 UNK        -0.5000 
     67 C          -1.3758  -23.1358  -47.8298 C.2       11 UNK         0.5000 
     68 O          -1.5308  -24.1452  -48.5198 O.2       11 UNK        -0.5000 
     69 N          -2.3912  -22.4868  -47.2410 N.am      12 UNK        -0.5000 
     70 CA         -3.7940  -22.9039  -47.3073 C.3       12 UNK         0.1400 
     71 CB         -4.6831  -21.8719  -46.5989 C.3       12 UNK        -0.1800 
     72 C          -4.0356  -24.3201  -46.7520 C.2       12 UNK         0.5000 
     73 O          -4.8048  -25.0777  -47.3432 O.2       12 UNK        -0.5000 
     74 N          -3.3558  -24.6558  -45.6494 N.am      13 UNK        -0.5000 
     75 CA         -3.4112  -25.9659  -45.0109 C.3       13 UNK         0.1400 
     76 CB         -2.9165  -25.8443  -43.5600 C.3       13 UNK        -0.1800 
     77 C          -2.6173  -27.0400  -45.7774 C.2       13 UNK         0.5000 
     78 O          -3.1895  -28.0638  -46.1531 O.2       13 UNK        -0.5000 
     79 N          -1.3090  -26.8152  -45.9562 N.am      14 UNK        -0.5000 
     80 CA         -0.3596  -27.8422  -46.3892 C.3       14 UNK         0.1400 
     81 CB          1.0305  -27.5167  -45.8207 C.3       14 UNK        -0.1800 
     82 C          -0.2782  -28.0125  -47.9136 C.2       14 UNK         0.5000 
     83 O          -0.0845  -29.1363  -48.3790 O.2       14 UNK        -0.5000 
     84 N          -0.4061  -26.9099  -48.6617 N.am      15 UNK        -0.5000 
     85 CA         -0.2594  -26.8786  -50.1203 C.3       15 UNK         0.1400 
     86 CB          0.7223  -25.7544  -50.4967 C.3       15 UNK        -0.1800 
     87 C          -1.6086  -26.6950  -50.8366 C.2       15 UNK         0.5000 
     88 O          -1.6202  -26.5155  -52.0550 O.2       15 UNK        -0.5000 
     89 N          -2.7168  -26.7012  -50.0785 N.am      16 UNK        -0.5000 
     90 CA         -4.0932  -26.4524  -50.5267 C.3       16 UNK         0.1400 
     91 CB         -4.5938  -27.6125  -51.4123 C.3       16 UNK        -0.1800 
     92 C          -4.2592  -25.0681  -51.1938 C.2       16 UNK         0.5000 
     93 O          -5.0212  -24.9294  -52.1507 O.2       16 UNK        -0.5000 
     94 N          -3.5019  -24.0847  -50.6849 N.am      17 UNK        -0.5000 
     95 CA         -3.3612  -22.7023  -51.1537 C.3       17 UNK         0.1400 
     96 CB         -4.7176  -21.9703  -51.2103 C.3       17 UNK        -0.1800 
     97 C          -2.5600  -22.5535  -52.4627 C.2       17 UNK         0.5000 
     98 O          -2.4968  -21.4453  -52.9960 O.2       17 UNK        -0.5000 
     99 N          -1.9488  -23.6457  -52.9493 N.am      18 UNK        -0.5000 
    100 CA        -1.0812  -23.7865  -54.1282 C.3       18 UNK         0.1400 
    101 CB         0.1945  -22.9367  -53.9787 C.3       18 UNK        -0.1800 
    102 C         -1.7603  -23.5315  -55.4911 C.2       18 UNK         0.5000 
    103 O         -1.4606  -24.2384  -56.4545 O.2       18 UNK        -0.5000 
    104 N         -2.6572  -22.5463  -55.5542 N.am      19 UNK        -0.5000 
    105 CA        -3.4448  -22.1508  -56.7138 C.3       19 UNK         0.1400 
    106 CB        -2.6297  -21.1710  -57.5848 C.3       19 UNK        -0.1800 
    107 C         -4.7925  -21.5862  -56.2252 C.2       19 UNK         0.5000 
    108 O         -5.3118  -22.0402  -55.2042 O.2       19 UNK        -0.5000 
    109 N         -5.3391  -20.6016  -56.9485 N.am      20 UNK        -0.5000 
    110 CA        -6.6242  -19.9492  -56.6737 C.3       20 UNK         0.1400 
    111 CB        -7.1919  -19.4268  -58.0057 C.3       20 UNK        -0.1800 
    112 C         -6.5470  -18.8251  -55.6137 C.2       20 UNK         0.5000 
    113 O         -7.4938  -18.0456  -55.4924 O.2       20 UNK        -0.5000 
    114 N         -5.4262  -18.7317  -54.8862 N.am      21 UNK        -0.5000 
    115 CA        -5.1889  -17.7644  -53.8149 C.3       21 UNK         0.1400 
    116 CB        -3.7087  -17.8434  -53.4057 C.3       21 UNK        -0.1800 
    117 C         -6.0983  -17.9945  -52.5908 C.2       21 UNK         0.5000 
    118 O         -6.4957  -19.1303  -52.3204 O.2       21 UNK        -0.5000 
    119 N         -6.3562  -16.9113  -51.8470 N.am      22 UNK        -0.5000 
    120 CA        -7.1599  -16.8737  -50.6107 C.3       22 UNK         0.1400 
    121 C         -8.6594  -17.2544  -50.8332 C.2       22 UNK         0.5000 
    122 N         -9.3900  -17.6678  -49.8049 N.am      22 UNK        -0.7600 
    123 O         -9.1975  -17.1186  -51.9301 O.2       22 UNK        -0.5000 
    124 C124       -6.4814  -17.6260  -49.4255 C.3       23 UNK        -0.0398 
    125 S125       -4.8037  -17.0000  -49.0639 S.3       23 UNK        -0.2404 
    126 C126       -3.7831  -18.4033  -49.6292 C.3       23 UNK        -0.0205 
    127 H127        1.8194  -12.3356  -51.8056 H         1 UNK         0.0600 
    128 H128        3.4880  -12.5598  -52.3366 H         1 UNK         0.0600 
    129 H129        2.8953  -10.9421  -51.9447 H         1 UNK         0.0600 
    130 H130        1.5049  -12.9445  -49.6885 H         1 UNK         0.3000 
    131 H131        3.6667  -13.4040  -47.8469 H         1 UNK         0.0600 
    132 H132        1.8612  -14.0027  -46.2391 H         1 UNK         0.0800 
    133 H133        0.6399  -13.4401  -47.3379 H         1 UNK         0.0800 
    134 H134       -0.4358  -14.6840  -48.9530 H         1 UNK         0.0800 
    135 H135        0.7645  -14.9550  -50.1964 H         1 UNK         0.0800 
    136 H136       -2.2728  -16.0929  -49.0755 H         1 UNK         0.1150 
    137 H137       -1.9552  -20.0854  -50.6026 H         1 UNK         0.1150 
    138 H138        1.5329  -17.6249  -50.2692 H         1 UNK         0.1150 
    139 H139        0.6326  -20.2060  -52.0728 H         1 UNK         0.0800 
    140 H140        1.8113  -19.9142  -50.8147 H         1 UNK         0.0800 
    141 H141       -0.2819  -20.5602  -48.2392 H         1 UNK         0.0800 
    142 H142        1.3982  -21.0190  -48.2080 H         1 UNK         0.0800 
    143 H143        0.7429  -23.4076  -47.8386 H         1 UNK         0.0600 
    144 H144        0.4571  -21.3459  -45.9126 H         1 UNK         0.3000 
    145 H145       -0.0130  -23.4964  -43.0668 H         1 UNK         0.0600 
    146 H146        1.9137  -22.1461  -42.3243 H         1 UNK         0.0600 
    147 H147        2.4353  -23.2981  -43.5429 H         1 UNK         0.0600 
    148 H148        2.2207  -21.6061  -43.9739 H         1 UNK         0.0600 
    149 H149        0.0162  -20.6731  -43.2311 H         1 UNK         0.3000 
    150 H150       -3.5128  -20.2224  -43.8381 H         1 UNK         0.0600 
    151 H151       -3.1818  -20.5557  -41.3881 H         1 UNK         0.0600 
    152 H152       -3.2014  -18.8475  -41.8007 H         1 UNK         0.0600 
    153 H153       -1.6729  -19.6537  -41.4554 H         1 UNK         0.0600 
    154 H154       -1.4717  -18.2923  -43.5554 H         1 UNK         0.3000 
    155 H155       -0.5274  -18.0655  -47.0170 H         1 UNK         0.0600 
    156 H156       -1.9157  -16.2138  -44.9999 H         1 UNK         0.0600 
    157 H157       -1.0324  -15.7022  -46.4351 H         1 UNK         0.0600 
    158 H158       -2.5201  -16.6231  -46.5969 H         1 UNK         0.0600 
    159 H159        0.5166  -16.7957  -44.6891 H         1 UNK         0.3000 
    160 H160        3.0069  -19.2175  -43.8820 H         1 UNK         0.0600 
    161 H161        3.1757  -16.4268  -45.1391 H         1 UNK         0.0600 
    162 H162        4.0469  -17.8618  -45.6470 H         1 UNK         0.0600 
    163 H163        4.3960  -17.1395  -44.0836 H         1 UNK         0.0600 
    164 H164        2.1102  -16.6534  -42.8415 H         1 UNK         0.3000 
    165 H165       -0.0783  -18.0495  -40.3858 H         1 UNK         0.0600 
    166 H166        1.4567  -16.9564  -38.7755 H         1 UNK         0.0600 
    167 H167        2.1643  -18.4536  -39.3602 H         1 UNK         0.0600 
    168 H168        2.7414  -16.9128  -39.9839 H         1 UNK         0.0600 
    169 H169        0.9357  -15.4090  -40.7616 H         1 UNK         0.3000 
    170 H170       -1.2018  -14.3432  -43.3472 H         1 UNK         0.0600 
    171 H171       -2.7574  -14.2159  -41.3906 H         1 UNK         0.0600 
    172 H172       -1.4355  -13.6703  -40.3643 H         1 UNK         0.0600 
    173 H173       -1.9924  -12.6655  -41.7026 H         1 UNK         0.0600 
    174 H174        0.5124  -12.8086  -41.7304 H         1 UNK         0.3000 
    175 H175        3.0118  -13.0550  -41.8002 H         1 UNK         0.0600 
    176 H176        4.8834  -12.9384  -43.4549 H         1 UNK         0.0600 
    177 H177        3.8465  -13.6731  -44.6764 H         1 UNK         0.0600 
    178 H178        4.2799  -14.5730  -43.2340 H         1 UNK         0.0600 
    179 H179        2.9102  -11.3704  -44.1705 H         1 UNK         0.3000 
    180 H180        0.7761   -8.9458  -42.8741 H         1 UNK         0.0600 
    181 H181        3.7896   -8.6640  -42.3875 H         1 UNK         0.0600 
    182 H182        2.5300   -8.4199  -41.1836 H         1 UNK         0.0600 
    183 H183        2.6417   -7.3354  -42.5596 H         1 UNK         0.0600 
    184 H184        3.0265   -8.8189  -44.7049 H         1 UNK         0.3000 
    185 H185        1.0026   -8.7871  -47.4572 H         1 UNK         0.0600 
    186 H186        2.9297   -7.4604  -46.5811 H         1 UNK         0.0600 
    187 H187        3.9321   -8.9099  -46.5366 H         1 UNK         0.0600 
    188 H188        3.3400   -8.2901  -48.0699 H         1 UNK         0.0600 
    189 H189        1.4180  -10.7582  -48.3859 H         1 UNK         0.3000 
    190 H190       -2.1986  -21.6329  -46.7215 H         1 UNK         0.3000 
    191 H191       -4.0854  -22.9131  -48.3554 H         1 UNK         0.0600 
    192 H192       -4.5756  -20.8842  -47.0473 H         1 UNK         0.0600 
    193 H193       -5.7355  -22.1486  -46.6718 H         1 UNK         0.0600 
    194 H194       -4.4392  -21.7875  -45.5405 H         1 UNK         0.0600 
    195 H195       -2.7853  -23.9492  -45.1957 H         1 UNK         0.3000 
    196 H196       -4.4545  -26.2870  -44.9769 H         1 UNK         0.0600 
    197 H197       -2.9372  -26.8114  -43.0561 H         1 UNK         0.0600 
    198 H198       -3.5479  -25.1650  -42.9869 H         1 UNK         0.0600 
    199 H199       -1.8945  -25.4671  -43.5090 H         1 UNK         0.0600 
    200 H200       -0.9067  -25.9260  -45.6622 H         1 UNK         0.3000 
    201 H201       -0.6682  -28.8015  -45.9676 H         1 UNK         0.0600 
    202 H202        1.0013  -27.4211  -44.7352 H         1 UNK         0.0600 
    203 H203        1.4255  -26.5855  -46.2287 H         1 UNK         0.0600 
    204 H204        1.7443  -28.3063  -46.0590 H         1 UNK         0.0600 
    205 H205       -0.6151  -26.0227  -48.2172 H         1 UNK         0.3000 
    206 H206        0.1618  -27.8177  -50.4841 H         1 UNK         0.0600 
    207 H207        1.6759  -25.8741  -49.9827 H         1 UNK         0.0600 
    208 H208        0.9300  -25.7555  -51.5674 H         1 UNK         0.0600 
    209 H209        0.3279  -24.7708  -50.2457 H         1 UNK         0.0600 
    210 H210       -2.5954  -26.8328  -49.0842 H         1 UNK         0.3000 
    211 H211       -4.7126  -26.4358  -49.6297 H         1 UNK         0.0600 
    212 H212       -4.0623  -27.6561  -52.3633 H         1 UNK         0.0600 
    213 H213       -5.6555  -27.5030  -51.6363 H         1 UNK         0.0600 
    214 H214       -4.4665  -28.5726  -50.9124 H         1 UNK         0.0600 
    215 H215       -2.8767  -24.3298  -49.9211 H         1 UNK         0.3000 
    216 H216       -2.7624  -22.2071  -50.3902 H         1 UNK         0.0600 
    217 H217       -4.5746  -20.9055  -51.3897 H         1 UNK         0.0600 
    218 H218       -5.2702  -22.0697  -50.2767 H         1 UNK         0.0600 
    219 H219       -5.3483  -22.3419  -52.0182 H         1 UNK         0.0600 
    220 H220       -2.0944  -24.5160  -52.4499 H         1 UNK         0.3000 
    221 H221       -0.7727  -24.8330  -54.1329 H         1 UNK         0.0600 
    222 H222       -0.0261  -21.8692  -53.9648 H         1 UNK         0.0600 
    223 H223        0.7245  -23.1821  -53.0583 H         1 UNK         0.0600 
    224 H224        0.8810  -23.1162  -54.8068 H         1 UNK         0.0600 
    225 H225       -2.8462  -22.0339  -54.6949 H         1 UNK         0.3000 
    226 H226       -3.6760  -23.0383  -57.3059 H         1 UNK         0.0600 
    227 H227       -1.6671  -21.6007  -57.8630 H         1 UNK         0.0600 
    228 H228       -3.1474  -20.9351  -58.5151 H         1 UNK         0.0600 
    229 H229       -2.4331  -20.2349  -57.0603 H         1 UNK         0.0600 
    230 H230       -4.8358  -20.2640  -57.7563 H         1 UNK         0.3000 
    231 H231       -7.3196  -20.6969  -56.2866 H         1 UNK         0.0600 
    232 H232       -6.5606  -18.6464  -58.4322 H         1 UNK         0.0600 
    233 H233       -8.1898  -19.0069  -57.8734 H         1 UNK         0.0600 
    234 H234       -7.2778  -20.2284  -58.7396 H         1 UNK         0.0600 
    235 H235       -4.7217  -19.4417  -55.0139 H         1 UNK         0.3000 
    236 H236       -5.3883  -16.7673  -54.2129 H         1 UNK         0.0600 
    237 H237       -3.0521  -17.6290  -54.2489 H         1 UNK         0.0600 
    238 H238       -3.4766  -17.1199  -52.6228 H         1 UNK         0.0600 
    239 H239       -3.4499  -18.8317  -53.0232 H         1 UNK         0.0600 
    240 H240       -5.9933  -16.0191  -52.1489 H         1 UNK         0.3000 
    241 H241       -7.1962  -15.8190  -50.3360 H         1 UNK         0.0600 
    242 H242      -10.3622  -17.8874  -49.9593 H         1 UNK         0.3800 
    243 H243       -9.0066  -17.7639  -48.8784 H         1 UNK         0.3800 
    244 H244       -7.0575  -17.4977  -48.5088 H         1 UNK         0.0800 
    245 H245       -6.4511  -18.7000  -49.6152 H         1 UNK         0.0800 
    246 H246       -4.1754  -18.7545  -50.5817 H         1 UNK         0.0800 
    247 H247       -3.9019  -19.2244  -48.9206 H         1 UNK         0.0800 
@<TRIPOS>BOND
     1    1    2 1    
     2    1  127 1    
     3    1  128 1    
     4    1  129 1    
     5    2    3 2    
     6    2    4 am   BACKBONE|DICT|INTERRES
     7    4    5 1    
     8    4  130 1    
     9    5    6 1    
    10    5   65 1    
    11    5  131 1    
    12    6    7 1    
    13    6  132 1    
    14    6  133 1    
    15    7    8 1    
    16    8    9 1    
    17    8  134 1    
    18    8  135 1    
    19    9   10 ar   
    20    9   14 ar   
    21   10   11 ar   
    22   10  136 1    
    23   11   12 ar   
    24   11  126 1    
    25   12   13 ar   
    26   12  137 1    
    27   13   14 ar   
    28   13   15 1    
    29   14  138 1    
    30   15   16 1    
    31   15  139 1    
    32   15  140 1    
    33   16   17 1    
    34   17   18 1    
    35   17  141 1    
    36   17  142 1    
    37   18   19 1    
    38   18   67 1    
    39   18  143 1    
    40   19   20 am   BACKBONE|DICT|INTERRES
    41   19  144 1    
    42   20   21 2    
    43   20   22 1    
    44   22   23 1    
    45   22   24 1    
    46   22  145 1    
    47   23  146 1    
    48   23  147 1    
    49   23  148 1    
    50   24   25 am   BACKBONE|DICT|INTERRES
    51   24  149 1    
    52   25   26 2    
    53   25   27 1    
    54   27   28 1    
    55   27   29 1    
    56   27  150 1    
    57   28  151 1    
    58   28  152 1    
    59   28  153 1    
    60   29   30 am   BACKBONE|DICT|INTERRES
    61   29  154 1    
    62   30   31 2    
    63   30   32 1    
    64   32   33 1    
    65   32   34 1    
    66   32  155 1    
    67   33  156 1    
    68   33  157 1    
    69   33  158 1    
    70   34   35 am   BACKBONE|DICT|INTERRES
    71   34  159 1    
    72   35   36 2    
    73   35   37 1    
    74   37   38 1    
    75   37   39 1    
    76   37  160 1    
    77   38  161 1    
    78   38  162 1    
    79   38  163 1    
    80   39   40 am   BACKBONE|DICT|INTERRES
    81   39  164 1    
    82   40   41 2    
    83   40   42 1    
    84   42   43 1    
    85   42   44 1    
    86   42  165 1    
    87   43  166 1    
    88   43  167 1    
    89   43  168 1    
    90   44   45 am   BACKBONE|DICT|INTERRES
    91   44  169 1    
    92   45   46 2    
    93   45   47 1    
    94   47   48 1    
    95   47   49 1    
    96   47  170 1    
    97   48  171 1    
    98   48  172 1    
    99   48  173 1    
   100   49   50 am   BACKBONE|DICT|INTERRES
   101   49  174 1    
   102   50   51 2    
   103   50   52 1    
   104   52   53 1    
   105   52   54 1    
   106   52  175 1    
   107   53  176 1    
   108   53  177 1    
   109   53  178 1    
   110   54   55 am   BACKBONE|DICT|INTERRES
   111   54  179 1    
   112   55   56 2    
   113   55   57 1    
   114   57   58 1    
   115   57   59 1    
   116   57  180 1    
   117   58  181 1    
   118   58  182 1    
   119   58  183 1    
   120   59   60 am   BACKBONE|DICT|INTERRES
   121   59  184 1    
   122   60   61 2    
   123   60   62 1    
   124   62   63 1    
   125   62   64 1    
   126   62  185 1    
   127   63  186 1    
   128   63  187 1    
   129   63  188 1    
   130   64   65 am   BACKBONE|DICT|INTERRES
   131   64  189 1    
   132   65   66 2    
   133   67   68 2    
   134   67   69 am   BACKBONE|DICT|INTERRES
   135   69   70 1    
   136   69  190 1    
   137   70   71 1    
   138   70   72 1    
   139   70  191 1    
   140   71  192 1    
   141   71  193 1    
   142   71  194 1    
   143   72   73 2    
   144   72   74 am   BACKBONE|DICT|INTERRES
   145   74   75 1    
   146   74  195 1    
   147   75   76 1    
   148   75   77 1    
   149   75  196 1    
   150   76  197 1    
   151   76  198 1    
   152   76  199 1    
   153   77   78 2    
   154   77   79 am   BACKBONE|DICT|INTERRES
   155   79   80 1    
   156   79  200 1    
   157   80   81 1    
   158   80   82 1    
   159   80  201 1    
   160   81  202 1    
   161   81  203 1    
   162   81  204 1    
   163   82   83 2    
   164   82   84 am   BACKBONE|DICT|INTERRES
   165   84   85 1    
   166   84  205 1    
   167   85   86 1    
   168   85   87 1    
   169   85  206 1    
   170   86  207 1    
   171   86  208 1    
   172   86  209 1    
   173   87   88 2    
   174   87   89 am   BACKBONE|DICT|INTERRES
   175   89   90 1    
   176   89  210 1    
   177   90   91 1    
   178   90   92 1    
   179   90  211 1    
   180   91  212 1    
   181   91  213 1    
   182   91  214 1    
   183   92   93 2    
   184   92   94 am   BACKBONE|DICT|INTERRES
   185   94   95 1    
   186   94  215 1    
   187   95   96 1    
   188   95   97 1    
   189   95  216 1    
   190   96  217 1    
   191   96  218 1    
   192   96  219 1    
   193   97   98 2    
   194   97   99 am   BACKBONE|DICT|INTERRES
   195   99  100 1    
   196   99  220 1    
   197  100  101 1    
   198  100  102 1    
   199  100  221 1    
   200  101  222 1    
   201  101  223 1    
   202  101  224 1    
   203  102  103 2    
   204  102  104 am   BACKBONE|DICT|INTERRES
   205  104  105 1    
   206  104  225 1    
   207  105  106 1    
   208  105  107 1    
   209  105  226 1    
   210  106  227 1    
   211  106  228 1    
   212  106  229 1    
   213  107  108 2    
   214  107  109 am   BACKBONE|DICT|INTERRES
   215  109  110 1    
   216  109  230 1    
   217  110  111 1    
   218  110  112 1    
   219  110  231 1    
   220  111  232 1    
   221  111  233 1    
   222  111  234 1    
   223  112  113 2    
   224  112  114 am   BACKBONE|DICT|INTERRES
   225  114  115 1    
   226  114  235 1    
   227  115  116 1    
   228  115  117 1    
   229  115  236 1    
   230  116  237 1    
   231  116  238 1    
   232  116  239 1    
   233  117  118 2    
   234  117  119 am   BACKBONE|DICT|INTERRES
   235  119  120 1    
   236  119  240 1    
   237  120  121 1    
   238  120  124 1    
   239  120  241 1    
   240  121  122 am   BACKBONE|DICT|INTERRES
   241  121  123 2    
   242  122  242 1    
   243  122  243 1    
   244  124  125 1    
   245  124  244 1    
   246  124  245 1    
   247  125  126 1    
   248  126  246 1    
   249  126  247 1    
@<TRIPOS>SUBSTRUCTURE
     1 UNK         1 GROUP             0       ****    0 ROOT    
