@<TRIPOS>MOLECULE
3R540
247   249    1
SMALL
USER_CHARGES


@<TRIPOS>ATOM
      1 CA          1.1541   -9.5154  -51.6684 C.3       0 UNK        -0.1800 
      2 C           1.2097  -10.6578  -50.6642 C.2       0 UNK         0.5000 
      3 O           0.2929  -11.4769  -50.6195 O.2       0 UNK        -0.5000 
      4 N           2.2755  -10.7059  -49.8516 N.am      1 UNK        -0.5000 
      5 CA          2.5522  -11.7208  -48.8202 C.3       1 UNK         0.1400 
      6 C6          2.5727  -13.1697  -49.3908 C.3       23 UNK        -0.0398 
      7 S7          3.8068  -14.2571  -48.5958 S.3       23 UNK        -0.2404 
      8 C8          2.7548  -15.4255  -47.6762 C.3       23 UNK        -0.0205 
      9 C9          2.1949  -16.5282  -48.5631 C.ar      23 UNK        -0.0193 
     10 C10         0.9452  -16.3851  -49.1747 C.ar      23 UNK        -0.1150 
     11 C11         0.4145  -17.4140  -49.9581 C.ar      23 UNK        -0.0193 
     12 C12         1.1442  -18.5913  -50.1328 C.ar      23 UNK        -0.1150 
     13 C13         2.3861  -18.7545  -49.5123 C.ar      23 UNK        -0.0193 
     14 C14         2.9099  -17.7172  -48.7352 C.ar      23 UNK        -0.1150 
     15 C15         3.1503  -20.0611  -49.6657 C.3       23 UNK        -0.0205 
     16 S16         2.8526  -21.1885  -48.2659 S.3       23 UNK        -0.2404 
     17 C17         1.0519  -21.4461  -48.3996 C.3       23 UNK        -0.0398 
     18 CA          0.5492  -22.6217  -47.5332 C.3       11 UNK         0.1400 
     19 N           0.6462  -22.3540  -46.0958 N.am      11 UNK        -0.5000 
     20 C           0.4138  -23.2564  -45.1325 C.2       10 UNK         0.5000 
     21 O           0.1394  -24.4362  -45.3531 O.2       10 UNK        -0.5000 
     22 CA          0.4383  -22.7473  -43.6797 C.3       10 UNK         0.1400 
     23 CB          1.8787  -22.5894  -43.1704 C.3       10 UNK        -0.1800 
     24 N          -0.2924  -21.4895  -43.5156 N.am      10 UNK        -0.5000 
     25 C          -1.6140  -21.3583  -43.7021 C.2       9 UNK         0.5000 
     26 O          -2.3587  -22.2967  -43.9859 O.2       9 UNK        -0.5000 
     27 CA         -2.2008  -19.9390  -43.5905 C.3       9 UNK         0.1400 
     28 CB         -2.4347  -19.5591  -42.1210 C.3       9 UNK        -0.1800 
     29 N          -1.3674  -18.9230  -44.2330 N.am      9 UNK        -0.5000 
     30 C          -1.0789  -18.8890  -45.5422 C.2       8 UNK         0.5000 
     31 O          -1.5158  -19.6960  -46.3605 O.2       8 UNK        -0.5000 
     32 CA         -0.0808  -17.8116  -46.0011 C.3       8 UNK         0.1400 
     33 CB         -0.7639  -16.4375  -46.0874 C.3       8 UNK        -0.1800 
     34 N           1.0947  -17.7328  -45.1307 N.am      8 UNK        -0.5000 
     35 C           1.9306  -18.7547  -44.8921 C.2       7 UNK         0.5000 
     36 O           1.8250  -19.8617  -45.4134 O.2       7 UNK        -0.5000 
     37 CA          3.0240  -18.5315  -43.8367 C.3       7 UNK         0.1400 
     38 CB          4.2450  -17.8225  -44.4401 C.3       7 UNK        -0.1800 
     39 N           2.5124  -17.7788  -42.6924 N.am      7 UNK        -0.5000 
     40 C           1.6628  -18.2834  -41.7856 C.2       6 UNK         0.5000 
     41 O           1.2756  -19.4523  -41.7888 O.2       6 UNK        -0.5000 
     42 CA          1.1249  -17.3070  -40.7226 C.3       6 UNK         0.1400 
     43 CB          2.1156  -17.1744  -39.5565 C.3       6 UNK        -0.1800 
     44 N           0.8400  -15.9800  -41.2718 N.am      6 UNK        -0.5000 
     45 C          -0.1322  -15.7239  -42.1586 C.2       5 UNK         0.5000 
     46 O          -0.9272  -16.5738  -42.5582 O.2       5 UNK        -0.5000 
     47 CA         -0.2035  -14.2924  -42.7269 C.3       5 UNK         0.1400 
     48 CB         -1.1356  -13.4198  -41.8741 C.3       5 UNK        -0.1800 
     49 N           1.0980  -13.6294  -42.8490 N.am      5 UNK        -0.5000 
     50 C           2.1299  -14.0758  -43.5787 C.2       4 UNK         0.5000 
     51 O           2.1081  -15.1374  -44.2034 O.2       4 UNK        -0.5000 
     52 CA          3.3795  -13.1788  -43.5991 C.3       4 UNK         0.1400 
     53 CB          4.4652  -13.6841  -44.5648 C.3       4 UNK        -0.1800 
     54 N           2.9937  -11.8274  -43.9925 N.am      4 UNK        -0.5000 
     55 C           3.0109  -10.7450  -43.2037 C.2       3 UNK         0.5000 
     56 O           3.3725  -10.7669  -42.0269 O.2       3 UNK        -0.5000 
     57 CA          2.5412   -9.4104  -43.8207 C.3       3 UNK         0.1400 
     58 CB          3.7492   -8.5255  -44.1649 C.3       3 UNK        -0.1800 
     59 N           1.7260   -9.5811  -45.0245 N.am      3 UNK        -0.5000 
     60 C           0.4718  -10.0521  -45.0422 C.2       2 UNK         0.5000 
     61 O          -0.1707  -10.3205  -44.0267 O.2       2 UNK        -0.5000 
     62 CA         -0.1602  -10.2916  -46.4282 C.3       2 UNK         0.1400 
     63 CB         -1.0465   -9.1022  -46.8279 C.3       2 UNK        -0.1800 
     64 N           0.8081  -10.5444  -47.5026 N.am      2 UNK        -0.5000 
     65 C           1.6587  -11.5810  -47.5600 C.2       1 UNK         0.5000 
     66 O           1.7790  -12.3846  -46.6368 O.2       1 UNK        -0.5000 
     67 C          -0.8822  -23.0155  -47.9434 C.2       11 UNK         0.5000 
     68 O          -1.0414  -23.9912  -48.6746 O.2       11 UNK        -0.5000 
     69 N          -1.8939  -22.2897  -47.4430 N.am      12 UNK        -0.5000 
     70 CA         -3.3121  -22.5835  -47.6581 C.3       12 UNK         0.1400 
     71 CB         -4.1828  -21.4976  -47.0078 C.3       12 UNK        -0.1800 
     72 C          -3.7105  -23.9741  -47.1368 C.2       12 UNK         0.5000 
     73 O          -4.3830  -24.7149  -47.8527 O.2       12 UNK        -0.5000 
     74 N          -3.2548  -24.3207  -45.9249 N.am      13 UNK        -0.5000 
     75 CA         -3.4571  -25.6321  -45.3102 C.3       13 UNK         0.1400 
     76 CB         -2.9712  -25.6020  -43.8533 C.3       13 UNK        -0.1800 
     77 C          -2.7772  -26.7684  -46.0958 C.2       13 UNK         0.5000 
     78 O          -3.4086  -27.7985  -46.3331 O.2       13 UNK        -0.5000 
     79 N          -1.5220  -26.5501  -46.5136 N.am      14 UNK        -0.5000 
     80 CA         -0.7319  -27.4944  -47.3070 C.3       14 UNK         0.1400 
     81 CB          0.7207  -27.0018  -47.3917 C.3       14 UNK        -0.1800 
     82 C          -1.3075  -27.7331  -48.7157 C.2       14 UNK         0.5000 
     83 O          -1.3288  -28.8740  -49.1789 O.2       14 UNK        -0.5000 
     84 N          -1.7790  -26.6592  -49.3620 N.am      15 UNK        -0.5000 
     85 CA         -2.3992  -26.6857  -50.6874 C.3       15 UNK         0.1400 
     86 CB         -2.3509  -25.2689  -51.2837 C.3       15 UNK        -0.1800 
     87 C          -3.8515  -27.1988  -50.6798 C.2       15 UNK         0.5000 
     88 O          -4.3915  -27.4598  -51.7535 O.2       15 UNK        -0.5000 
     89 N          -4.4746  -27.2861  -49.4948 N.am      16 UNK        -0.5000 
     90 CA         -5.9002  -27.5531  -49.2667 C.3       16 UNK         0.1400 
     91 CB         -6.2726  -28.9913  -49.6829 C.3       16 UNK        -0.1800 
     92 C          -6.7914  -26.4723  -49.9186 C.2       16 UNK         0.5000 
     93 O          -7.7886  -26.7855  -50.5707 O.2       16 UNK        -0.5000 
     94 N          -6.3713  -25.2120  -49.7407 N.am      17 UNK        -0.5000 
     95 CA         -6.9510  -23.9667  -50.2504 C.3       17 UNK         0.1400 
     96 CB         -8.3687  -23.7480  -49.6835 C.3       17 UNK        -0.1800 
     97 C          -6.8963  -23.7994  -51.7855 C.2       17 UNK         0.5000 
     98 O          -7.5566  -22.9002  -52.3101 O.2       17 UNK        -0.5000 
     99 N          -6.1104  -24.6310  -52.4846 N.am      18 UNK        -0.5000 
    100 CA        -5.8946  -24.5476  -53.9308 C.3       18 UNK         0.1400 
    101 CB        -5.2816  -25.8671  -54.4249 C.3       18 UNK        -0.1800 
    102 C         -5.0043  -23.3537  -54.3327 C.2       18 UNK         0.5000 
    103 O         -4.2482  -22.8397  -53.5050 O.2       18 UNK        -0.5000 
    104 N         -5.0989  -22.9833  -55.6190 N.am      19 UNK        -0.5000 
    105 CA        -4.4813  -21.8383  -56.3033 C.3       19 UNK         0.1400 
    106 CB        -2.9595  -21.7596  -56.0645 C.3       19 UNK        -0.1800 
    107 C         -5.1769  -20.5049  -55.9700 C.2       19 UNK         0.5000 
    108 O         -5.7974  -20.3610  -54.9166 O.2       19 UNK        -0.5000 
    109 N         -5.0657  -19.5352  -56.8857 N.am      20 UNK        -0.5000 
    110 CA        -5.7426  -18.2364  -56.7985 C.3       20 UNK         0.1400 
    111 CB        -5.5893  -17.5050  -58.1413 C.3       20 UNK        -0.1800 
    112 C         -5.2562  -17.3406  -55.6414 C.2       20 UNK         0.5000 
    113 O         -6.0106  -16.4789  -55.1881 O.2       20 UNK        -0.5000 
    114 N         -4.0078  -17.5432  -55.2000 N.am      21 UNK        -0.5000 
    115 CA        -3.3646  -16.7461  -54.1581 C.3       21 UNK         0.1400 
    116 CB        -1.8414  -16.9257  -54.2569 C.3       21 UNK        -0.1800 
    117 C         -3.8617  -17.0751  -52.7380 C.2       21 UNK         0.5000 
    118 O         -4.0582  -16.1505  -51.9489 O.2       21 UNK        -0.5000 
    119 N         -4.0305  -18.3695  -52.4344 N.am      22 UNK        -0.5000 
    120 CA        -4.3100  -18.8849  -51.0799 C.3       22 UNK         0.1400 
    121 C         -5.3527  -20.0409  -51.0338 C.2       22 UNK         0.5000 
    122 N         -6.0048  -20.4168  -52.1240 N.am      22 UNK        -0.7600 
    123 O         -5.6067  -20.5973  -49.9699 O.2       22 UNK        -0.5000 
    124 C124       -2.9932  -19.2331  -50.3190 C.3       23 UNK        -0.0398 
    125 S125       -2.2763  -17.7840  -49.4697 S.3       23 UNK        -0.2404 
    126 C126       -0.9524  -17.2581  -50.6021 C.3       23 UNK        -0.0205 
    127 H127        2.0251   -8.8642  -51.5916 H         1 UNK         0.0600 
    128 H128        1.1139   -9.9106  -52.6834 H         1 UNK         0.0600 
    129 H129        0.2622   -8.9117  -51.5011 H         1 UNK         0.0600 
    130 H130        2.9846   -9.9907  -49.9423 H         1 UNK         0.3000 
    131 H131        3.5612  -11.4846  -48.4792 H         1 UNK         0.0600 
    132 H132        1.5792  -13.6149  -49.3573 H         1 UNK         0.0800 
    133 H133        2.8401  -13.1479  -50.4480 H         1 UNK         0.0800 
    134 H134        3.3481  -15.8695  -46.8770 H         1 UNK         0.0800 
    135 H135        1.9483  -14.8893  -47.1780 H         1 UNK         0.0800 
    136 H136        0.3689  -15.4842  -49.0229 H         1 UNK         0.1150 
    137 H137        0.7323  -19.3910  -50.7320 H         1 UNK         0.1150 
    138 H138        3.8667  -17.8437  -48.2485 H         1 UNK         0.1150 
    139 H139        2.8768  -20.5577  -50.5979 H         1 UNK         0.0800 
    140 H140        4.2195  -19.8552  -49.7329 H         1 UNK         0.0800 
    141 H141        0.8224  -21.6219  -49.4524 H         1 UNK         0.0800 
    142 H142        0.5405  -20.5238  -48.1179 H         1 UNK         0.0800 
    143 H143        1.1840  -23.4856  -47.7417 H         1 UNK         0.0600 
    144 H144        0.9220  -21.4097  -45.8313 H         1 UNK         0.3000 
    145 H145       -0.0548  -23.4985  -43.0592 H         1 UNK         0.0600 
    146 H146        1.8955  -22.2786  -42.1256 H         1 UNK         0.0600 
    147 H147        2.4202  -23.5336  -43.2385 H         1 UNK         0.0600 
    148 H148        2.4351  -21.8516  -43.7475 H         1 UNK         0.0600 
    149 H149        0.2511  -20.6743  -43.2571 H         1 UNK         0.3000 
    150 H150       -3.1676  -19.9404  -44.0977 H         1 UNK         0.0600 
    151 H151       -3.0678  -20.2945  -41.6230 H         1 UNK         0.0600 
    152 H152       -2.9319  -18.5924  -42.0389 H         1 UNK         0.0600 
    153 H153       -1.4981  -19.5004  -41.5658 H         1 UNK         0.0600 
    154 H154       -1.0019  -18.1887  -43.6333 H         1 UNK         0.3000 
    155 H155        0.2690  -18.0892  -46.9964 H         1 UNK         0.0600 
    156 H156       -0.0559  -15.6498  -46.3394 H         1 UNK         0.0600 
    157 H157       -1.2458  -16.1639  -45.1503 H         1 UNK         0.0600 
    158 H158       -1.5359  -16.4393  -46.8567 H         1 UNK         0.0600 
    159 H159        1.2852  -16.8390  -44.6878 H         1 UNK         0.3000 
    160 H160        3.3513  -19.5111  -43.4820 H         1 UNK         0.0600 
    161 H161        3.9911  -16.8383  -44.8288 H         1 UNK         0.0600 
    162 H162        4.6586  -18.4013  -45.2669 H         1 UNK         0.0600 
    163 H163        5.0358  -17.6983  -43.7003 H         1 UNK         0.0600 
    164 H164        2.7195  -16.7907  -42.6727 H         1 UNK         0.3000 
    165 H165        0.1925  -17.7212  -40.3327 H         1 UNK         0.0600 
    166 H166        3.0634  -16.7411  -39.8784 H         1 UNK         0.0600 
    167 H167        1.7099  -16.5448  -38.7643 H         1 UNK         0.0600 
    168 H168        2.3324  -18.1489  -39.1169 H         1 UNK         0.0600 
    169 H169        1.4472  -15.2247  -40.9903 H         1 UNK         0.3000 
    170 H170       -0.6269  -14.3584  -43.7304 H         1 UNK         0.0600 
    171 H171       -2.1238  -13.8735  -41.7863 H         1 UNK         0.0600 
    172 H172       -0.7460  -13.2814  -40.8648 H         1 UNK         0.0600 
    173 H173       -1.2706  -12.4344  -42.3207 H         1 UNK         0.0600 
    174 H174        1.1934  -12.7379  -42.3843 H         1 UNK         0.3000 
    175 H175        3.7974  -13.1876  -42.5907 H         1 UNK         0.0600 
    176 H176        5.3306  -13.0215  -44.5644 H         1 UNK         0.0600 
    177 H177        4.8170  -14.6746  -44.2769 H         1 UNK         0.0600 
    178 H178        4.0939  -13.7458  -45.5877 H         1 UNK         0.0600 
    179 H179        2.6060  -11.7514  -44.9279 H         1 UNK         0.3000 
    180 H180        1.9409   -8.8939  -43.0688 H         1 UNK         0.0600 
    181 H181        4.3839   -8.9878  -44.9220 H         1 UNK         0.0600 
    182 H182        4.3668   -8.3465  -43.2837 H         1 UNK         0.0600 
    183 H183        3.4318   -7.5523  -44.5399 H         1 UNK         0.0600 
    184 H184        2.1726   -9.3835  -45.9077 H         1 UNK         0.3000 
    185 H185       -0.7939  -11.1768  -46.3434 H         1 UNK         0.0600 
    186 H186       -1.5750   -9.2996  -47.7608 H         1 UNK         0.0600 
    187 H187       -1.8006   -8.9023  -46.0653 H         1 UNK         0.0600 
    188 H188       -0.4615   -8.1909  -46.9583 H         1 UNK         0.0600 
    189 H189        0.7759   -9.9200  -48.2948 H         1 UNK         0.3000 
    190 H190       -1.6837  -21.4634  -46.8864 H         1 UNK         0.3000 
    191 H191       -3.4936  -22.5653  -48.7348 H         1 UNK         0.0600 
    192 H192       -3.9465  -20.5085  -47.3983 H         1 UNK         0.0600 
    193 H193       -5.2399  -21.6781  -47.2069 H         1 UNK         0.0600 
    194 H194       -4.0525  -21.4667  -45.9265 H         1 UNK         0.0600 
    195 H195       -2.7396  -23.6356  -45.3793 H         1 UNK         0.3000 
    196 H196       -4.5307  -25.8317  -45.3031 H         1 UNK         0.0600 
    197 H197       -3.1254  -26.5672  -43.3694 H         1 UNK         0.0600 
    198 H198       -3.5150  -24.8563  -43.2731 H         1 UNK         0.0600 
    199 H199       -1.9090  -25.3659  -43.7860 H         1 UNK         0.0600 
    200 H200       -1.0591  -25.6862  -46.2435 H         1 UNK         0.3000 
    201 H201       -0.7339  -28.4522  -46.7827 H         1 UNK         0.0600 
    202 H202        1.1646  -26.9123  -46.4000 H         1 UNK         0.0600 
    203 H203        0.7871  -26.0272  -47.8762 H         1 UNK         0.0600 
    204 H204        1.3374  -27.6966  -47.9630 H         1 UNK         0.0600 
    205 H205       -1.6642  -25.7409  -48.9382 H         1 UNK         0.3000 
    206 H206       -1.8188  -27.3483  -51.3325 H         1 UNK         0.0600 
    207 H207       -1.3273  -24.8980  -51.3385 H         1 UNK         0.0600 
    208 H208       -2.7543  -25.2502  -52.2963 H         1 UNK         0.0600 
    209 H209       -2.9314  -24.5625  -50.6882 H         1 UNK         0.0600 
    210 H210       -3.9473  -27.0198  -48.6735 H         1 UNK         0.3000 
    211 H211       -6.0563  -27.4708  -48.1900 H         1 UNK         0.0600 
    212 H212       -6.1999  -29.1370  -50.7608 H         1 UNK         0.0600 
    213 H213       -7.2966  -29.2269  -49.3912 H         1 UNK         0.0600 
    214 H214       -5.6218  -29.7207  -49.2008 H         1 UNK         0.0600 
    215 H215       -5.5504  -25.0823  -49.1493 H         1 UNK         0.3000 
    216 H216       -6.3178  -23.1752  -49.8487 H         1 UNK         0.0600 
    217 H217       -8.3790  -23.8484  -48.5982 H         1 UNK         0.0600 
    218 H218       -9.0841  -24.4601  -50.0953 H         1 UNK         0.0600 
    219 H219       -8.7334  -22.7471  -49.9170 H         1 UNK         0.0600 
    220 H220       -5.5926  -25.3437  -51.9905 H         1 UNK         0.3000 
    221 H221       -6.8691  -24.4236  -54.4081 H         1 UNK         0.0600 
    222 H222       -4.2747  -26.0143  -54.0340 H         1 UNK         0.0600 
    223 H223       -5.8870  -26.7226  -54.1242 H         1 UNK         0.0600 
    224 H224       -5.2130  -25.8863  -55.5130 H         1 UNK         0.0600 
    225 H225       -5.7578  -23.4925  -56.1911 H         1 UNK         0.3000 
    226 H226       -4.6378  -22.0232  -57.3672 H         1 UNK         0.0600 
    227 H227       -2.4807  -22.7226  -56.2417 H         1 UNK         0.0600 
    228 H228       -2.4970  -21.0393  -56.7401 H         1 UNK         0.0600 
    229 H229       -2.7183  -21.4452  -55.0488 H         1 UNK         0.0600 
    230 H230       -4.5353  -19.7098  -57.7273 H         1 UNK         0.3000 
    231 H231       -6.8059  -18.4244  -56.6350 H         1 UNK         0.0600 
    232 H232       -6.1061  -16.5444  -58.1252 H         1 UNK         0.0600 
    233 H233       -6.0152  -18.0865  -58.9592 H         1 UNK         0.0600 
    234 H234       -4.5421  -17.3100  -58.3758 H         1 UNK         0.0600 
    235 H235       -3.4566  -18.2680  -55.6345 H         1 UNK         0.3000 
    236 H236       -3.5857  -15.6935  -54.3492 H         1 UNK         0.0600 
    237 H237       -1.4735  -16.6355  -55.2412 H         1 UNK         0.0600 
    238 H238       -1.3275  -16.3011  -53.5254 H         1 UNK         0.0600 
    239 H239       -1.5423  -17.9593  -54.0785 H         1 UNK         0.0600 
    240 H240       -3.8906  -19.0654  -53.1520 H         1 UNK         0.3000 
    241 H241       -4.8207  -18.0995  -50.5196 H         1 UNK         0.0600 
    242 H242       -5.8146  -20.0433  -53.0474 H         1 UNK         0.3800 
    243 H243       -6.6598  -21.1872  -52.0615 H         1 UNK         0.3800 
    244 H244       -2.2627  -19.6912  -50.9868 H         1 UNK         0.0800 
    245 H245       -3.1632  -19.9738  -49.5377 H         1 UNK         0.0800 
    246 H246       -0.9947  -17.8222  -51.5337 H         1 UNK         0.0800 
    247 H247       -1.1183  -16.2143  -50.8729 H         1 UNK         0.0800 
@<TRIPOS>BOND
     1    1    2 1    
     2    1  127 1    
     3    1  128 1    
     4    1  129 1    
     5    2    3 2    
     6    2    4 am   BACKBONE|DICT|INTERRES
     7    4    5 1    
     8    4  130 1    
     9    5    6 1    
    10    5   65 1    
    11    5  131 1    
    12    6    7 1    
    13    6  132 1    
    14    6  133 1    
    15    7    8 1    
    16    8    9 1    
    17    8  134 1    
    18    8  135 1    
    19    9   10 ar   
    20    9   14 ar   
    21   10   11 ar   
    22   10  136 1    
    23   11   12 ar   
    24   11  126 1    
    25   12   13 ar   
    26   12  137 1    
    27   13   14 ar   
    28   13   15 1    
    29   14  138 1    
    30   15   16 1    
    31   15  139 1    
    32   15  140 1    
    33   16   17 1    
    34   17   18 1    
    35   17  141 1    
    36   17  142 1    
    37   18   19 1    
    38   18   67 1    
    39   18  143 1    
    40   19   20 am   BACKBONE|DICT|INTERRES
    41   19  144 1    
    42   20   21 2    
    43   20   22 1    
    44   22   23 1    
    45   22   24 1    
    46   22  145 1    
    47   23  146 1    
    48   23  147 1    
    49   23  148 1    
    50   24   25 am   BACKBONE|DICT|INTERRES
    51   24  149 1    
    52   25   26 2    
    53   25   27 1    
    54   27   28 1    
    55   27   29 1    
    56   27  150 1    
    57   28  151 1    
    58   28  152 1    
    59   28  153 1    
    60   29   30 am   BACKBONE|DICT|INTERRES
    61   29  154 1    
    62   30   31 2    
    63   30   32 1    
    64   32   33 1    
    65   32   34 1    
    66   32  155 1    
    67   33  156 1    
    68   33  157 1    
    69   33  158 1    
    70   34   35 am   BACKBONE|DICT|INTERRES
    71   34  159 1    
    72   35   36 2    
    73   35   37 1    
    74   37   38 1    
    75   37   39 1    
    76   37  160 1    
    77   38  161 1    
    78   38  162 1    
    79   38  163 1    
    80   39   40 am   BACKBONE|DICT|INTERRES
    81   39  164 1    
    82   40   41 2    
    83   40   42 1    
    84   42   43 1    
    85   42   44 1    
    86   42  165 1    
    87   43  166 1    
    88   43  167 1    
    89   43  168 1    
    90   44   45 am   BACKBONE|DICT|INTERRES
    91   44  169 1    
    92   45   46 2    
    93   45   47 1    
    94   47   48 1    
    95   47   49 1    
    96   47  170 1    
    97   48  171 1    
    98   48  172 1    
    99   48  173 1    
   100   49   50 am   BACKBONE|DICT|INTERRES
   101   49  174 1    
   102   50   51 2    
   103   50   52 1    
   104   52   53 1    
   105   52   54 1    
   106   52  175 1    
   107   53  176 1    
   108   53  177 1    
   109   53  178 1    
   110   54   55 am   BACKBONE|DICT|INTERRES
   111   54  179 1    
   112   55   56 2    
   113   55   57 1    
   114   57   58 1    
   115   57   59 1    
   116   57  180 1    
   117   58  181 1    
   118   58  182 1    
   119   58  183 1    
   120   59   60 am   BACKBONE|DICT|INTERRES
   121   59  184 1    
   122   60   61 2    
   123   60   62 1    
   124   62   63 1    
   125   62   64 1    
   126   62  185 1    
   127   63  186 1    
   128   63  187 1    
   129   63  188 1    
   130   64   65 am   BACKBONE|DICT|INTERRES
   131   64  189 1    
   132   65   66 2    
   133   67   68 2    
   134   67   69 am   BACKBONE|DICT|INTERRES
   135   69   70 1    
   136   69  190 1    
   137   70   71 1    
   138   70   72 1    
   139   70  191 1    
   140   71  192 1    
   141   71  193 1    
   142   71  194 1    
   143   72   73 2    
   144   72   74 am   BACKBONE|DICT|INTERRES
   145   74   75 1    
   146   74  195 1    
   147   75   76 1    
   148   75   77 1    
   149   75  196 1    
   150   76  197 1    
   151   76  198 1    
   152   76  199 1    
   153   77   78 2    
   154   77   79 am   BACKBONE|DICT|INTERRES
   155   79   80 1    
   156   79  200 1    
   157   80   81 1    
   158   80   82 1    
   159   80  201 1    
   160   81  202 1    
   161   81  203 1    
   162   81  204 1    
   163   82   83 2    
   164   82   84 am   BACKBONE|DICT|INTERRES
   165   84   85 1    
   166   84  205 1    
   167   85   86 1    
   168   85   87 1    
   169   85  206 1    
   170   86  207 1    
   171   86  208 1    
   172   86  209 1    
   173   87   88 2    
   174   87   89 am   BACKBONE|DICT|INTERRES
   175   89   90 1    
   176   89  210 1    
   177   90   91 1    
   178   90   92 1    
   179   90  211 1    
   180   91  212 1    
   181   91  213 1    
   182   91  214 1    
   183   92   93 2    
   184   92   94 am   BACKBONE|DICT|INTERRES
   185   94   95 1    
   186   94  215 1    
   187   95   96 1    
   188   95   97 1    
   189   95  216 1    
   190   96  217 1    
   191   96  218 1    
   192   96  219 1    
   193   97   98 2    
   194   97   99 am   BACKBONE|DICT|INTERRES
   195   99  100 1    
   196   99  220 1    
   197  100  101 1    
   198  100  102 1    
   199  100  221 1    
   200  101  222 1    
   201  101  223 1    
   202  101  224 1    
   203  102  103 2    
   204  102  104 am   BACKBONE|DICT|INTERRES
   205  104  105 1    
   206  104  225 1    
   207  105  106 1    
   208  105  107 1    
   209  105  226 1    
   210  106  227 1    
   211  106  228 1    
   212  106  229 1    
   213  107  108 2    
   214  107  109 am   BACKBONE|DICT|INTERRES
   215  109  110 1    
   216  109  230 1    
   217  110  111 1    
   218  110  112 1    
   219  110  231 1    
   220  111  232 1    
   221  111  233 1    
   222  111  234 1    
   223  112  113 2    
   224  112  114 am   BACKBONE|DICT|INTERRES
   225  114  115 1    
   226  114  235 1    
   227  115  116 1    
   228  115  117 1    
   229  115  236 1    
   230  116  237 1    
   231  116  238 1    
   232  116  239 1    
   233  117  118 2    
   234  117  119 am   BACKBONE|DICT|INTERRES
   235  119  120 1    
   236  119  240 1    
   237  120  121 1    
   238  120  124 1    
   239  120  241 1    
   240  121  122 am   BACKBONE|DICT|INTERRES
   241  121  123 2    
   242  122  242 1    
   243  122  243 1    
   244  124  125 1    
   245  124  244 1    
   246  124  245 1    
   247  125  126 1    
   248  126  246 1    
   249  126  247 1    
@<TRIPOS>SUBSTRUCTURE
     1 UNK         1 GROUP             0       ****    0 ROOT    
