@<TRIPOS>MOLECULE
3R540
247   249    1
SMALL
USER_CHARGES


@<TRIPOS>ATOM
      1 CA          3.5014   -9.9927  -44.7046 C.3       0 UNK        -0.1800 
      2 C           3.5511   -9.8793  -46.2220 C.2       0 UNK         0.5000 
      3 O           4.2834   -9.0412  -46.7492 O.2       0 UNK        -0.5000 
      4 N           2.7711  -10.7106  -46.9235 N.am      1 UNK        -0.5000 
      5 CA          2.7489  -10.8089  -48.3853 C.3       1 UNK         0.1400 
      6 C6          1.4428  -11.4693  -48.8963 C.3       23 UNK        -0.0398 
      7 S7          1.1086  -13.1502  -48.2590 S.3       23 UNK        -0.2404 
      8 C8         -0.2750  -13.6005  -49.3517 C.3       23 UNK        -0.0205 
      9 C9         -1.0499  -14.8032  -48.8373 C.ar      23 UNK        -0.0193 
     10 C10        -2.0758  -14.6251  -47.9049 C.ar      23 UNK        -0.1150 
     11 C11        -2.8314  -15.7151  -47.4639 C.ar      23 UNK        -0.0193 
     12 C12        -2.5505  -16.9920  -47.9582 C.ar      23 UNK        -0.1150 
     13 C13        -1.5381  -17.1811  -48.9014 C.ar      23 UNK        -0.0193 
     14 C14        -0.7841  -16.0840  -49.3303 C.ar      23 UNK        -0.1150 
     15 C15        -1.2882  -18.5610  -49.4880 C.3       23 UNK        -0.0205 
     16 S16        -0.4099  -19.6350  -48.3170 S.3       23 UNK        -0.2404 
     17 C17        -1.7565  -20.6604  -47.6366 C.3       23 UNK        -0.0398 
     18 CA         -1.1535  -21.8981  -46.9338 C.3       11 UNK         0.1400 
     19 N          -0.6314  -21.5848  -45.6020 N.am      11 UNK        -0.5000 
     20 C           0.2606  -22.3396  -44.9483 C.2       10 UNK         0.5000 
     21 O           0.7571  -23.3651  -45.4134 O.2       10 UNK        -0.5000 
     22 CA          0.6041  -21.9068  -43.5130 C.3       10 UNK         0.1400 
     23 CB          1.6230  -20.7573  -43.5109 C.3       10 UNK        -0.1800 
     24 N          -0.5921  -21.5109  -42.7678 N.am      10 UNK        -0.5000 
     25 C          -1.5436  -22.3717  -42.3748 C.2       9 UNK         0.5000 
     26 O          -1.4779  -23.5863  -42.5661 O.2       9 UNK        -0.5000 
     27 CA         -2.7969  -21.7848  -41.6927 C.3       9 UNK         0.1400 
     28 CB         -2.5972  -21.7212  -40.1715 C.3       9 UNK        -0.1800 
     29 N          -3.1685  -20.4565  -42.1822 N.am      9 UNK        -0.5000 
     30 C          -3.4777  -20.1555  -43.4512 C.2       8 UNK         0.5000 
     31 O          -3.5490  -20.9909  -44.3507 O.2       8 UNK        -0.5000 
     32 CA         -3.6935  -18.6685  -43.7924 C.3       8 UNK         0.1400 
     33 CB         -5.1937  -18.3401  -43.8143 C.3       8 UNK        -0.1800 
     34 N          -3.0048  -17.7166  -42.9119 N.am      8 UNK        -0.5000 
     35 C          -1.6888  -17.6970  -42.6590 C.2       7 UNK         0.5000 
     36 O          -0.9003  -18.5678  -43.0328 O.2       7 UNK        -0.5000 
     37 CA         -1.1566  -16.4909  -41.8690 C.3       7 UNK         0.1400 
     38 CB         -0.2997  -16.9381  -40.6735 C.3       7 UNK        -0.1800 
     39 N          -0.3465  -15.6734  -42.7645 N.am      7 UNK        -0.5000 
     40 C          -0.8456  -14.8734  -43.7164 C.2       6 UNK         0.5000 
     41 O          -2.0361  -14.5681  -43.7970 O.2       6 UNK        -0.5000 
     42 CA          0.1489  -14.3437  -44.7674 C.3       6 UNK         0.1400 
     43 CB          0.6472  -12.9431  -44.3839 C.3       6 UNK        -0.1800 
     44 N           1.3041  -15.2205  -44.9896 N.am      6 UNK        -0.5000 
     45 C           1.2411  -16.4651  -45.4883 C.2       5 UNK         0.5000 
     46 O           0.1905  -17.0231  -45.7967 O.2       5 UNK        -0.5000 
     47 CA          2.5868  -17.1849  -45.6758 C.3       5 UNK         0.1400 
     48 CB          2.4945  -18.4422  -46.5606 C.3       5 UNK        -0.1800 
     49 N           3.5623  -16.2632  -46.2504 N.am      5 UNK        -0.5000 
     50 C           4.8780  -16.2701  -46.0095 C.2       4 UNK         0.5000 
     51 O           5.4173  -17.0070  -45.1819 O.2       4 UNK        -0.5000 
     52 CA          5.7225  -15.2872  -46.8496 C.3       4 UNK         0.1400 
     53 CB          7.2182  -15.6619  -46.9006 C.3       4 UNK        -0.1800 
     54 N           5.1869  -15.0877  -48.2023 N.am      4 UNK        -0.5000 
     55 C           5.0253  -16.0145  -49.1633 C.2       3 UNK         0.5000 
     56 O           5.3535  -17.1950  -49.0423 O.2       3 UNK        -0.5000 
     57 CA          4.3644  -15.5585  -50.4818 C.3       3 UNK         0.1400 
     58 CB          2.8927  -16.0008  -50.5118 C.3       3 UNK        -0.1800 
     59 N           4.4234  -14.1114  -50.6929 N.am      3 UNK        -0.5000 
     60 C           5.5394  -13.4185  -50.9591 C.2       2 UNK         0.5000 
     61 O           6.6323  -13.9442  -51.1732 O.2       2 UNK        -0.5000 
     62 CA          5.4278  -11.8787  -50.9606 C.3       2 UNK         0.1400 
     63 CB          5.3996  -11.3462  -52.4016 C.3       2 UNK        -0.1800 
     64 N           4.2710  -11.3375  -50.2341 N.am      2 UNK        -0.5000 
     65 C           4.0106  -11.5136  -48.9303 C.2       1 UNK         0.5000 
     66 O           4.6969  -12.2229  -48.1893 O.2       1 UNK        -0.5000 
     67 C          -2.1225  -23.0957  -46.9135 C.2       11 UNK         0.5000 
     68 O          -2.1870  -23.8199  -47.9058 O.2       11 UNK        -0.5000 
     69 N          -2.8239  -23.3266  -45.7960 N.am      12 UNK        -0.5000 
     70 CA         -3.6230  -24.5306  -45.5659 C.3       12 UNK         0.1400 
     71 CB         -4.5084  -24.3511  -44.3250 C.3       12 UNK        -0.1800 
     72 C          -2.7463  -25.7896  -45.4546 C.2       12 UNK         0.5000 
     73 O          -3.0608  -26.7995  -46.0842 O.2       12 UNK        -0.5000 
     74 N          -1.6367  -25.6912  -44.7078 N.am      13 UNK        -0.5000 
     75 CA         -0.6337  -26.7500  -44.5686 C.3       13 UNK         0.1400 
     76 CB          0.3631  -26.3705  -43.4631 C.3       13 UNK        -0.1800 
     77 C           0.0997  -27.0608  -45.8886 C.2       13 UNK         0.5000 
     78 O           0.3511  -28.2297  -46.1831 O.2       13 UNK        -0.5000 
     79 N           0.3987  -26.0158  -46.6730 N.am      14 UNK        -0.5000 
     80 CA          1.0183  -26.1134  -47.9982 C.3       14 UNK         0.1400 
     81 CB          1.6252  -24.7488  -48.3604 C.3       14 UNK        -0.1800 
     82 C           0.0501  -26.5732  -49.1098 C.2       14 UNK         0.5000 
     83 O           0.5094  -26.8789  -50.2105 O.2       14 UNK        -0.5000 
     84 N          -1.2595  -26.5826  -48.8184 N.am      15 UNK        -0.5000 
     85 CA         -2.3857  -26.8757  -49.7146 C.3       15 UNK         0.1400 
     86 CB         -2.3038  -28.3074  -50.2823 C.3       15 UNK        -0.1800 
     87 C          -2.6095  -25.8099  -50.8110 C.2       15 UNK         0.5000 
     88 O          -3.3359  -26.0610  -51.7727 O.2       15 UNK        -0.5000 
     89 N          -2.0409  -24.6124  -50.6213 N.am      16 UNK        -0.5000 
     90 CA         -2.2692  -23.4252  -51.4462 C.3       16 UNK         0.1400 
     91 CB         -1.1612  -22.3994  -51.1694 C.3       16 UNK        -0.1800 
     92 C          -3.6604  -22.8084  -51.2064 C.2       16 UNK         0.5000 
     93 O          -4.1950  -22.1497  -52.0993 O.2       16 UNK        -0.5000 
     94 N          -4.2481  -23.0730  -50.0290 N.am      17 UNK        -0.5000 
     95 CA         -5.6215  -22.7073  -49.6683 C.3       17 UNK         0.1400 
     96 CB         -5.8581  -23.0179  -48.1850 C.3       17 UNK        -0.1800 
     97 C          -6.6959  -23.3948  -50.5363 C.2       17 UNK         0.5000 
     98 O          -7.7968  -22.8613  -50.6679 O.2       17 UNK        -0.5000 
     99 N          -6.3579  -24.5517  -51.1233 N.am      18 UNK        -0.5000 
    100 CA        -7.2007  -25.2745  -52.0778 C.3       18 UNK         0.1400 
    101 CB        -6.8152  -26.7623  -52.0508 C.3       18 UNK        -0.1800 
    102 C         -7.0969  -24.7113  -53.5110 C.2       18 UNK         0.5000 
    103 O         -7.9162  -25.0741  -54.3565 O.2       18 UNK        -0.5000 
    104 N         -6.0975  -23.8555  -53.7634 N.am      19 UNK        -0.5000 
    105 CA        -5.8537  -23.1789  -55.0315 C.3       19 UNK         0.1400 
    106 CB        -4.3632  -23.3378  -55.3983 C.3       19 UNK        -0.1800 
    107 C         -6.3279  -21.7170  -54.9136 C.2       19 UNK         0.5000 
    108 O         -7.5086  -21.4863  -54.6462 O.2       19 UNK        -0.5000 
    109 N         -5.4210  -20.7546  -55.1269 N.am      20 UNK        -0.5000 
    110 CA        -5.7028  -19.3171  -55.1062 C.3       20 UNK         0.1400 
    111 CB        -4.5413  -18.5773  -55.7881 C.3       20 UNK        -0.1800 
    112 C         -5.9464  -18.7424  -53.6968 C.2       20 UNK         0.5000 
    113 O         -6.5721  -17.6853  -53.5839 O.2       20 UNK        -0.5000 
    114 N         -5.4435  -19.4281  -52.6577 N.am      21 UNK        -0.5000 
    115 CA        -5.4949  -19.0363  -51.2468 C.3       21 UNK         0.1400 
    116 CB        -6.9337  -19.1962  -50.7036 C.3       21 UNK        -0.1800 
    117 C         -4.8828  -17.6380  -51.0131 C.2       21 UNK         0.5000 
    118 O         -3.8065  -17.3585  -51.5443 O.2       21 UNK        -0.5000 
    119 N         -5.5725  -16.7911  -50.2409 N.am      22 UNK        -0.5000 
    120 CA        -5.1794  -15.4029  -49.9523 C.3       22 UNK         0.1400 
    121 C         -5.4525  -14.3993  -51.1142 C.2       22 UNK         0.5000 
    122 N         -6.0022  -14.8128  -52.2513 N.am      22 UNK        -0.7600 
    123 O         -5.1555  -13.2149  -50.9846 O.2       22 UNK        -0.5000 
    124 C124       -5.7762  -14.8883  -48.6102 C.3       23 UNK        -0.0398 
    125 S125       -5.5773  -16.0355  -47.1968 S.3       23 UNK        -0.2404 
    126 C126       -3.9802  -15.5095  -46.4893 C.3       23 UNK        -0.0205 
    127 H127        4.4993  -10.1853  -44.3104 H         1 UNK         0.0600 
    128 H128        2.8471  -10.8001  -44.3771 H         1 UNK         0.0600 
    129 H129        3.1361   -9.0619  -44.2708 H         1 UNK         0.0600 
    130 H130        2.2136  -11.3995  -46.4416 H         1 UNK         0.3000 
    131 H131        2.7666   -9.7901  -48.7788 H         1 UNK         0.0600 
    132 H132        0.5971  -10.8389  -48.6175 H         1 UNK         0.0800 
    133 H133        1.4329  -11.4974  -49.9872 H         1 UNK         0.0800 
    134 H134       -0.9554  -12.7527  -49.4469 H         1 UNK         0.0800 
    135 H135        0.1088  -13.7974  -50.3539 H         1 UNK         0.0800 
    136 H136       -2.2940  -13.6332  -47.5349 H         1 UNK         0.1150 
    137 H137       -3.1424  -17.8339  -47.6305 H         1 UNK         0.1150 
    138 H138       -0.0062  -16.2244  -50.0664 H         1 UNK         0.1150 
    139 H139       -2.2331  -19.0121  -49.7921 H         1 UNK         0.0800 
    140 H140       -0.6903  -18.4798  -50.3968 H         1 UNK         0.0800 
    141 H141       -2.4117  -20.9525  -48.4592 H         1 UNK         0.0800 
    142 H142       -2.3646  -20.0706  -46.9491 H         1 UNK         0.0800 
    143 H143       -0.3094  -22.2370  -47.5370 H         1 UNK         0.0600 
    144 H144       -1.0061  -20.7664  -45.1443 H         1 UNK         0.3000 
    145 H145        1.0579  -22.7614  -43.0066 H         1 UNK         0.0600 
    146 H146        2.5258  -21.0333  -44.0572 H         1 UNK         0.0600 
    147 H147        1.9220  -20.4987  -42.4951 H         1 UNK         0.0600 
    148 H148        1.2191  -19.8588  -43.9771 H         1 UNK         0.0600 
    149 H149       -0.7354  -20.5140  -42.6352 H         1 UNK         0.3000 
    150 H150       -3.6318  -22.4564  -41.8989 H         1 UNK         0.0600 
    151 H151       -1.7938  -21.0352  -39.8997 H         1 UNK         0.0600 
    152 H152       -2.3413  -22.7027  -39.7699 H         1 UNK         0.0600 
    153 H153       -3.5059  -21.3923  -39.6671 H         1 UNK         0.0600 
    154 H154       -3.1240  -19.7002  -41.5157 H         1 UNK         0.3000 
    155 H155       -3.2971  -18.5144  -44.7983 H         1 UNK         0.0600 
    156 H156       -5.6441  -18.4553  -42.8278 H         1 UNK         0.0600 
    157 H157       -5.7281  -19.0000  -44.4992 H         1 UNK         0.0600 
    158 H158       -5.3734  -17.3181  -44.1479 H         1 UNK         0.0600 
    159 H159       -3.5669  -16.9512  -42.5681 H         1 UNK         0.3000 
    160 H160       -1.9928  -15.8989  -41.4908 H         1 UNK         0.0600 
    161 H161        0.5692  -17.5174  -40.9891 H         1 UNK         0.0600 
    162 H162       -0.8791  -17.5613  -39.9913 H         1 UNK         0.0600 
    163 H163        0.0596  -16.0803  -40.1047 H         1 UNK         0.0600 
    164 H164        0.6371  -15.8936  -42.8033 H         1 UNK         0.3000 
    165 H165       -0.3908  -14.2657  -45.7119 H         1 UNK         0.0600 
    166 H166        1.2778  -12.5268  -45.1675 H         1 UNK         0.0600 
    167 H167       -0.1881  -12.2562  -44.2418 H         1 UNK         0.0600 
    168 H168        1.2230  -12.9586  -43.4578 H         1 UNK         0.0600 
    169 H169        2.2110  -14.8407  -44.7617 H         1 UNK         0.3000 
    170 H170        2.9097  -17.4902  -44.6784 H         1 UNK         0.0600 
    171 H171        3.4513  -18.9617  -46.6107 H         1 UNK         0.0600 
    172 H172        2.1995  -18.1875  -47.5792 H         1 UNK         0.0600 
    173 H173        1.7617  -19.1499  -46.1730 H         1 UNK         0.0600 
    174 H174        3.2018  -15.6132  -46.9353 H         1 UNK         0.3000 
    175 H175        5.6444  -14.3206  -46.3499 H         1 UNK         0.0600 
    176 H176        7.6549  -15.6646  -45.9013 H         1 UNK         0.0600 
    177 H177        7.3744  -16.6528  -47.3277 H         1 UNK         0.0600 
    178 H178        7.7826  -14.9460  -47.4982 H         1 UNK         0.0600 
    179 H179        4.9037  -14.1322  -48.4025 H         1 UNK         0.3000 
    180 H180        4.8898  -16.0483  -51.3042 H         1 UNK         0.0600 
    181 H181        2.3249  -15.5540  -49.6955 H         1 UNK         0.0600 
    182 H182        2.8070  -17.0837  -50.4124 H         1 UNK         0.0600 
    183 H183        2.4123  -15.7220  -51.4498 H         1 UNK         0.0600 
    184 H184        3.5697  -13.5966  -50.5386 H         1 UNK         0.3000 
    185 H185        6.3263  -11.4951  -50.4730 H         1 UNK         0.0600 
    186 H186        6.2625  -11.6999  -52.9675 H         1 UNK         0.0600 
    187 H187        4.5038  -11.6712  -52.9323 H         1 UNK         0.0600 
    188 H188        5.4266  -10.2565  -52.4215 H         1 UNK         0.0600 
    189 H189        3.6561  -10.7469  -50.7755 H         1 UNK         0.3000 
    190 H190       -2.8178  -22.6265  -45.0607 H         1 UNK         0.3000 
    191 H191       -4.2783  -24.6698  -46.4250 H         1 UNK         0.0600 
    192 H192       -5.1232  -23.4542  -44.4044 H         1 UNK         0.0600 
    193 H193       -5.1829  -25.1996  -44.2053 H         1 UNK         0.0600 
    194 H194       -3.9178  -24.2754  -43.4134 H         1 UNK         0.0600 
    195 H195       -1.4718  -24.8376  -44.1843 H         1 UNK         0.3000 
    196 H196       -1.1518  -27.6596  -44.2574 H         1 UNK         0.0600 
    197 H197        1.1043  -27.1574  -43.3183 H         1 UNK         0.0600 
    198 H198       -0.1445  -26.2218  -42.5098 H         1 UNK         0.0600 
    199 H199        0.9007  -25.4524  -43.7006 H         1 UNK         0.0600 
    200 H200        0.2377  -25.0800  -46.3136 H         1 UNK         0.3000 
    201 H201        1.8289  -26.8432  -47.9473 H         1 UNK         0.0600 
    202 H202        2.1795  -24.8032  -49.2982 H         1 UNK         0.0600 
    203 H203        2.3196  -24.4064  -47.5929 H         1 UNK         0.0600 
    204 H204        0.8547  -23.9882  -48.4815 H         1 UNK         0.0600 
    205 H205       -1.5244  -26.2949  -47.8855 H         1 UNK         0.3000 
    206 H206       -3.2737  -26.8316  -49.0825 H         1 UNK         0.0600 
    207 H207       -2.1492  -29.0379  -49.4882 H         1 UNK         0.0600 
    208 H208       -3.2283  -28.5774  -50.7942 H         1 UNK         0.0600 
    209 H209       -1.4924  -28.4149  -51.0022 H         1 UNK         0.0600 
    210 H210       -1.5550  -24.4655  -49.7446 H         1 UNK         0.3000 
    211 H211       -2.2151  -23.7144  -52.4978 H         1 UNK         0.0600 
    212 H212       -1.1138  -22.1320  -50.1148 H         1 UNK         0.0600 
    213 H213       -1.3220  -21.4814  -51.7364 H         1 UNK         0.0600 
    214 H214       -0.1850  -22.7914  -51.4552 H         1 UNK         0.0600 
    215 H215       -3.7141  -23.5878  -49.3384 H         1 UNK         0.3000 
    216 H216       -5.7270  -21.6325  -49.8040 H         1 UNK         0.0600 
    217 H217       -6.8439  -22.6747  -47.8685 H         1 UNK         0.0600 
    218 H218       -5.1251  -22.5195  -47.5507 H         1 UNK         0.0600 
    219 H219       -5.8109  -24.0898  -47.9933 H         1 UNK         0.0600 
    220 H220       -5.4300  -24.9229  -50.9753 H         1 UNK         0.3000 
    221 H221       -8.2442  -25.1911  -51.7668 H         1 UNK         0.0600 
    222 H222       -5.7943  -26.9212  -52.3988 H         1 UNK         0.0600 
    223 H223       -6.8961  -27.1744  -51.0448 H         1 UNK         0.0600 
    224 H224       -7.4735  -27.3471  -52.6944 H         1 UNK         0.0600 
    225 H225       -5.5131  -23.5544  -52.9941 H         1 UNK         0.3000 
    226 H226       -6.4411  -23.6383  -55.8288 H         1 UNK         0.0600 
    227 H227       -4.1427  -22.8845  -56.3655 H         1 UNK         0.0600 
    228 H228       -3.7039  -22.8879  -54.6556 H         1 UNK         0.0600 
    229 H229       -4.0954  -24.3919  -55.4744 H         1 UNK         0.0600 
    230 H230       -4.4694  -21.0252  -55.3281 H         1 UNK         0.3000 
    231 H231       -6.6079  -19.1384  -55.6906 H         1 UNK         0.0600 
    232 H232       -3.6013  -18.7280  -55.2555 H         1 UNK         0.0600 
    233 H233       -4.7289  -17.5033  -55.8233 H         1 UNK         0.0600 
    234 H234       -4.4053  -18.9156  -56.8155 H         1 UNK         0.0600 
    235 H235       -4.9399  -20.2872  -52.8467 H         1 UNK         0.3000 
    236 H236       -4.8480  -19.7327  -50.7138 H         1 UNK         0.0600 
    237 H237       -7.3343  -20.1804  -50.9436 H         1 UNK         0.0600 
    238 H238       -6.9623  -19.0954  -49.6180 H         1 UNK         0.0600 
    239 H239       -7.6166  -18.4600  -51.1293 H         1 UNK         0.0600 
    240 H240       -6.4501  -17.0928  -49.8450 H         1 UNK         0.3000 
    241 H241       -4.0951  -15.3970  -49.8452 H         1 UNK         0.0600 
    242 H242       -6.1681  -14.1461  -52.9884 H         1 UNK         0.3800 
    243 H243       -6.2208  -15.7886  -52.4050 H         1 UNK         0.3800 
    244 H244       -6.8451  -14.7033  -48.7276 H         1 UNK         0.0800 
    245 H245       -5.3344  -13.9269  -48.3425 H         1 UNK         0.0800 
    246 H246       -3.7785  -16.0860  -45.5863 H         1 UNK         0.0800 
    247 H247       -4.0491  -14.4665  -46.1764 H         1 UNK         0.0800 
@<TRIPOS>BOND
     1    1    2 1    
     2    1  127 1    
     3    1  128 1    
     4    1  129 1    
     5    2    3 2    
     6    2    4 am   BACKBONE|DICT|INTERRES
     7    4    5 1    
     8    4  130 1    
     9    5    6 1    
    10    5   65 1    
    11    5  131 1    
    12    6    7 1    
    13    6  132 1    
    14    6  133 1    
    15    7    8 1    
    16    8    9 1    
    17    8  134 1    
    18    8  135 1    
    19    9   10 ar   
    20    9   14 ar   
    21   10   11 ar   
    22   10  136 1    
    23   11   12 ar   
    24   11  126 1    
    25   12   13 ar   
    26   12  137 1    
    27   13   14 ar   
    28   13   15 1    
    29   14  138 1    
    30   15   16 1    
    31   15  139 1    
    32   15  140 1    
    33   16   17 1    
    34   17   18 1    
    35   17  141 1    
    36   17  142 1    
    37   18   19 1    
    38   18   67 1    
    39   18  143 1    
    40   19   20 am   BACKBONE|DICT|INTERRES
    41   19  144 1    
    42   20   21 2    
    43   20   22 1    
    44   22   23 1    
    45   22   24 1    
    46   22  145 1    
    47   23  146 1    
    48   23  147 1    
    49   23  148 1    
    50   24   25 am   BACKBONE|DICT|INTERRES
    51   24  149 1    
    52   25   26 2    
    53   25   27 1    
    54   27   28 1    
    55   27   29 1    
    56   27  150 1    
    57   28  151 1    
    58   28  152 1    
    59   28  153 1    
    60   29   30 am   BACKBONE|DICT|INTERRES
    61   29  154 1    
    62   30   31 2    
    63   30   32 1    
    64   32   33 1    
    65   32   34 1    
    66   32  155 1    
    67   33  156 1    
    68   33  157 1    
    69   33  158 1    
    70   34   35 am   BACKBONE|DICT|INTERRES
    71   34  159 1    
    72   35   36 2    
    73   35   37 1    
    74   37   38 1    
    75   37   39 1    
    76   37  160 1    
    77   38  161 1    
    78   38  162 1    
    79   38  163 1    
    80   39   40 am   BACKBONE|DICT|INTERRES
    81   39  164 1    
    82   40   41 2    
    83   40   42 1    
    84   42   43 1    
    85   42   44 1    
    86   42  165 1    
    87   43  166 1    
    88   43  167 1    
    89   43  168 1    
    90   44   45 am   BACKBONE|DICT|INTERRES
    91   44  169 1    
    92   45   46 2    
    93   45   47 1    
    94   47   48 1    
    95   47   49 1    
    96   47  170 1    
    97   48  171 1    
    98   48  172 1    
    99   48  173 1    
   100   49   50 am   BACKBONE|DICT|INTERRES
   101   49  174 1    
   102   50   51 2    
   103   50   52 1    
   104   52   53 1    
   105   52   54 1    
   106   52  175 1    
   107   53  176 1    
   108   53  177 1    
   109   53  178 1    
   110   54   55 am   BACKBONE|DICT|INTERRES
   111   54  179 1    
   112   55   56 2    
   113   55   57 1    
   114   57   58 1    
   115   57   59 1    
   116   57  180 1    
   117   58  181 1    
   118   58  182 1    
   119   58  183 1    
   120   59   60 am   BACKBONE|DICT|INTERRES
   121   59  184 1    
   122   60   61 2    
   123   60   62 1    
   124   62   63 1    
   125   62   64 1    
   126   62  185 1    
   127   63  186 1    
   128   63  187 1    
   129   63  188 1    
   130   64   65 am   BACKBONE|DICT|INTERRES
   131   64  189 1    
   132   65   66 2    
   133   67   68 2    
   134   67   69 am   BACKBONE|DICT|INTERRES
   135   69   70 1    
   136   69  190 1    
   137   70   71 1    
   138   70   72 1    
   139   70  191 1    
   140   71  192 1    
   141   71  193 1    
   142   71  194 1    
   143   72   73 2    
   144   72   74 am   BACKBONE|DICT|INTERRES
   145   74   75 1    
   146   74  195 1    
   147   75   76 1    
   148   75   77 1    
   149   75  196 1    
   150   76  197 1    
   151   76  198 1    
   152   76  199 1    
   153   77   78 2    
   154   77   79 am   BACKBONE|DICT|INTERRES
   155   79   80 1    
   156   79  200 1    
   157   80   81 1    
   158   80   82 1    
   159   80  201 1    
   160   81  202 1    
   161   81  203 1    
   162   81  204 1    
   163   82   83 2    
   164   82   84 am   BACKBONE|DICT|INTERRES
   165   84   85 1    
   166   84  205 1    
   167   85   86 1    
   168   85   87 1    
   169   85  206 1    
   170   86  207 1    
   171   86  208 1    
   172   86  209 1    
   173   87   88 2    
   174   87   89 am   BACKBONE|DICT|INTERRES
   175   89   90 1    
   176   89  210 1    
   177   90   91 1    
   178   90   92 1    
   179   90  211 1    
   180   91  212 1    
   181   91  213 1    
   182   91  214 1    
   183   92   93 2    
   184   92   94 am   BACKBONE|DICT|INTERRES
   185   94   95 1    
   186   94  215 1    
   187   95   96 1    
   188   95   97 1    
   189   95  216 1    
   190   96  217 1    
   191   96  218 1    
   192   96  219 1    
   193   97   98 2    
   194   97   99 am   BACKBONE|DICT|INTERRES
   195   99  100 1    
   196   99  220 1    
   197  100  101 1    
   198  100  102 1    
   199  100  221 1    
   200  101  222 1    
   201  101  223 1    
   202  101  224 1    
   203  102  103 2    
   204  102  104 am   BACKBONE|DICT|INTERRES
   205  104  105 1    
   206  104  225 1    
   207  105  106 1    
   208  105  107 1    
   209  105  226 1    
   210  106  227 1    
   211  106  228 1    
   212  106  229 1    
   213  107  108 2    
   214  107  109 am   BACKBONE|DICT|INTERRES
   215  109  110 1    
   216  109  230 1    
   217  110  111 1    
   218  110  112 1    
   219  110  231 1    
   220  111  232 1    
   221  111  233 1    
   222  111  234 1    
   223  112  113 2    
   224  112  114 am   BACKBONE|DICT|INTERRES
   225  114  115 1    
   226  114  235 1    
   227  115  116 1    
   228  115  117 1    
   229  115  236 1    
   230  116  237 1    
   231  116  238 1    
   232  116  239 1    
   233  117  118 2    
   234  117  119 am   BACKBONE|DICT|INTERRES
   235  119  120 1    
   236  119  240 1    
   237  120  121 1    
   238  120  124 1    
   239  120  241 1    
   240  121  122 am   BACKBONE|DICT|INTERRES
   241  121  123 2    
   242  122  242 1    
   243  122  243 1    
   244  124  125 1    
   245  124  244 1    
   246  124  245 1    
   247  125  126 1    
   248  126  246 1    
   249  126  247 1    
@<TRIPOS>SUBSTRUCTURE
     1 UNK         1 GROUP             0       ****    0 ROOT    
