@<TRIPOS>MOLECULE
3R540
247   249    1
SMALL
USER_CHARGES


@<TRIPOS>ATOM
      1 CA         -0.3397   -9.4765  -47.8183 C.3       0 UNK        -0.1800 
      2 C          -0.0864  -10.9379  -47.4765 C.2       0 UNK         0.5000 
      3 O          -0.7779  -11.4914  -46.6230 O.2       0 UNK        -0.5000 
      4 N           0.8921  -11.5597  -48.1504 N.am      1 UNK        -0.5000 
      5 CA          1.3491  -12.9396  -47.9361 C.3       1 UNK         0.1400 
      6 C6          0.2349  -13.9961  -48.1842 C.3       23 UNK        -0.0398 
      7 S7          0.8677  -15.5142  -48.9805 S.3       23 UNK        -0.2404 
      8 C8         -0.4081  -15.8109  -50.2465 C.3       23 UNK        -0.0205 
      9 C9         -0.1394  -17.0918  -51.0229 C.ar      23 UNK        -0.0193 
     10 C10         0.4668  -17.0393  -52.2831 C.ar      23 UNK        -0.1150 
     11 C11         0.7142  -18.2127  -53.0038 C.ar      23 UNK        -0.0193 
     12 C12         0.3714  -19.4423  -52.4390 C.ar      23 UNK        -0.1150 
     13 C13        -0.2704  -19.5081  -51.2022 C.ar      23 UNK        -0.0193 
     14 C14        -0.5217  -18.3298  -50.4943 C.ar      23 UNK        -0.1150 
     15 C15        -0.7331  -20.8573  -50.6809 C.3       23 UNK        -0.0205 
     16 S16         0.6454  -21.8596  -50.0440 S.3       23 UNK        -0.2404 
     17 C17         0.7144  -21.3009  -48.3109 C.3       23 UNK        -0.0398 
     18 CA          0.5323  -22.4260  -47.2616 C.3       11 UNK         0.1400 
     19 N           0.8286  -21.9194  -45.9184 N.am      11 UNK        -0.5000 
     20 C           0.9622  -22.6588  -44.8089 C.2       10 UNK         0.5000 
     21 O           0.8095  -23.8803  -44.7758 O.2       10 UNK        -0.5000 
     22 CA          1.3166  -21.8963  -43.5179 C.3       10 UNK         0.1400 
     23 CB          2.7903  -21.4612  -43.5227 C.3       10 UNK        -0.1800 
     24 N           0.4661  -20.7231  -43.3206 N.am      10 UNK        -0.5000 
     25 C          -0.8251  -20.7795  -42.9653 C.2       9 UNK         0.5000 
     26 O          -1.4132  -21.8248  -42.6866 O.2       9 UNK        -0.5000 
     27 CA         -1.6011  -19.4475  -42.9508 C.3       9 UNK         0.1400 
     28 CB         -1.4039  -18.7131  -41.6163 C.3       9 UNK        -0.1800 
     29 N          -1.2383  -18.5560  -44.0538 N.am      9 UNK        -0.5000 
     30 C          -1.3751  -18.8567  -45.3526 C.2       8 UNK         0.5000 
     31 O          -1.8382  -19.9146  -45.7698 O.2       8 UNK        -0.5000 
     32 CA         -0.8542  -17.8263  -46.3612 C.3       8 UNK         0.1400 
     33 CB         -1.8947  -16.7195  -46.5806 C.3       8 UNK        -0.1800 
     34 N           0.4402  -17.2725  -45.9597 N.am      8 UNK        -0.5000 
     35 C           1.5670  -17.9988  -45.8895 C.2       7 UNK         0.5000 
     36 O           1.6326  -19.1868  -46.1994 O.2       7 UNK        -0.5000 
     37 CA          2.8129  -17.3181  -45.3050 C.3       7 UNK         0.1400 
     38 CB          3.6145  -16.5846  -46.3888 C.3       7 UNK        -0.1800 
     39 N           2.4630  -16.4155  -44.2081 N.am      7 UNK        -0.5000 
     40 C           2.1068  -16.8618  -42.9939 C.2       6 UNK         0.5000 
     41 O           2.0734  -18.0569  -42.6952 O.2       6 UNK        -0.5000 
     42 CA          1.6965  -15.8198  -41.9377 C.3       6 UNK         0.1400 
     43 CB          2.9229  -15.3700  -41.1306 C.3       6 UNK        -0.1800 
     44 N           1.0006  -14.6459  -42.4689 N.am      6 UNK        -0.5000 
     45 C          -0.1627  -14.6800  -43.1377 C.2       5 UNK         0.5000 
     46 O          -0.7352  -15.7296  -43.4377 O.2       5 UNK        -0.5000 
     47 CA         -0.7879  -13.3199  -43.5229 C.3       5 UNK         0.1400 
     48 CB         -2.2974  -13.4101  -43.8282 C.3       5 UNK        -0.1800 
     49 N          -0.5139  -12.2635  -42.5438 N.am      5 UNK        -0.5000 
     50 C          -0.8882  -12.2302  -41.2540 C.2       4 UNK         0.5000 
     51 O          -1.6016  -13.0858  -40.7277 O.2       4 UNK        -0.5000 
     52 CA         -0.3725  -11.0411  -40.4077 C.3       4 UNK         0.1400 
     53 CB         -0.1948  -11.4098  -38.9195 C.3       4 UNK        -0.1800 
     54 N           0.8528  -10.4208  -40.9320 N.am      4 UNK        -0.5000 
     55 C           2.0335  -11.0228  -41.1314 C.2       3 UNK         0.5000 
     56 O           2.2626  -12.2046  -40.8697 O.2       3 UNK        -0.5000 
     57 CA          3.1314  -10.1714  -41.7915 C.3       3 UNK         0.1400 
     58 CB          4.2536   -9.8590  -40.7900 C.3       3 UNK        -0.1800 
     59 N           3.7007  -10.8444  -42.9605 N.am      3 UNK        -0.5000 
     60 C           3.0102  -11.2238  -44.0447 C.2       2 UNK         0.5000 
     61 O           1.8055  -11.0009  -44.1938 O.2       2 UNK        -0.5000 
     62 CA          3.8258  -11.9373  -45.1420 C.3       2 UNK         0.1400 
     63 CB          4.4949  -13.2280  -44.6225 C.3       2 UNK        -0.1800 
     64 N           3.0485  -12.1787  -46.3637 N.am      2 UNK        -0.5000 
     65 C           2.0657  -13.0698  -46.5691 C.2       1 UNK         0.5000 
     66 O           1.7223  -13.9262  -45.7501 O.2       1 UNK        -0.5000 
     67 C          -0.8507  -23.1110  -47.3518 C.2       11 UNK         0.5000 
     68 O          -0.9843  -24.1160  -48.0522 O.2       11 UNK        -0.5000 
     69 N          -1.8432  -22.5909  -46.6152 N.am      12 UNK        -0.5000 
     70 CA         -3.2330  -23.0532  -46.5784 C.3       12 UNK         0.1400 
     71 CB         -4.0271  -22.2003  -45.5760 C.3       12 UNK        -0.1800 
     72 C          -3.4340  -24.5477  -46.2762 C.2       12 UNK         0.5000 
     73 O          -4.3943  -25.1354  -46.7780 O.2       12 UNK        -0.5000 
     74 N          -2.5220  -25.1326  -45.4898 N.am      13 UNK        -0.5000 
     75 CA         -2.5110  -26.5532  -45.1440 C.3       13 UNK         0.1400 
     76 CB         -1.5109  -26.7748  -43.9991 C.3       13 UNK        -0.1800 
     77 C          -2.1781  -27.4736  -46.3355 C.2       13 UNK         0.5000 
     78 O          -2.5972  -28.6318  -46.3320 O.2       13 UNK        -0.5000 
     79 N          -1.4348  -26.9536  -47.3212 N.am      14 UNK        -0.5000 
     80 CA         -1.0214  -27.6760  -48.5227 C.3       14 UNK         0.1400 
     81 CB          0.4674  -27.3970  -48.7846 C.3       14 UNK        -0.1800 
     82 C          -1.8634  -27.2657  -49.7406 C.2       14 UNK         0.5000 
     83 O          -2.2720  -28.1292  -50.5169 O.2       14 UNK        -0.5000 
     84 N          -2.1124  -25.9587  -49.8876 N.am      15 UNK        -0.5000 
     85 CA         -2.7414  -25.3438  -51.0573 C.3       15 UNK         0.1400 
     86 CB         -2.0421  -24.0057  -51.3307 C.3       15 UNK        -0.1800 
     87 C          -4.2672  -25.1757  -50.9192 C.2       15 UNK         0.5000 
     88 O          -4.8233  -24.2399  -51.4970 O.2       15 UNK        -0.5000 
     89 N          -4.9134  -26.0746  -50.1616 N.am      16 UNK        -0.5000 
     90 CA         -6.3654  -26.2373  -50.0131 C.3       16 UNK         0.1400 
     91 CB         -6.9540  -26.8476  -51.3021 C.3       16 UNK        -0.1800 
     92 C          -7.0848  -24.9399  -49.5899 C.2       16 UNK         0.5000 
     93 O          -7.9227  -24.4230  -50.3311 O.2       16 UNK        -0.5000 
     94 N          -6.7054  -24.4248  -48.4121 N.am      17 UNK        -0.5000 
     95 CA         -7.1617  -23.1600  -47.8201 C.3       17 UNK         0.1400 
     96 CB         -8.6905  -23.1372  -47.6054 C.3       17 UNK        -0.1800 
     97 C          -6.6274  -21.9155  -48.5633 C.2       17 UNK         0.5000 
     98 O          -7.2485  -20.8536  -48.5093 O.2       17 UNK        -0.5000 
     99 N          -5.4614  -22.0768  -49.2063 N.am      18 UNK        -0.5000 
    100 CA        -4.6818  -21.0774  -49.9394 C.3       18 UNK         0.1400 
    101 CB        -4.1953  -19.9424  -49.0115 C.3       18 UNK        -0.1800 
    102 C         -5.4244  -20.5807  -51.1903 C.2       18 UNK         0.5000 
    103 O         -5.7729  -19.4022  -51.2892 O.2       18 UNK        -0.5000 
    104 N         -5.6604  -21.5144  -52.1210 N.am      19 UNK        -0.5000 
    105 CA        -6.2439  -21.2632  -53.4378 C.3       19 UNK         0.1400 
    106 CB        -6.4094  -22.6071  -54.1639 C.3       19 UNK        -0.1800 
    107 C         -5.3902  -20.2988  -54.2860 C.2       19 UNK         0.5000 
    108 O         -4.1601  -20.3163  -54.1914 O.2       19 UNK        -0.5000 
    109 N         -6.0594  -19.5061  -55.1346 N.am      20 UNK        -0.5000 
    110 CA        -5.4647  -18.4630  -55.9819 C.3       20 UNK         0.1400 
    111 CB        -6.5949  -17.6820  -56.6704 C.3       20 UNK        -0.1800 
    112 C         -4.4491  -18.9724  -57.0263 C.2       20 UNK         0.5000 
    113 O         -3.6365  -18.1871  -57.5151 O.2       20 UNK        -0.5000 
    114 N         -4.4992  -20.2748  -57.3342 N.am      21 UNK        -0.5000 
    115 CA        -3.5393  -20.9817  -58.1824 C.3       21 UNK         0.1400 
    116 CB        -4.1793  -22.3034  -58.6381 C.3       21 UNK        -0.1800 
    117 C         -2.1797  -21.2456  -57.4965 C.2       21 UNK         0.5000 
    118 O         -1.2551  -21.6964  -58.1736 O.2       21 UNK        -0.5000 
    119 N         -2.0838  -20.9917  -56.1821 N.am      22 UNK        -0.5000 
    120 CA        -0.9141  -21.2323  -55.3174 C.3       22 UNK         0.1400 
    121 C         -0.6321  -22.7382  -55.0206 C.2       22 UNK         0.5000 
    122 N         -1.5552  -23.6535  -55.2908 N.am      22 UNK        -0.7600 
    123 O          0.4268  -23.0859  -54.5061 O.2       22 UNK        -0.5000 
    124 C124        0.3668  -20.4573  -55.7568 C.3       23 UNK        -0.0398 
    125 S125        0.1756  -18.6384  -55.7080 S.3       23 UNK        -0.2404 
    126 C126        1.3460  -18.1545  -54.3889 C.3       23 UNK        -0.0205 
    127 H127        0.3304   -9.1195  -48.6008 H         1 UNK         0.0600 
    128 H128       -0.1918   -8.8556  -46.9346 H         1 UNK         0.0600 
    129 H129       -1.3655   -9.3438  -48.1620 H         1 UNK         0.0600 
    130 H130        1.4025  -11.0409  -48.8516 H         1 UNK         0.3000 
    131 H131        2.1233  -13.0902  -48.6902 H         1 UNK         0.0600 
    132 H132       -0.2927  -14.2469  -47.2636 H         1 UNK         0.0800 
    133 H133       -0.5271  -13.5746  -48.8408 H         1 UNK         0.0800 
    134 H134       -1.3895  -15.8706  -49.7746 H         1 UNK         0.0800 
    135 H135       -0.4456  -14.9582  -50.9264 H         1 UNK         0.0800 
    136 H136        0.7420  -16.0824  -52.7041 H         1 UNK         0.1150 
    137 H137        0.5799  -20.3584  -52.9695 H         1 UNK         0.1150 
    138 H138       -1.0225  -18.3723  -49.5392 H         1 UNK         0.1150 
    139 H139       -1.5019  -20.7437  -49.9167 H         1 UNK         0.0800 
    140 H140       -1.2028  -21.3913  -51.5068 H         1 UNK         0.0800 
    141 H141       -0.0077  -20.5021  -48.1396 H         1 UNK         0.0800 
    142 H142        1.6962  -20.8437  -48.1838 H         1 UNK         0.0800 
    143 H143        1.2758  -23.1972  -47.4737 H         1 UNK         0.0600 
    144 H144        1.0017  -20.9189  -45.8579 H         1 UNK         0.3000 
    145 H145        1.1689  -22.5759  -42.6759 H         1 UNK         0.0600 
    146 H146        3.0612  -20.9825  -42.5814 H         1 UNK         0.0600 
    147 H147        3.4507  -22.3192  -43.6542 H         1 UNK         0.0600 
    148 H148        3.0029  -20.7556  -44.3266 H         1 UNK         0.0600 
    149 H149        0.8847  -19.8172  -43.4919 H         1 UNK         0.3000 
    150 H150       -2.6620  -19.6833  -43.0570 H         1 UNK         0.0600 
    151 H151       -1.7204  -19.3352  -40.7783 H         1 UNK         0.0600 
    152 H152       -1.9898  -17.7943  -41.5807 H         1 UNK         0.0600 
    153 H153       -0.3590  -18.4495  -41.4530 H         1 UNK         0.0600 
    154 H154       -0.8883  -17.6342  -43.8059 H         1 UNK         0.3000 
    155 H155       -0.7123  -18.3435  -47.3099 H         1 UNK         0.0600 
    156 H156       -2.0117  -16.0918  -45.6995 H         1 UNK         0.0600 
    157 H157       -1.6280  -16.0826  -47.4191 H         1 UNK         0.0600 
    158 H158       -2.8726  -17.1456  -46.8093 H         1 UNK         0.0600 
    159 H159        0.4580  -16.3130  -45.6435 H         1 UNK         0.3000 
    160 H160        3.4592  -18.1035  -44.9063 H         1 UNK         0.0600 
    161 H161        3.0195  -15.8307  -46.8991 H         1 UNK         0.0600 
    162 H162        3.9617  -17.2853  -47.1491 H         1 UNK         0.0600 
    163 H163        4.4946  -16.0983  -45.9695 H         1 UNK         0.0600 
    164 H164        2.3847  -15.4287  -44.4290 H         1 UNK         0.3000 
    165 H165        1.0084  -16.3165  -41.2509 H         1 UNK         0.0600 
    166 H166        2.6263  -14.7834  -40.2613 H         1 UNK         0.0600 
    167 H167        3.4877  -16.2269  -40.7607 H         1 UNK         0.0600 
    168 H168        3.6006  -14.7626  -41.7317 H         1 UNK         0.0600 
    169 H169        1.3905  -13.7445  -42.2215 H         1 UNK         0.3000 
    170 H170       -0.2931  -13.0054  -44.4403 H         1 UNK         0.0600 
    171 H171       -2.8597  -13.8193  -42.9886 H         1 UNK         0.0600 
    172 H172       -2.7095  -12.4295  -44.0660 H         1 UNK         0.0600 
    173 H173       -2.4826  -14.0506  -44.6897 H         1 UNK         0.0600 
    174 H174        0.1007  -11.5309  -42.8804 H         1 UNK         0.3000 
    175 H175       -1.1482  -10.2764  -40.4659 H         1 UNK         0.0600 
    176 H176        0.1627  -10.5576  -38.3417 H         1 UNK         0.0600 
    177 H177        0.5152  -12.2268  -38.7870 H         1 UNK         0.0600 
    178 H178       -1.1405  -11.7247  -38.4770 H         1 UNK         0.0600 
    179 H179        0.7588   -9.4527  -41.2075 H         1 UNK         0.3000 
    180 H180        2.6984   -9.2276  -42.1292 H         1 UNK         0.0600 
    181 H181        4.7456  -10.7678  -40.4406 H         1 UNK         0.0600 
    182 H182        3.8610   -9.3411  -39.9139 H         1 UNK         0.0600 
    183 H183        5.0126   -9.2149  -41.2343 H         1 UNK         0.0600 
    184 H184        4.6817  -11.0743  -42.9036 H         1 UNK         0.3000 
    185 H185        4.6197  -11.2487  -45.4349 H         1 UNK         0.0600 
    186 H186        3.7763  -13.9010  -44.1569 H         1 UNK         0.0600 
    187 H187        4.9919  -13.7665  -45.4289 H         1 UNK         0.0600 
    188 H188        5.2542  -13.0042  -43.8729 H         1 UNK         0.0600 
    189 H189        3.2076  -11.5024  -47.0964 H         1 UNK         0.3000 
    190 H190       -1.6611  -21.7256  -46.1110 H         1 UNK         0.3000 
    191 H191       -3.6359  -22.8873  -47.5742 H         1 UNK         0.0600 
    192 H192       -4.1621  -21.1832  -45.9428 H         1 UNK         0.0600 
    193 H193       -5.0205  -22.6082  -45.3922 H         1 UNK         0.0600 
    194 H194       -3.5204  -22.1442  -44.6120 H         1 UNK         0.0600 
    195 H195       -1.7565  -24.5721  -45.1401 H         1 UNK         0.3000 
    196 H196       -3.5068  -26.8237  -44.7868 H         1 UNK         0.0600 
    197 H197       -1.4920  -27.8214  -43.6924 H         1 UNK         0.0600 
    198 H198       -1.7775  -26.1844  -43.1223 H         1 UNK         0.0600 
    199 H199       -0.4971  -26.4993  -44.2931 H         1 UNK         0.0600 
    200 H200       -1.1735  -25.9751  -47.2713 H         1 UNK         0.3000 
    201 H201       -1.1392  -28.7525  -48.3820 H         1 UNK         0.0600 
    202 H202        1.0825  -27.7367  -47.9512 H         1 UNK         0.0600 
    203 H203        0.6613  -26.3333  -48.9303 H         1 UNK         0.0600 
    204 H204        0.8121  -27.9198  -49.6776 H         1 UNK         0.0600 
    205 H205       -1.7374  -25.3114  -49.1974 H         1 UNK         0.3000 
    206 H206       -2.5798  -25.9783  -51.9309 H         1 UNK         0.0600 
    207 H207       -0.9725  -24.1465  -51.4880 H         1 UNK         0.0600 
    208 H208       -2.4353  -23.5188  -52.2243 H         1 UNK         0.0600 
    209 H209       -2.1700  -23.3247  -50.4903 H         1 UNK         0.0600 
    210 H210       -4.3473  -26.7743  -49.7027 H         1 UNK         0.3000 
    211 H211       -6.5201  -26.9562  -49.2071 H         1 UNK         0.0600 
    212 H212       -6.8310  -26.1824  -52.1578 H         1 UNK         0.0600 
    213 H213       -8.0209  -27.0443  -51.1901 H         1 UNK         0.0600 
    214 H214       -6.4733  -27.7955  -51.5440 H         1 UNK         0.0600 
    215 H215       -5.9797  -24.9068  -47.8859 H         1 UNK         0.3000 
    216 H216       -6.7103  -23.1277  -46.8297 H         1 UNK         0.0600 
    217 H217       -8.9823  -22.2893  -46.9847 H         1 UNK         0.0600 
    218 H218       -9.0324  -24.0401  -47.0996 H         1 UNK         0.0600 
    219 H219       -9.2354  -23.0497  -48.5454 H         1 UNK         0.0600 
    220 H220       -5.1105  -23.0215  -49.2632 H         1 UNK         0.3000 
    221 H221       -3.7932  -21.5928  -50.3035 H         1 UNK         0.0600 
    222 H222       -5.0234  -19.3845  -48.5744 H         1 UNK         0.0600 
    223 H223       -3.5849  -20.3312  -48.1966 H         1 UNK         0.0600 
    224 H224       -3.5806  -19.2289  -49.5614 H         1 UNK         0.0600 
    225 H225       -5.3587  -22.4693  -51.9415 H         1 UNK         0.3000 
    226 H226       -7.2300  -20.8202  -53.2852 H         1 UNK         0.0600 
    227 H227       -7.0373  -23.2895  -53.5900 H         1 UNK         0.0600 
    228 H228       -6.8794  -22.4743  -55.1390 H         1 UNK         0.0600 
    229 H229       -5.4475  -23.0967  -54.3240 H         1 UNK         0.0600 
    230 H230       -7.0667  -19.5748  -55.1660 H         1 UNK         0.3000 
    231 H231       -4.9267  -17.7764  -55.3250 H         1 UNK         0.0600 
    232 H232       -7.1893  -18.3253  -57.3205 H         1 UNK         0.0600 
    233 H233       -6.1956  -16.8739  -57.2849 H         1 UNK         0.0600 
    234 H234       -7.2653  -17.2294  -55.9395 H         1 UNK         0.0600 
    235 H235       -5.2082  -20.8375  -56.8884 H         1 UNK         0.3000 
    236 H236       -3.3438  -20.3731  -59.0677 H         1 UNK         0.0600 
    237 H237       -5.1078  -22.1256  -59.1811 H         1 UNK         0.0600 
    238 H238       -3.5149  -22.8516  -59.3075 H         1 UNK         0.0600 
    239 H239       -4.4037  -22.9548  -57.7925 H         1 UNK         0.0600 
    240 H240       -2.9018  -20.6431  -55.6923 H         1 UNK         0.3000 
    241 H241       -1.2159  -20.8326  -54.3499 H         1 UNK         0.0600 
    242 H242       -2.4351  -23.3889  -55.7011 H         1 UNK         0.3800 
    243 H243       -1.3628  -24.6219  -55.0911 H         1 UNK         0.3800 
    244 H244        0.6629  -20.7420  -56.7661 H         1 UNK         0.0800 
    245 H245        1.2175  -20.7298  -55.1321 H         1 UNK         0.0800 
    246 H246        2.2377  -18.7819  -54.4178 H         1 UNK         0.0800 
    247 H247        1.6897  -17.1406  -54.5987 H         1 UNK         0.0800 
@<TRIPOS>BOND
     1    1    2 1    
     2    1  127 1    
     3    1  128 1    
     4    1  129 1    
     5    2    3 2    
     6    2    4 am   BACKBONE|DICT|INTERRES
     7    4    5 1    
     8    4  130 1    
     9    5    6 1    
    10    5   65 1    
    11    5  131 1    
    12    6    7 1    
    13    6  132 1    
    14    6  133 1    
    15    7    8 1    
    16    8    9 1    
    17    8  134 1    
    18    8  135 1    
    19    9   10 ar   
    20    9   14 ar   
    21   10   11 ar   
    22   10  136 1    
    23   11   12 ar   
    24   11  126 1    
    25   12   13 ar   
    26   12  137 1    
    27   13   14 ar   
    28   13   15 1    
    29   14  138 1    
    30   15   16 1    
    31   15  139 1    
    32   15  140 1    
    33   16   17 1    
    34   17   18 1    
    35   17  141 1    
    36   17  142 1    
    37   18   19 1    
    38   18   67 1    
    39   18  143 1    
    40   19   20 am   BACKBONE|DICT|INTERRES
    41   19  144 1    
    42   20   21 2    
    43   20   22 1    
    44   22   23 1    
    45   22   24 1    
    46   22  145 1    
    47   23  146 1    
    48   23  147 1    
    49   23  148 1    
    50   24   25 am   BACKBONE|DICT|INTERRES
    51   24  149 1    
    52   25   26 2    
    53   25   27 1    
    54   27   28 1    
    55   27   29 1    
    56   27  150 1    
    57   28  151 1    
    58   28  152 1    
    59   28  153 1    
    60   29   30 am   BACKBONE|DICT|INTERRES
    61   29  154 1    
    62   30   31 2    
    63   30   32 1    
    64   32   33 1    
    65   32   34 1    
    66   32  155 1    
    67   33  156 1    
    68   33  157 1    
    69   33  158 1    
    70   34   35 am   BACKBONE|DICT|INTERRES
    71   34  159 1    
    72   35   36 2    
    73   35   37 1    
    74   37   38 1    
    75   37   39 1    
    76   37  160 1    
    77   38  161 1    
    78   38  162 1    
    79   38  163 1    
    80   39   40 am   BACKBONE|DICT|INTERRES
    81   39  164 1    
    82   40   41 2    
    83   40   42 1    
    84   42   43 1    
    85   42   44 1    
    86   42  165 1    
    87   43  166 1    
    88   43  167 1    
    89   43  168 1    
    90   44   45 am   BACKBONE|DICT|INTERRES
    91   44  169 1    
    92   45   46 2    
    93   45   47 1    
    94   47   48 1    
    95   47   49 1    
    96   47  170 1    
    97   48  171 1    
    98   48  172 1    
    99   48  173 1    
   100   49   50 am   BACKBONE|DICT|INTERRES
   101   49  174 1    
   102   50   51 2    
   103   50   52 1    
   104   52   53 1    
   105   52   54 1    
   106   52  175 1    
   107   53  176 1    
   108   53  177 1    
   109   53  178 1    
   110   54   55 am   BACKBONE|DICT|INTERRES
   111   54  179 1    
   112   55   56 2    
   113   55   57 1    
   114   57   58 1    
   115   57   59 1    
   116   57  180 1    
   117   58  181 1    
   118   58  182 1    
   119   58  183 1    
   120   59   60 am   BACKBONE|DICT|INTERRES
   121   59  184 1    
   122   60   61 2    
   123   60   62 1    
   124   62   63 1    
   125   62   64 1    
   126   62  185 1    
   127   63  186 1    
   128   63  187 1    
   129   63  188 1    
   130   64   65 am   BACKBONE|DICT|INTERRES
   131   64  189 1    
   132   65   66 2    
   133   67   68 2    
   134   67   69 am   BACKBONE|DICT|INTERRES
   135   69   70 1    
   136   69  190 1    
   137   70   71 1    
   138   70   72 1    
   139   70  191 1    
   140   71  192 1    
   141   71  193 1    
   142   71  194 1    
   143   72   73 2    
   144   72   74 am   BACKBONE|DICT|INTERRES
   145   74   75 1    
   146   74  195 1    
   147   75   76 1    
   148   75   77 1    
   149   75  196 1    
   150   76  197 1    
   151   76  198 1    
   152   76  199 1    
   153   77   78 2    
   154   77   79 am   BACKBONE|DICT|INTERRES
   155   79   80 1    
   156   79  200 1    
   157   80   81 1    
   158   80   82 1    
   159   80  201 1    
   160   81  202 1    
   161   81  203 1    
   162   81  204 1    
   163   82   83 2    
   164   82   84 am   BACKBONE|DICT|INTERRES
   165   84   85 1    
   166   84  205 1    
   167   85   86 1    
   168   85   87 1    
   169   85  206 1    
   170   86  207 1    
   171   86  208 1    
   172   86  209 1    
   173   87   88 2    
   174   87   89 am   BACKBONE|DICT|INTERRES
   175   89   90 1    
   176   89  210 1    
   177   90   91 1    
   178   90   92 1    
   179   90  211 1    
   180   91  212 1    
   181   91  213 1    
   182   91  214 1    
   183   92   93 2    
   184   92   94 am   BACKBONE|DICT|INTERRES
   185   94   95 1    
   186   94  215 1    
   187   95   96 1    
   188   95   97 1    
   189   95  216 1    
   190   96  217 1    
   191   96  218 1    
   192   96  219 1    
   193   97   98 2    
   194   97   99 am   BACKBONE|DICT|INTERRES
   195   99  100 1    
   196   99  220 1    
   197  100  101 1    
   198  100  102 1    
   199  100  221 1    
   200  101  222 1    
   201  101  223 1    
   202  101  224 1    
   203  102  103 2    
   204  102  104 am   BACKBONE|DICT|INTERRES
   205  104  105 1    
   206  104  225 1    
   207  105  106 1    
   208  105  107 1    
   209  105  226 1    
   210  106  227 1    
   211  106  228 1    
   212  106  229 1    
   213  107  108 2    
   214  107  109 am   BACKBONE|DICT|INTERRES
   215  109  110 1    
   216  109  230 1    
   217  110  111 1    
   218  110  112 1    
   219  110  231 1    
   220  111  232 1    
   221  111  233 1    
   222  111  234 1    
   223  112  113 2    
   224  112  114 am   BACKBONE|DICT|INTERRES
   225  114  115 1    
   226  114  235 1    
   227  115  116 1    
   228  115  117 1    
   229  115  236 1    
   230  116  237 1    
   231  116  238 1    
   232  116  239 1    
   233  117  118 2    
   234  117  119 am   BACKBONE|DICT|INTERRES
   235  119  120 1    
   236  119  240 1    
   237  120  121 1    
   238  120  124 1    
   239  120  241 1    
   240  121  122 am   BACKBONE|DICT|INTERRES
   241  121  123 2    
   242  122  242 1    
   243  122  243 1    
   244  124  125 1    
   245  124  244 1    
   246  124  245 1    
   247  125  126 1    
   248  126  246 1    
   249  126  247 1    
@<TRIPOS>SUBSTRUCTURE
     1 UNK         1 GROUP             0       ****    0 ROOT    
