@<TRIPOS>MOLECULE
3R540
247   249    1
SMALL
USER_CHARGES


@<TRIPOS>ATOM
      1 CA          4.4918  -10.5028  -47.4167 C.3       0 UNK        -0.1800 
      2 C           3.6750  -11.7625  -47.1700 C.2       0 UNK         0.5000 
      3 O           2.6690  -11.7132  -46.4650 O.2       0 UNK        -0.5000 
      4 N           4.0897  -12.8895  -47.7621 N.am      1 UNK        -0.5000 
      5 CA          3.4445  -14.2052  -47.6382 C.3       1 UNK         0.1400 
      6 C6          4.3338  -15.3331  -48.2210 C.3       23 UNK        -0.0398 
      7 S7          4.8045  -15.0893  -49.9754 S.3       23 UNK        -0.2404 
      8 C8          4.2700  -16.6467  -50.7569 C.3       23 UNK        -0.0205 
      9 C9          2.7559  -16.7505  -50.8587 C.ar      23 UNK        -0.0193 
     10 C10         2.0714  -16.1170  -51.8990 C.ar      23 UNK        -0.1150 
     11 C11         0.6779  -16.1896  -51.9752 C.ar      23 UNK        -0.0193 
     12 C12        -0.0295  -16.9105  -51.0079 C.ar      23 UNK        -0.1150 
     13 C13         0.6413  -17.5562  -49.9646 C.ar      23 UNK        -0.0193 
     14 C14         2.0376  -17.4732  -49.9041 C.ar      23 UNK        -0.1150 
     15 C15        -0.1693  -18.2575  -48.8760 C.3       23 UNK        -0.0205 
     16 S16         0.6960  -19.6474  -48.0658 S.3       23 UNK        -0.2404 
     17 C17        -0.3420  -19.9108  -46.5900 C.3       23 UNK        -0.0398 
     18 CA         -0.9049  -21.3455  -46.5360 C.3       11 UNK         0.1400 
     19 N           0.1471  -22.3622  -46.4508 N.am      11 UNK        -0.5000 
     20 C          -0.0584  -23.6725  -46.6339 C.2       10 UNK         0.5000 
     21 O          -1.1604  -24.1564  -46.8777 O.2       10 UNK        -0.5000 
     22 CA          1.1562  -24.5977  -46.4549 C.3       10 UNK         0.1400 
     23 CB          2.0757  -24.5371  -47.6838 C.3       10 UNK        -0.1800 
     24 N           1.9183  -24.2639  -45.2525 N.am      10 UNK        -0.5000 
     25 C           1.4480  -24.3863  -44.0027 C.2       9 UNK         0.5000 
     26 O           0.3498  -24.8700  -43.7302 O.2       9 UNK        -0.5000 
     27 CA          2.3363  -23.8375  -42.8712 C.3       9 UNK         0.1400 
     28 CB          3.2558  -24.9401  -42.3258 C.3       9 UNK        -0.1800 
     29 N           3.1481  -22.6851  -43.2738 N.am      9 UNK        -0.5000 
     30 C           2.6578  -21.4962  -43.6489 C.2       8 UNK         0.5000 
     31 O           1.4527  -21.2471  -43.7434 O.2       8 UNK        -0.5000 
     32 CA          3.6940  -20.4238  -44.0301 C.3       8 UNK         0.1400 
     33 CB          3.7611  -20.2605  -45.5560 C.3       8 UNK        -0.1800 
     34 N           3.3929  -19.1273  -43.4289 N.am      8 UNK        -0.5000 
     35 C           3.3968  -18.8523  -42.1197 C.2       7 UNK         0.5000 
     36 O           3.6959  -19.6778  -41.2555 O.2       7 UNK        -0.5000 
     37 CA          3.0065  -17.4238  -41.6834 C.3       7 UNK         0.1400 
     38 CB          4.2559  -16.5378  -41.5182 C.3       7 UNK        -0.1800 
     39 N           1.9934  -16.7581  -42.5164 N.am      7 UNK        -0.5000 
     40 C           2.0768  -16.3369  -43.7876 C.2       6 UNK         0.5000 
     41 O           3.0613  -16.5024  -44.5084 O.2       6 UNK        -0.5000 
     42 CA          0.8314  -15.6379  -44.3612 C.3       6 UNK         0.1400 
     43 CB         -0.0410  -16.6604  -45.1039 C.3       6 UNK        -0.1800 
     44 N           0.0136  -14.9503  -43.3582 N.am      6 UNK        -0.5000 
     45 C           0.3922  -13.8672  -42.6661 C.2       5 UNK         0.5000 
     46 O           1.5149  -13.3659  -42.7417 O.2       5 UNK        -0.5000 
     47 CA         -0.6949  -13.2134  -41.7888 C.3       5 UNK         0.1400 
     48 CB         -0.1512  -12.0634  -40.9218 C.3       5 UNK        -0.1800 
     49 N          -1.7620  -12.6946  -42.6419 N.am      5 UNK        -0.5000 
     50 C          -2.8032  -13.4029  -43.0988 C.2       4 UNK         0.5000 
     51 O          -3.0555  -14.5538  -42.7404 O.2       4 UNK        -0.5000 
     52 CA         -3.6624  -12.7318  -44.1897 C.3       4 UNK         0.1400 
     53 CB         -4.7737  -11.8800  -43.5580 C.3       4 UNK        -0.1800 
     54 N          -2.8727  -11.9009  -45.1071 N.am      4 UNK        -0.5000 
     55 C          -1.9034  -12.3675  -45.9082 C.2       3 UNK         0.5000 
     56 O          -1.6105  -13.5617  -45.9905 O.2       3 UNK        -0.5000 
     57 CA         -1.1125  -11.3117  -46.7075 C.3       3 UNK         0.1400 
     58 CB         -0.2544  -10.4560  -45.7605 C.3       3 UNK        -0.1800 
     59 N          -0.2395  -11.9179  -47.7156 N.am      3 UNK        -0.5000 
     60 C          -0.6714  -12.5000  -48.8447 C.2       2 UNK         0.5000 
     61 O          -1.8519  -12.4907  -49.1976 O.2       2 UNK        -0.5000 
     62 CA          0.3708  -13.1899  -49.7513 C.3       2 UNK         0.1400 
     63 CB          0.5370  -12.4221  -51.0724 C.3       2 UNK        -0.1800 
     64 N           1.6891  -13.3419  -49.1366 N.am      2 UNK        -0.5000 
     65 C           2.0043  -14.2482  -48.2007 C.2       1 UNK         0.5000 
     66 O           1.2082  -15.0730  -47.7574 O.2       1 UNK        -0.5000 
     67 C          -1.9337  -21.4916  -45.3980 C.2       11 UNK         0.5000 
     68 O          -3.1298  -21.3248  -45.6417 O.2       11 UNK        -0.5000 
     69 N          -1.4601  -21.8531  -44.1961 N.am      12 UNK        -0.5000 
     70 CA         -2.2966  -22.1779  -43.0387 C.3       12 UNK         0.1400 
     71 CB         -1.4074  -22.3721  -41.8019 C.3       12 UNK        -0.1800 
     72 C          -3.1969  -23.4095  -43.2695 C.2       12 UNK         0.5000 
     73 O          -4.3196  -23.4414  -42.7636 O.2       12 UNK        -0.5000 
     74 N          -2.7251  -24.3733  -44.0732 N.am      13 UNK        -0.5000 
     75 CA         -3.4707  -25.5463  -44.5328 C.3       13 UNK         0.1400 
     76 CB         -2.4780  -26.6659  -44.8942 C.3       13 UNK        -0.1800 
     77 C          -4.4311  -25.1962  -45.6917 C.2       13 UNK         0.5000 
     78 O          -4.3333  -25.7661  -46.7813 O.2       13 UNK        -0.5000 
     79 N          -5.3462  -24.2535  -45.4236 N.am      14 UNK        -0.5000 
     80 CA         -6.4347  -23.7855  -46.2875 C.3       14 UNK         0.1400 
     81 CB         -7.5190  -24.8773  -46.4048 C.3       14 UNK        -0.1800 
     82 C          -5.9491  -23.2810  -47.6614 C.2       14 UNK         0.5000 
     83 O          -6.4704  -23.7089  -48.6928 O.2       14 UNK        -0.5000 
     84 N          -4.9342  -22.4031  -47.6512 N.am      15 UNK        -0.5000 
     85 CA         -4.2721  -21.8304  -48.8293 C.3       15 UNK         0.1400 
     86 CB         -5.2273  -20.8856  -49.5897 C.3       15 UNK        -0.1800 
     87 C          -3.6490  -22.9176  -49.7288 C.2       15 UNK         0.5000 
     88 O          -3.8303  -22.8890  -50.9459 O.2       15 UNK        -0.5000 
     89 N          -2.9600  -23.8815  -49.1009 N.am      16 UNK        -0.5000 
     90 CA         -2.3614  -25.0780  -49.6996 C.3       16 UNK         0.1400 
     91 CB         -1.1672  -24.6902  -50.5966 C.3       16 UNK        -0.1800 
     92 C          -3.4129  -25.9509  -50.4114 C.2       16 UNK         0.5000 
     93 O          -3.2136  -26.3472  -51.5591 O.2       16 UNK        -0.5000 
     94 N          -4.5428  -26.1834  -49.7261 N.am      17 UNK        -0.5000 
     95 CA         -5.7652  -26.8160  -50.2372 C.3       17 UNK         0.1400 
     96 CB         -5.5414  -28.3240  -50.4721 C.3       17 UNK        -0.1800 
     97 C          -6.3246  -26.0803  -51.4770 C.2       17 UNK         0.5000 
     98 O          -6.6354  -26.7057  -52.4923 O.2       17 UNK        -0.5000 
     99 N          -6.4030  -24.7478  -51.3612 N.am      18 UNK        -0.5000 
    100 CA        -6.8276  -23.7643  -52.3618 C.3       18 UNK         0.1400 
    101 CB        -8.3038  -23.9827  -52.7536 C.3       18 UNK        -0.1800 
    102 C         -5.9035  -23.6330  -53.5944 C.2       18 UNK         0.5000 
    103 O         -6.3011  -22.9938  -54.5703 O.2       18 UNK        -0.5000 
    104 N         -4.6880  -24.1989  -53.5454 N.am      19 UNK        -0.5000 
    105 CA        -3.6860  -24.0727  -54.6066 C.3       19 UNK         0.1400 
    106 CB        -2.6244  -25.1719  -54.4654 C.3       19 UNK        -0.1800 
    107 C         -3.0235  -22.6830  -54.6382 C.2       19 UNK         0.5000 
    108 O         -2.6857  -22.2033  -55.7217 O.2       19 UNK        -0.5000 
    109 N         -2.8797  -22.0341  -53.4731 N.am      20 UNK        -0.5000 
    110 CA        -2.3735  -20.6670  -53.3311 C.3       20 UNK         0.1400 
    111 CB        -1.7016  -20.5017  -51.9555 C.3       20 UNK        -0.1800 
    112 C         -3.5081  -19.6521  -53.5740 C.2       20 UNK         0.5000 
    113 O         -3.8481  -18.8602  -52.6922 O.2       20 UNK        -0.5000 
    114 N         -4.0837  -19.7067  -54.7832 N.am      21 UNK        -0.5000 
    115 CA        -5.2312  -18.9170  -55.2424 C.3       21 UNK         0.1400 
    116 CB        -5.6478  -19.4208  -56.6326 C.3       21 UNK        -0.1800 
    117 C         -4.9953  -17.3927  -55.2619 C.2       21 UNK         0.5000 
    118 O         -5.9618  -16.6300  -55.2963 O.2       21 UNK        -0.5000 
    119 N         -3.7236  -16.9794  -55.2150 N.am      22 UNK        -0.5000 
    120 CA        -3.2826  -15.6012  -54.9674 C.3       22 UNK         0.1400 
    121 C         -3.6311  -15.0479  -53.5513 C.2       22 UNK         0.5000 
    122 N         -3.9424  -15.8808  -52.5631 N.am      22 UNK        -0.7600 
    123 O         -3.6208  -13.8368  -53.3508 O.2       22 UNK        -0.5000 
    124 C124       -1.7748  -15.4301  -55.2917 C.3       23 UNK        -0.0398 
    125 S125       -0.6832  -16.5664  -54.3586 S.3       23 UNK        -0.2404 
    126 C126       -0.0729  -15.4434  -53.0650 C.3       23 UNK        -0.0205 
    127 H127        5.3433  -10.6928  -48.0705 H         1 UNK         0.0600 
    128 H128        4.8685  -10.1101  -46.4722 H         1 UNK         0.0600 
    129 H129        3.8695   -9.7379  -47.8811 H         1 UNK         0.0600 
    130 H130        4.9123  -12.8684  -48.3487 H         1 UNK         0.3000 
    131 H131        3.3483  -14.4009  -46.5677 H         1 UNK         0.0600 
    132 H132        5.2569  -15.3916  -47.6428 H         1 UNK         0.0800 
    133 H133        3.8550  -16.3024  -48.0828 H         1 UNK         0.0800 
    134 H134        4.6792  -17.4931  -50.2031 H         1 UNK         0.0800 
    135 H135        4.7027  -16.7029  -51.7568 H         1 UNK         0.0800 
    136 H136        2.6235  -15.5492  -52.6346 H         1 UNK         0.1150 
    137 H137       -1.1091  -16.9474  -51.0583 H         1 UNK         0.1150 
    138 H138        2.5714  -17.9462  -49.0936 H         1 UNK         0.1150 
    139 H139       -0.4255  -17.5063  -48.1279 H         1 UNK         0.0800 
    140 H140       -1.1096  -18.6286  -49.2868 H         1 UNK         0.0800 
    141 H141       -1.1561  -19.1836  -46.5892 H         1 UNK         0.0800 
    142 H142        0.2573  -19.6991  -45.7030 H         1 UNK         0.0800 
    143 H143       -1.4378  -21.5232  -47.4708 H         1 UNK         0.0600 
    144 H144        1.0713  -22.0353  -46.2134 H         1 UNK         0.3000 
    145 H145        0.7868  -25.6205  -46.3528 H         1 UNK         0.0600 
    146 H146        2.4894  -23.5389  -47.8331 H         1 UNK         0.0600 
    147 H147        2.9081  -25.2345  -47.5874 H         1 UNK         0.0600 
    148 H148        1.5320  -24.8063  -48.5901 H         1 UNK         0.0600 
    149 H149        2.8359  -23.8657  -45.3844 H         1 UNK         0.3000 
    150 H150        1.6774  -23.5132  -42.0634 H         1 UNK         0.0600 
    151 H151        2.6763  -25.8034  -41.9956 H         1 UNK         0.0600 
    152 H152        3.8283  -24.5879  -41.4674 H         1 UNK         0.0600 
    153 H153        3.9612  -25.2878  -43.0816 H         1 UNK         0.0600 
    154 H154        4.1495  -22.8076  -43.2274 H         1 UNK         0.3000 
    155 H155        4.6773  -20.7368  -43.6731 H         1 UNK         0.0600 
    156 H156        3.9765  -21.2104  -46.0468 H         1 UNK         0.0600 
    157 H157        4.5465  -19.5610  -45.8429 H         1 UNK         0.0600 
    158 H158        2.8205  -19.8859  -45.9595 H         1 UNK         0.0600 
    159 H159        3.1765  -18.3638  -44.0612 H         1 UNK         0.3000 
    160 H160        2.5483  -17.5229  -40.6981 H         1 UNK         0.0600 
    161 H161        3.9907  -15.5477  -41.1470 H         1 UNK         0.0600 
    162 H162        4.7931  -16.4108  -42.4584 H         1 UNK         0.0600 
    163 H163        4.9527  -16.9775  -40.8035 H         1 UNK         0.0600 
    164 H164        1.1117  -16.5934  -42.0520 H         1 UNK         0.3000 
    165 H165        1.1737  -14.8889  -45.0778 H         1 UNK         0.0600 
    166 H166       -0.4356  -17.4231  -44.4315 H         1 UNK         0.0600 
    167 H167       -0.8825  -16.1767  -45.5998 H         1 UNK         0.0600 
    168 H168        0.5385  -17.1657  -45.8773 H         1 UNK         0.0600 
    169 H169       -0.9468  -15.2570  -43.2694 H         1 UNK         0.3000 
    170 H170       -1.0915  -13.9795  -41.1191 H         1 UNK         0.0600 
    171 H171        0.2545  -11.2539  -41.5300 H         1 UNK         0.0600 
    172 H172       -0.9337  -11.6455  -40.2882 H         1 UNK         0.0600 
    173 H173        0.6458  -12.4133  -40.2645 H         1 UNK         0.0600 
    174 H174       -1.6158  -11.7721  -43.0242 H         1 UNK         0.3000 
    175 H175       -4.1306  -13.5256  -44.7756 H         1 UNK         0.0600 
    176 H176       -4.3668  -11.0502  -42.9788 H         1 UNK         0.0600 
    177 H177       -5.4351  -11.4665  -44.3196 H         1 UNK         0.0600 
    178 H178       -5.3893  -12.4790  -42.8855 H         1 UNK         0.0600 
    179 H179       -3.0654  -10.9096  -45.0949 H         1 UNK         0.3000 
    180 H180       -1.8263  -10.6611  -47.2168 H         1 UNK         0.0600 
    181 H181        0.4092  -11.0735  -45.1532 H         1 UNK         0.0600 
    182 H182       -0.8756   -9.8758  -45.0775 H         1 UNK         0.0600 
    183 H183        0.3619   -9.7477  -46.3146 H         1 UNK         0.0600 
    184 H184        0.7392  -11.9998  -47.4683 H         1 UNK         0.3000 
    185 H185       -0.0160  -14.1841  -49.9805 H         1 UNK         0.0600 
    186 H186        1.2406  -12.9259  -51.7354 H         1 UNK         0.0600 
    187 H187       -0.4125  -12.3481  -51.6043 H         1 UNK         0.0600 
    188 H188        0.9006  -11.4077  -50.9045 H         1 UNK         0.0600 
    189 H189        2.4074  -12.6996  -49.4364 H         1 UNK         0.3000 
    190 H190       -0.4552  -21.9153  -44.0680 H         1 UNK         0.3000 
    191 H191       -2.9498  -21.3224  -42.8550 H         1 UNK         0.0600 
    192 H192       -0.7596  -23.2419  -41.9042 H         1 UNK         0.0600 
    193 H193       -0.7753  -21.5011  -41.6270 H         1 UNK         0.0600 
    194 H194       -2.0136  -22.5207  -40.9076 H         1 UNK         0.0600 
    195 H195       -1.7920  -24.2686  -44.4513 H         1 UNK         0.3000 
    196 H196       -4.0859  -25.9132  -43.7088 H         1 UNK         0.0600 
    197 H197       -1.8350  -26.9099  -44.0484 H         1 UNK         0.0600 
    198 H198       -1.8364  -26.3884  -45.7299 H         1 UNK         0.0600 
    199 H199       -3.0050  -27.5782  -45.1760 H         1 UNK         0.0600 
    200 H200       -5.3011  -23.8287  -44.5029 H         1 UNK         0.3000 
    201 H201       -6.8824  -22.9261  -45.7866 H         1 UNK         0.0600 
    202 H202       -8.3821  -24.5140  -46.9640 H         1 UNK         0.0600 
    203 H203       -7.8768  -25.1846  -45.4222 H         1 UNK         0.0600 
    204 H204       -7.1462  -25.7645  -46.9179 H         1 UNK         0.0600 
    205 H205       -4.5335  -22.1277  -46.7586 H         1 UNK         0.3000 
    206 H206       -3.4474  -21.2205  -48.4640 H         1 UNK         0.0600 
    207 H207       -6.0798  -21.4173  -50.0110 H         1 UNK         0.0600 
    208 H208       -4.7163  -20.3879  -50.4143 H         1 UNK         0.0600 
    209 H209       -5.6123  -20.1061  -48.9326 H         1 UNK         0.0600 
    210 H210       -2.8509  -23.8305  -48.0946 H         1 UNK         0.3000 
    211 H211       -1.9766  -25.6831  -48.8778 H         1 UNK         0.0600 
    212 H212       -0.4288  -24.1173  -50.0360 H         1 UNK         0.0600 
    213 H213       -0.6651  -25.5763  -50.9860 H         1 UNK         0.0600 
    214 H214       -1.4767  -24.0857  -51.4489 H         1 UNK         0.0600 
    215 H215       -4.5935  -25.8362  -48.7719 H         1 UNK         0.3000 
    216 H216       -6.5158  -26.7104  -49.4525 H         1 UNK         0.0600 
    217 H217       -6.4741  -28.8179  -50.7468 H         1 UNK         0.0600 
    218 H218       -4.8254  -28.5090  -51.2734 H         1 UNK         0.0600 
    219 H219       -5.1695  -28.8111  -49.5708 H         1 UNK         0.0600 
    220 H220       -6.1569  -24.3486  -50.4580 H         1 UNK         0.3000 
    221 H221       -6.7686  -22.7999  -51.8568 H         1 UNK         0.0600 
    222 H222       -8.4387  -24.8969  -53.3319 H         1 UNK         0.0600 
    223 H223       -8.9405  -24.0452  -51.8711 H         1 UNK         0.0600 
    224 H224       -8.6755  -23.1563  -53.3604 H         1 UNK         0.0600 
    225 H225       -4.4092  -24.6891  -52.7045 H         1 UNK         0.3000 
    226 H226       -4.1871  -24.2212  -55.5655 H         1 UNK         0.0600 
    227 H227       -3.0803  -26.1618  -54.4365 H         1 UNK         0.0600 
    228 H228       -1.9338  -25.1552  -55.3093 H         1 UNK         0.0600 
    229 H229       -2.0325  -25.0471  -53.5593 H         1 UNK         0.0600 
    230 H230       -3.2401  -22.4646  -52.6227 H         1 UNK         0.3000 
    231 H231       -1.6068  -20.4874  -54.0877 H         1 UNK         0.0600 
    232 H232       -1.2192  -19.5268  -51.8777 H         1 UNK         0.0600 
    233 H233       -0.9329  -21.2579  -51.7956 H         1 UNK         0.0600 
    234 H234       -2.4176  -20.5747  -51.1387 H         1 UNK         0.0600 
    235 H235       -3.7336  -20.4061  -55.4284 H         1 UNK         0.3000 
    236 H236       -6.0539  -19.1046  -54.5497 H         1 UNK         0.0600 
    237 H237       -5.9059  -20.4800  -56.6061 H         1 UNK         0.0600 
    238 H238       -6.5235  -18.8835  -56.9990 H         1 UNK         0.0600 
    239 H239       -4.8494  -19.2869  -57.3636 H         1 UNK         0.0600 
    240 H240       -2.9987  -17.6804  -55.1816 H         1 UNK         0.3000 
    241 H241       -3.8313  -14.9696  -55.6686 H         1 UNK         0.0600 
    242 H242       -4.1734  -15.5049  -51.6581 H         1 UNK         0.3800 
    243 H243       -3.9340  -16.8871  -52.6995 H         1 UNK         0.3800 
    244 H244       -1.6144  -15.6222  -56.3533 H         1 UNK         0.0800 
    245 H245       -1.4593  -14.3967  -55.1367 H         1 UNK         0.0800 
    246 H246       -0.9073  -14.9078  -52.6114 H         1 UNK         0.0800 
    247 H247        0.5652  -14.6857  -53.5222 H         1 UNK         0.0800 
@<TRIPOS>BOND
     1    1    2 1    
     2    1  127 1    
     3    1  128 1    
     4    1  129 1    
     5    2    3 2    
     6    2    4 am   BACKBONE|DICT|INTERRES
     7    4    5 1    
     8    4  130 1    
     9    5    6 1    
    10    5   65 1    
    11    5  131 1    
    12    6    7 1    
    13    6  132 1    
    14    6  133 1    
    15    7    8 1    
    16    8    9 1    
    17    8  134 1    
    18    8  135 1    
    19    9   10 ar   
    20    9   14 ar   
    21   10   11 ar   
    22   10  136 1    
    23   11   12 ar   
    24   11  126 1    
    25   12   13 ar   
    26   12  137 1    
    27   13   14 ar   
    28   13   15 1    
    29   14  138 1    
    30   15   16 1    
    31   15  139 1    
    32   15  140 1    
    33   16   17 1    
    34   17   18 1    
    35   17  141 1    
    36   17  142 1    
    37   18   19 1    
    38   18   67 1    
    39   18  143 1    
    40   19   20 am   BACKBONE|DICT|INTERRES
    41   19  144 1    
    42   20   21 2    
    43   20   22 1    
    44   22   23 1    
    45   22   24 1    
    46   22  145 1    
    47   23  146 1    
    48   23  147 1    
    49   23  148 1    
    50   24   25 am   BACKBONE|DICT|INTERRES
    51   24  149 1    
    52   25   26 2    
    53   25   27 1    
    54   27   28 1    
    55   27   29 1    
    56   27  150 1    
    57   28  151 1    
    58   28  152 1    
    59   28  153 1    
    60   29   30 am   BACKBONE|DICT|INTERRES
    61   29  154 1    
    62   30   31 2    
    63   30   32 1    
    64   32   33 1    
    65   32   34 1    
    66   32  155 1    
    67   33  156 1    
    68   33  157 1    
    69   33  158 1    
    70   34   35 am   BACKBONE|DICT|INTERRES
    71   34  159 1    
    72   35   36 2    
    73   35   37 1    
    74   37   38 1    
    75   37   39 1    
    76   37  160 1    
    77   38  161 1    
    78   38  162 1    
    79   38  163 1    
    80   39   40 am   BACKBONE|DICT|INTERRES
    81   39  164 1    
    82   40   41 2    
    83   40   42 1    
    84   42   43 1    
    85   42   44 1    
    86   42  165 1    
    87   43  166 1    
    88   43  167 1    
    89   43  168 1    
    90   44   45 am   BACKBONE|DICT|INTERRES
    91   44  169 1    
    92   45   46 2    
    93   45   47 1    
    94   47   48 1    
    95   47   49 1    
    96   47  170 1    
    97   48  171 1    
    98   48  172 1    
    99   48  173 1    
   100   49   50 am   BACKBONE|DICT|INTERRES
   101   49  174 1    
   102   50   51 2    
   103   50   52 1    
   104   52   53 1    
   105   52   54 1    
   106   52  175 1    
   107   53  176 1    
   108   53  177 1    
   109   53  178 1    
   110   54   55 am   BACKBONE|DICT|INTERRES
   111   54  179 1    
   112   55   56 2    
   113   55   57 1    
   114   57   58 1    
   115   57   59 1    
   116   57  180 1    
   117   58  181 1    
   118   58  182 1    
   119   58  183 1    
   120   59   60 am   BACKBONE|DICT|INTERRES
   121   59  184 1    
   122   60   61 2    
   123   60   62 1    
   124   62   63 1    
   125   62   64 1    
   126   62  185 1    
   127   63  186 1    
   128   63  187 1    
   129   63  188 1    
   130   64   65 am   BACKBONE|DICT|INTERRES
   131   64  189 1    
   132   65   66 2    
   133   67   68 2    
   134   67   69 am   BACKBONE|DICT|INTERRES
   135   69   70 1    
   136   69  190 1    
   137   70   71 1    
   138   70   72 1    
   139   70  191 1    
   140   71  192 1    
   141   71  193 1    
   142   71  194 1    
   143   72   73 2    
   144   72   74 am   BACKBONE|DICT|INTERRES
   145   74   75 1    
   146   74  195 1    
   147   75   76 1    
   148   75   77 1    
   149   75  196 1    
   150   76  197 1    
   151   76  198 1    
   152   76  199 1    
   153   77   78 2    
   154   77   79 am   BACKBONE|DICT|INTERRES
   155   79   80 1    
   156   79  200 1    
   157   80   81 1    
   158   80   82 1    
   159   80  201 1    
   160   81  202 1    
   161   81  203 1    
   162   81  204 1    
   163   82   83 2    
   164   82   84 am   BACKBONE|DICT|INTERRES
   165   84   85 1    
   166   84  205 1    
   167   85   86 1    
   168   85   87 1    
   169   85  206 1    
   170   86  207 1    
   171   86  208 1    
   172   86  209 1    
   173   87   88 2    
   174   87   89 am   BACKBONE|DICT|INTERRES
   175   89   90 1    
   176   89  210 1    
   177   90   91 1    
   178   90   92 1    
   179   90  211 1    
   180   91  212 1    
   181   91  213 1    
   182   91  214 1    
   183   92   93 2    
   184   92   94 am   BACKBONE|DICT|INTERRES
   185   94   95 1    
   186   94  215 1    
   187   95   96 1    
   188   95   97 1    
   189   95  216 1    
   190   96  217 1    
   191   96  218 1    
   192   96  219 1    
   193   97   98 2    
   194   97   99 am   BACKBONE|DICT|INTERRES
   195   99  100 1    
   196   99  220 1    
   197  100  101 1    
   198  100  102 1    
   199  100  221 1    
   200  101  222 1    
   201  101  223 1    
   202  101  224 1    
   203  102  103 2    
   204  102  104 am   BACKBONE|DICT|INTERRES
   205  104  105 1    
   206  104  225 1    
   207  105  106 1    
   208  105  107 1    
   209  105  226 1    
   210  106  227 1    
   211  106  228 1    
   212  106  229 1    
   213  107  108 2    
   214  107  109 am   BACKBONE|DICT|INTERRES
   215  109  110 1    
   216  109  230 1    
   217  110  111 1    
   218  110  112 1    
   219  110  231 1    
   220  111  232 1    
   221  111  233 1    
   222  111  234 1    
   223  112  113 2    
   224  112  114 am   BACKBONE|DICT|INTERRES
   225  114  115 1    
   226  114  235 1    
   227  115  116 1    
   228  115  117 1    
   229  115  236 1    
   230  116  237 1    
   231  116  238 1    
   232  116  239 1    
   233  117  118 2    
   234  117  119 am   BACKBONE|DICT|INTERRES
   235  119  120 1    
   236  119  240 1    
   237  120  121 1    
   238  120  124 1    
   239  120  241 1    
   240  121  122 am   BACKBONE|DICT|INTERRES
   241  121  123 2    
   242  122  242 1    
   243  122  243 1    
   244  124  125 1    
   245  124  244 1    
   246  124  245 1    
   247  125  126 1    
   248  126  246 1    
   249  126  247 1    
@<TRIPOS>SUBSTRUCTURE
     1 UNK         1 GROUP             0       ****    0 ROOT    
