@<TRIPOS>MOLECULE
3R540
247   249    1
SMALL
USER_CHARGES


@<TRIPOS>ATOM
      1 CA          4.4318  -11.9512  -46.4336 C.3       0 UNK        -0.1800 
      2 C           5.3556  -13.0927  -46.8328 C.2       0 UNK         0.5000 
      3 O           6.5294  -13.0891  -46.4639 O.2       0 UNK        -0.5000 
      4 N           4.8241  -14.0595  -47.5930 N.am      1 UNK        -0.5000 
      5 CA          5.5330  -15.2403  -48.1036 C.3       1 UNK         0.1400 
      6 C6          4.6574  -16.0243  -49.1133 C.3       23 UNK        -0.0398 
      7 S7          5.6338  -16.9323  -50.3577 S.3       23 UNK        -0.2404 
      8 C8          4.8727  -16.3602  -51.9134 C.3       23 UNK        -0.0205 
      9 C9          3.3959  -16.7245  -51.9970 C.ar      23 UNK        -0.0193 
     10 C10         2.4141  -15.7304  -51.9210 C.ar      23 UNK        -0.1150 
     11 C11         1.0585  -16.0665  -51.9830 C.ar      23 UNK        -0.0193 
     12 C12         0.6873  -17.4071  -52.1170 C.ar      23 UNK        -0.1150 
     13 C13         1.6579  -18.4084  -52.1922 C.ar      23 UNK        -0.0193 
     14 C14         3.0107  -18.0598  -52.1451 C.ar      23 UNK        -0.1150 
     15 C15         1.2443  -19.8646  -52.3298 C.3       23 UNK        -0.0205 
     16 S16         1.6817  -20.8408  -50.8581 S.3       23 UNK        -0.2404 
     17 C17         0.5968  -20.1231  -49.5755 C.3       23 UNK        -0.0398 
     18 CA          0.0801  -21.2116  -48.6014 C.3       11 UNK         0.1400 
     19 N          -0.0676  -20.7184  -47.2291 N.am      11 UNK        -0.5000 
     20 C          -0.0921  -21.5294  -46.1611 C.2       10 UNK         0.5000 
     21 O          -0.0086  -22.7565  -46.2353 O.2       10 UNK        -0.5000 
     22 CA         -0.2669  -20.8681  -44.7844 C.3       10 UNK         0.1400 
     23 CB          1.0405  -20.2000  -44.3310 C.3       10 UNK        -0.1800 
     24 N          -1.3557  -19.8925  -44.7384 N.am      10 UNK        -0.5000 
     25 C          -2.6498  -20.1705  -44.9499 C.2       9 UNK         0.5000 
     26 O          -3.0643  -21.2745  -45.2967 O.2       9 UNK        -0.5000 
     27 CA         -3.6466  -19.0185  -44.7570 C.3       9 UNK         0.1400 
     28 CB         -3.8818  -18.7385  -43.2645 C.3       9 UNK        -0.1800 
     29 N          -3.1660  -17.8072  -45.4122 N.am      9 UNK        -0.5000 
     30 C          -3.3893  -17.5099  -46.6985 C.2       8 UNK         0.5000 
     31 O          -4.1045  -18.1754  -47.4449 O.2       8 UNK        -0.5000 
     32 CA         -2.6847  -16.2644  -47.2592 C.3       8 UNK         0.1400 
     33 CB         -3.6021  -15.0370  -47.1580 C.3       8 UNK        -0.1800 
     34 N          -1.4134  -15.9732  -46.5989 N.am      8 UNK        -0.5000 
     35 C          -0.3195  -16.7443  -46.6831 C.2       7 UNK         0.5000 
     36 O          -0.2650  -17.8024  -47.3111 O.2       7 UNK        -0.5000 
     37 CA          0.9113  -16.2771  -45.8849 C.3       7 UNK         0.1400 
     38 CB          1.7177  -15.2698  -46.7144 C.3       7 UNK        -0.1800 
     39 N           0.5955  -15.6767  -44.5856 N.am      7 UNK        -0.5000 
     40 C          -0.1607  -16.2314  -43.6263 C.2       6 UNK         0.5000 
     41 O          -0.6586  -17.3534  -43.7114 O.2       6 UNK        -0.5000 
     42 CA         -0.4546  -15.3765  -42.3816 C.3       6 UNK         0.1400 
     43 CB          0.5889  -15.6549  -41.2926 C.3       6 UNK        -0.1800 
     44 N          -0.4962  -13.9372  -42.6448 N.am      6 UNK        -0.5000 
     45 C          -1.3239  -13.3040  -43.4857 C.2       5 UNK         0.5000 
     46 O          -2.1618  -13.8833  -44.1776 O.2       5 UNK        -0.5000 
     47 CA         -1.1736  -11.7727  -43.6080 C.3       5 UNK         0.1400 
     48 CB         -2.0055  -11.0440  -42.5357 C.3       5 UNK        -0.1800 
     49 N           0.2190  -11.2975  -43.6331 N.am      5 UNK        -0.5000 
     50 C           1.1398  -11.3313  -42.6596 C.2       4 UNK         0.5000 
     51 O           0.9280  -11.7370  -41.5145 O.2       4 UNK        -0.5000 
     52 CA          2.5603  -10.8864  -43.0539 C.3       4 UNK         0.1400 
     53 CB          2.9225   -9.5555  -42.3780 C.3       4 UNK        -0.1800 
     54 N           3.5719  -11.8917  -42.7154 N.am      4 UNK        -0.5000 
     55 C           3.5690  -13.1624  -43.1383 C.2       3 UNK         0.5000 
     56 O           2.6968  -13.6439  -43.8721 O.2       3 UNK        -0.5000 
     57 CA          4.7489  -14.0389  -42.6904 C.3       3 UNK         0.1400 
     58 CB          4.6319  -14.4409  -41.2080 C.3       3 UNK        -0.1800 
     59 N           4.7486  -15.2137  -43.5497 N.am      3 UNK        -0.5000 
     60 C           5.7093  -16.1315  -43.6930 C.2       2 UNK         0.5000 
     61 O           6.7578  -16.1480  -43.0480 O.2       2 UNK        -0.5000 
     62 CA          5.4562  -17.1827  -44.7861 C.3       2 UNK         0.1400 
     63 CB          4.3018  -18.1231  -44.3959 C.3       2 UNK        -0.1800 
     64 N           5.1369  -16.5092  -46.0458 N.am      2 UNK        -0.5000 
     65 C           6.0452  -16.1473  -46.9628 C.2       1 UNK         0.5000 
     66 O           7.2353  -16.4623  -46.9157 O.2       1 UNK        -0.5000 
     67 C          -1.2043  -21.9047  -49.1027 C.2       11 UNK         0.5000 
     68 O          -1.1104  -22.8613  -49.8711 O.2       11 UNK        -0.5000 
     69 N          -2.3733  -21.4671  -48.6081 N.am      12 UNK        -0.5000 
     70 CA         -3.6542  -22.1218  -48.8664 C.3       12 UNK         0.1400 
     71 CB         -4.8178  -21.2224  -48.4324 C.3       12 UNK        -0.1800 
     72 C          -3.7408  -23.4974  -48.1894 C.2       12 UNK         0.5000 
     73 O          -4.1341  -24.4640  -48.8387 O.2       12 UNK        -0.5000 
     74 N          -3.3288  -23.5831  -46.9164 N.am      13 UNK        -0.5000 
     75 CA         -3.2744  -24.8210  -46.1338 C.3       13 UNK         0.1400 
     76 CB         -2.8580  -24.5029  -44.6906 C.3       13 UNK        -0.1800 
     77 C          -2.3471  -25.8867  -46.7465 C.2       13 UNK         0.5000 
     78 O          -2.6789  -27.0717  -46.7067 O.2       13 UNK        -0.5000 
     79 N          -1.2440  -25.4464  -47.3683 N.am      14 UNK        -0.5000 
     80 CA         -0.3285  -26.2895  -48.1432 C.3       14 UNK         0.1400 
     81 CB          0.9262  -25.4774  -48.4987 C.3       14 UNK        -0.1800 
     82 C          -0.9667  -26.9002  -49.4120 C.2       14 UNK         0.5000 
     83 O          -0.4874  -27.9289  -49.8894 O.2       14 UNK        -0.5000 
     84 N          -2.0458  -26.2836  -49.9120 N.am      15 UNK        -0.5000 
     85 CA         -2.8755  -26.7565  -51.0212 C.3       15 UNK         0.1400 
     86 CB         -3.0873  -25.5909  -52.0024 C.3       15 UNK        -0.1800 
     87 C          -4.2234  -27.3211  -50.5214 C.2       15 UNK         0.5000 
     88 O          -5.1669  -27.4215  -51.3073 O.2       15 UNK        -0.5000 
     89 N          -4.3122  -27.6502  -49.2215 N.am      16 UNK        -0.5000 
     90 CA         -5.4795  -28.1948  -48.5142 C.3       16 UNK         0.1400 
     91 CB         -5.7846  -29.6255  -49.0043 C.3       16 UNK        -0.1800 
     92 C          -6.7233  -27.2772  -48.5511 C.2       16 UNK         0.5000 
     93 O          -7.8500  -27.7672  -48.4612 O.2       16 UNK        -0.5000 
     94 N          -6.4930  -25.9639  -48.6974 N.am      17 UNK        -0.5000 
     95 CA         -7.4692  -24.8800  -48.8437 C.3       17 UNK         0.1400 
     96 CB         -8.3342  -24.7381  -47.5746 C.3       17 UNK        -0.1800 
     97 C          -8.3099  -24.9523  -50.1374 C.2       17 UNK         0.5000 
     98 O          -9.3233  -24.2585  -50.2377 O.2       17 UNK        -0.5000 
     99 N          -7.8792  -25.7618  -51.1165 N.am      18 UNK        -0.5000 
    100 CA        -8.5413  -25.9066  -52.4148 C.3       18 UNK         0.1400 
    101 CB        -8.1382  -27.2541  -53.0329 C.3       18 UNK        -0.1800 
    102 C         -8.2123  -24.7526  -53.3812 C.2       18 UNK         0.5000 
    103 O         -8.9909  -24.4891  -54.2985 O.2       18 UNK        -0.5000 
    104 N         -7.0703  -24.0931  -53.1609 N.am      19 UNK        -0.5000 
    105 CA        -6.5222  -22.9893  -53.9410 C.3       19 UNK         0.1400 
    106 CB        -6.0365  -23.4993  -55.3169 C.3       19 UNK        -0.1800 
    107 C         -5.3852  -22.3510  -53.1212 C.2       19 UNK         0.5000 
    108 O         -5.2746  -22.6236  -51.9241 O.2       19 UNK        -0.5000 
    109 N         -4.5521  -21.5373  -53.7857 N.am      20 UNK        -0.5000 
    110 CA        -3.2770  -20.9793  -53.3109 C.3       20 UNK         0.1400 
    111 CB        -2.2874  -22.1083  -52.9575 C.3       20 UNK        -0.1800 
    112 C         -3.3824  -19.9150  -52.1970 C.2       20 UNK         0.5000 
    113 O         -2.3622  -19.5533  -51.6107 O.2       20 UNK        -0.5000 
    114 N         -4.5881  -19.3873  -51.9530 N.am      21 UNK        -0.5000 
    115 CA        -4.8093  -18.2213  -51.0975 C.3       21 UNK         0.1400 
    116 CB        -6.2883  -18.1763  -50.6839 C.3       21 UNK        -0.1800 
    117 C         -4.4113  -16.9280  -51.8332 C.2       21 UNK         0.5000 
    118 O         -4.5795  -16.8440  -53.0528 O.2       21 UNK        -0.5000 
    119 N         -3.9153  -15.9379  -51.0822 N.am      22 UNK        -0.5000 
    120 CA        -3.4683  -14.6381  -51.6197 C.3       22 UNK         0.1400 
    121 C         -4.6165  -13.6255  -51.9079 C.2       22 UNK         0.5000 
    122 N         -5.8619  -13.9025  -51.5409 N.am      22 UNK        -0.7600 
    123 O         -4.3735  -12.5690  -52.4844 O.2       22 UNK        -0.5000 
    124 C124       -2.3593  -13.9801  -50.7533 C.3       23 UNK        -0.0398 
    125 S125       -0.9612  -15.0903  -50.3748 S.3       23 UNK        -0.2404 
    126 C126       -0.0125  -14.9899  -51.9224 C.3       23 UNK        -0.0205 
    127 H127        4.4835  -11.1508  -47.1715 H         1 UNK         0.0600 
    128 H128        3.3966  -12.2848  -46.3561 H         1 UNK         0.0600 
    129 H129        4.7286  -11.5418  -45.4684 H         1 UNK         0.0600 
    130 H130        3.8611  -13.9673  -47.8803 H         1 UNK         0.3000 
    131 H131        6.4082  -14.8587  -48.6345 H         1 UNK         0.0600 
    132 H132        3.9835  -16.7257  -48.6186 H         1 UNK         0.0800 
    133 H133        4.0095  -15.3248  -49.6409 H         1 UNK         0.0800 
    134 H134        5.0146  -15.2825  -52.0087 H         1 UNK         0.0800 
    135 H135        5.4012  -16.8133  -52.7533 H         1 UNK         0.0800 
    136 H136        2.7047  -14.6949  -51.8126 H         1 UNK         0.1150 
    137 H137       -0.3616  -17.6687  -52.1549 H         1 UNK         0.1150 
    138 H138        3.7651  -18.8322  -52.2008 H         1 UNK         0.1150 
    139 H139        0.1734  -19.9466  -52.5144 H         1 UNK         0.0800 
    140 H140        1.7403  -20.2955  -53.2004 H         1 UNK         0.0800 
    141 H141       -0.2237  -19.5613  -50.0248 H         1 UNK         0.0800 
    142 H142        1.1985  -19.3874  -49.0400 H         1 UNK         0.0800 
    143 H143        0.8440  -21.9918  -48.5535 H         1 UNK         0.0600 
    144 H144       -0.1609  -19.7126  -47.1100 H         1 UNK         0.3000 
    145 H145       -0.5073  -21.6576  -44.0694 H         1 UNK         0.0600 
    146 H146        0.9473  -19.7906  -43.3249 H         1 UNK         0.0600 
    147 H147        1.8621  -20.9172  -44.3161 H         1 UNK         0.0600 
    148 H148        1.3274  -19.3867  -44.9968 H         1 UNK         0.0600 
    149 H149       -1.1045  -18.9544  -44.4338 H         1 UNK         0.3000 
    150 H150       -4.6010  -19.3195  -45.1948 H         1 UNK         0.0600 
    151 H151       -4.2554  -19.6284  -42.7565 H         1 UNK         0.0600 
    152 H152       -4.6215  -17.9500  -43.1252 H         1 UNK         0.0600 
    153 H153       -2.9670  -18.4312  -42.7567 H         1 UNK         0.0600 
    154 H154       -2.5203  -17.2329  -44.8862 H         1 UNK         0.3000 
    155 H155       -2.4778  -16.4582  -48.3122 H         1 UNK         0.0600 
    156 H156       -3.1107  -14.1408  -47.5350 H         1 UNK         0.0600 
    157 H157       -3.8972  -14.8420  -46.1261 H         1 UNK         0.0600 
    158 H158       -4.5145  -15.1810  -47.7379 H         1 UNK         0.0600 
    159 H159       -1.3869  -15.1514  -46.0093 H         1 UNK         0.3000 
    160 H160        1.5352  -17.1523  -45.7031 H         1 UNK         0.0600 
    161 H161        1.1535  -14.3527  -46.8892 H         1 UNK         0.0600 
    162 H162        1.9779  -15.6837  -47.6892 H         1 UNK         0.0600 
    163 H163        2.6404  -14.9985  -46.2062 H         1 UNK         0.0600 
    164 H164        1.0038  -14.7675  -44.3969 H         1 UNK         0.3000 
    165 H165       -1.4358  -15.6718  -42.0051 H         1 UNK         0.0600 
    166 H166        1.5844  -15.3572  -41.6192 H         1 UNK         0.0600 
    167 H167        0.3593  -15.1132  -40.3748 H         1 UNK         0.0600 
    168 H168        0.6259  -16.7168  -41.0452 H         1 UNK         0.0600 
    169 H169        0.1524  -13.3573  -42.1198 H         1 UNK         0.3000 
    170 H170       -1.5905  -11.5008  -44.5791 H         1 UNK         0.0600 
    171 H171       -3.0587  -11.3172  -42.6120 H         1 UNK         0.0600 
    172 H172       -1.6804  -11.2915  -41.5249 H         1 UNK         0.0600 
    173 H173       -1.9411   -9.9625  -42.6542 H         1 UNK         0.0600 
    174 H174        0.5244  -10.9736  -44.5403 H         1 UNK         0.3000 
    175 H175        2.5959  -10.7393  -44.1351 H         1 UNK         0.0600 
    176 H176        3.8997   -9.1992  -42.7045 H         1 UNK         0.0600 
    177 H177        2.1956   -8.7810  -42.6261 H         1 UNK         0.0600 
    178 H178        2.9441   -9.6493  -41.2914 H         1 UNK         0.0600 
    179 H179        4.3093  -11.5865  -42.0975 H         1 UNK         0.3000 
    180 H180        5.6738  -13.4822  -42.8533 H         1 UNK         0.0600 
    181 H181        3.7683  -15.0796  -41.0285 H         1 UNK         0.0600 
    182 H182        4.5330  -13.5648  -40.5663 H         1 UNK         0.0600 
    183 H183        5.5168  -14.9825  -40.8743 H         1 UNK         0.0600 
    184 H184        3.9174  -15.2586  -44.1242 H         1 UNK         0.3000 
    185 H185        6.3592  -17.7862  -44.9013 H         1 UNK         0.0600 
    186 H186        4.1161  -18.8629  -45.1747 H         1 UNK         0.0600 
    187 H187        4.5398  -18.6681  -43.4817 H         1 UNK         0.0600 
    188 H188        3.3712  -17.5837  -44.2182 H         1 UNK         0.0600 
    189 H189        4.1890  -16.1910  -46.1636 H         1 UNK         0.3000 
    190 H190       -2.3740  -20.6957  -47.9574 H         1 UNK         0.3000 
    191 H191       -3.7335  -22.2772  -49.9420 H         1 UNK         0.0600 
    192 H192       -4.7967  -20.2772  -48.9703 H         1 UNK         0.0600 
    193 H193       -5.7768  -21.6940  -48.6491 H         1 UNK         0.0600 
    194 H194       -4.7907  -21.0021  -47.3653 H         1 UNK         0.0600 
    195 H195       -3.0657  -22.7307  -46.4261 H         1 UNK         0.3000 
    196 H196       -4.2831  -25.2389  -46.1124 H         1 UNK         0.0600 
    197 H197       -2.8182  -25.4092  -44.0851 H         1 UNK         0.0600 
    198 H198       -3.5690  -23.8264  -44.2161 H         1 UNK         0.0600 
    199 H199       -1.8738  -24.0353  -44.6495 H         1 UNK         0.0600 
    200 H200       -1.0260  -24.4582  -47.3210 H         1 UNK         0.3000 
    201 H201       -0.0230  -27.1194  -47.5028 H         1 UNK         0.0600 
    202 H202        1.4027  -25.0736  -47.6051 H         1 UNK         0.0600 
    203 H203        0.6934  -24.6432  -49.1599 H         1 UNK         0.0600 
    204 H204        1.6626  -26.1008  -49.0071 H         1 UNK         0.0600 
    205 H205       -2.3899  -25.4518  -49.4456 H         1 UNK         0.3000 
    206 H206       -2.3705  -27.5626  -51.5563 H         1 UNK         0.0600 
    207 H207       -2.1347  -25.1865  -52.3444 H         1 UNK         0.0600 
    208 H208       -3.6408  -25.9091  -52.8866 H         1 UNK         0.0600 
    209 H209       -3.6480  -24.7794  -51.5382 H         1 UNK         0.0600 
    210 H210       -3.4997  -27.4909  -48.6376 H         1 UNK         0.3000 
    211 H211       -5.1904  -28.2615  -47.4645 H         1 UNK         0.0600 
    212 H212       -6.1471  -29.6319  -50.0328 H         1 UNK         0.0600 
    213 H213       -6.5481  -30.0986  -48.3858 H         1 UNK         0.0600 
    214 H214       -4.8966  -30.2559  -48.9575 H         1 UNK         0.0600 
    215 H215       -5.5250  -25.6577  -48.7784 H         1 UNK         0.3000 
    216 H216       -6.8799  -23.9671  -48.9354 H         1 UNK         0.0600 
    217 H217       -7.7135  -24.6715  -46.6810 H         1 UNK         0.0600 
    218 H218       -9.0147  -25.5806  -47.4503 H         1 UNK         0.0600 
    219 H219       -8.9411  -23.8329  -47.6133 H         1 UNK         0.0600 
    220 H220       -7.0343  -26.3037  -50.9741 H         1 UNK         0.3000 
    221 H221       -9.6225  -25.9157  -52.2611 H         1 UNK         0.0600 
    222 H222       -7.0701  -27.2940  -53.2497 H         1 UNK         0.0600 
    223 H223       -8.3759  -28.0825  -52.3652 H         1 UNK         0.0600 
    224 H224       -8.6689  -27.4276  -53.9698 H         1 UNK         0.0600 
    225 H225       -6.5196  -24.3232  -52.3429 H         1 UNK         0.3000 
    226 H226       -7.2998  -22.2362  -54.0808 H         1 UNK         0.0600 
    227 H227       -6.8337  -23.9999  -55.8659 H         1 UNK         0.0600 
    228 H228       -5.6919  -22.6816  -55.9502 H         1 UNK         0.0600 
    229 H229       -5.2132  -24.2071  -55.2112 H         1 UNK         0.0600 
    230 H230       -4.7557  -21.3548  -54.7585 H         1 UNK         0.3000 
    231 H231       -2.8578  -20.4490  -54.1670 H         1 UNK         0.0600 
    232 H232       -1.2922  -21.7190  -52.7474 H         1 UNK         0.0600 
    233 H233       -2.1887  -22.8203  -53.7766 H         1 UNK         0.0600 
    234 H234       -2.6068  -22.6572  -52.0733 H         1 UNK         0.0600 
    235 H235       -5.3708  -19.7057  -52.5034 H         1 UNK         0.3000 
    236 H236       -4.1966  -18.3187  -50.1989 H         1 UNK         0.0600 
    237 H237       -6.4751  -17.3516  -49.9951 H         1 UNK         0.0600 
    238 H238       -6.9444  -18.0429  -51.5450 H         1 UNK         0.0600 
    239 H239       -6.5855  -19.0940  -50.1762 H         1 UNK         0.0600 
    240 H240       -3.8092  -16.0708  -50.0888 H         1 UNK         0.3000 
    241 H241       -3.0217  -14.8326  -52.5961 H         1 UNK         0.0600 
    242 H242       -6.0813  -14.7679  -51.0757 H         1 UNK         0.3800 
    243 H243       -6.5954  -13.2398  -51.7387 H         1 UNK         0.3800 
    244 H244       -1.9654  -13.0893  -51.2460 H         1 UNK         0.0800 
    245 H245       -2.7779  -13.6359  -49.8075 H         1 UNK         0.0800 
    246 H246       -0.6795  -15.1140  -52.7759 H         1 UNK         0.0800 
    247 H247        0.4269  -13.9952  -52.0117 H         1 UNK         0.0800 
@<TRIPOS>BOND
     1    1    2 1    
     2    1  127 1    
     3    1  128 1    
     4    1  129 1    
     5    2    3 2    
     6    2    4 am   BACKBONE|DICT|INTERRES
     7    4    5 1    
     8    4  130 1    
     9    5    6 1    
    10    5   65 1    
    11    5  131 1    
    12    6    7 1    
    13    6  132 1    
    14    6  133 1    
    15    7    8 1    
    16    8    9 1    
    17    8  134 1    
    18    8  135 1    
    19    9   10 ar   
    20    9   14 ar   
    21   10   11 ar   
    22   10  136 1    
    23   11   12 ar   
    24   11  126 1    
    25   12   13 ar   
    26   12  137 1    
    27   13   14 ar   
    28   13   15 1    
    29   14  138 1    
    30   15   16 1    
    31   15  139 1    
    32   15  140 1    
    33   16   17 1    
    34   17   18 1    
    35   17  141 1    
    36   17  142 1    
    37   18   19 1    
    38   18   67 1    
    39   18  143 1    
    40   19   20 am   BACKBONE|DICT|INTERRES
    41   19  144 1    
    42   20   21 2    
    43   20   22 1    
    44   22   23 1    
    45   22   24 1    
    46   22  145 1    
    47   23  146 1    
    48   23  147 1    
    49   23  148 1    
    50   24   25 am   BACKBONE|DICT|INTERRES
    51   24  149 1    
    52   25   26 2    
    53   25   27 1    
    54   27   28 1    
    55   27   29 1    
    56   27  150 1    
    57   28  151 1    
    58   28  152 1    
    59   28  153 1    
    60   29   30 am   BACKBONE|DICT|INTERRES
    61   29  154 1    
    62   30   31 2    
    63   30   32 1    
    64   32   33 1    
    65   32   34 1    
    66   32  155 1    
    67   33  156 1    
    68   33  157 1    
    69   33  158 1    
    70   34   35 am   BACKBONE|DICT|INTERRES
    71   34  159 1    
    72   35   36 2    
    73   35   37 1    
    74   37   38 1    
    75   37   39 1    
    76   37  160 1    
    77   38  161 1    
    78   38  162 1    
    79   38  163 1    
    80   39   40 am   BACKBONE|DICT|INTERRES
    81   39  164 1    
    82   40   41 2    
    83   40   42 1    
    84   42   43 1    
    85   42   44 1    
    86   42  165 1    
    87   43  166 1    
    88   43  167 1    
    89   43  168 1    
    90   44   45 am   BACKBONE|DICT|INTERRES
    91   44  169 1    
    92   45   46 2    
    93   45   47 1    
    94   47   48 1    
    95   47   49 1    
    96   47  170 1    
    97   48  171 1    
    98   48  172 1    
    99   48  173 1    
   100   49   50 am   BACKBONE|DICT|INTERRES
   101   49  174 1    
   102   50   51 2    
   103   50   52 1    
   104   52   53 1    
   105   52   54 1    
   106   52  175 1    
   107   53  176 1    
   108   53  177 1    
   109   53  178 1    
   110   54   55 am   BACKBONE|DICT|INTERRES
   111   54  179 1    
   112   55   56 2    
   113   55   57 1    
   114   57   58 1    
   115   57   59 1    
   116   57  180 1    
   117   58  181 1    
   118   58  182 1    
   119   58  183 1    
   120   59   60 am   BACKBONE|DICT|INTERRES
   121   59  184 1    
   122   60   61 2    
   123   60   62 1    
   124   62   63 1    
   125   62   64 1    
   126   62  185 1    
   127   63  186 1    
   128   63  187 1    
   129   63  188 1    
   130   64   65 am   BACKBONE|DICT|INTERRES
   131   64  189 1    
   132   65   66 2    
   133   67   68 2    
   134   67   69 am   BACKBONE|DICT|INTERRES
   135   69   70 1    
   136   69  190 1    
   137   70   71 1    
   138   70   72 1    
   139   70  191 1    
   140   71  192 1    
   141   71  193 1    
   142   71  194 1    
   143   72   73 2    
   144   72   74 am   BACKBONE|DICT|INTERRES
   145   74   75 1    
   146   74  195 1    
   147   75   76 1    
   148   75   77 1    
   149   75  196 1    
   150   76  197 1    
   151   76  198 1    
   152   76  199 1    
   153   77   78 2    
   154   77   79 am   BACKBONE|DICT|INTERRES
   155   79   80 1    
   156   79  200 1    
   157   80   81 1    
   158   80   82 1    
   159   80  201 1    
   160   81  202 1    
   161   81  203 1    
   162   81  204 1    
   163   82   83 2    
   164   82   84 am   BACKBONE|DICT|INTERRES
   165   84   85 1    
   166   84  205 1    
   167   85   86 1    
   168   85   87 1    
   169   85  206 1    
   170   86  207 1    
   171   86  208 1    
   172   86  209 1    
   173   87   88 2    
   174   87   89 am   BACKBONE|DICT|INTERRES
   175   89   90 1    
   176   89  210 1    
   177   90   91 1    
   178   90   92 1    
   179   90  211 1    
   180   91  212 1    
   181   91  213 1    
   182   91  214 1    
   183   92   93 2    
   184   92   94 am   BACKBONE|DICT|INTERRES
   185   94   95 1    
   186   94  215 1    
   187   95   96 1    
   188   95   97 1    
   189   95  216 1    
   190   96  217 1    
   191   96  218 1    
   192   96  219 1    
   193   97   98 2    
   194   97   99 am   BACKBONE|DICT|INTERRES
   195   99  100 1    
   196   99  220 1    
   197  100  101 1    
   198  100  102 1    
   199  100  221 1    
   200  101  222 1    
   201  101  223 1    
   202  101  224 1    
   203  102  103 2    
   204  102  104 am   BACKBONE|DICT|INTERRES
   205  104  105 1    
   206  104  225 1    
   207  105  106 1    
   208  105  107 1    
   209  105  226 1    
   210  106  227 1    
   211  106  228 1    
   212  106  229 1    
   213  107  108 2    
   214  107  109 am   BACKBONE|DICT|INTERRES
   215  109  110 1    
   216  109  230 1    
   217  110  111 1    
   218  110  112 1    
   219  110  231 1    
   220  111  232 1    
   221  111  233 1    
   222  111  234 1    
   223  112  113 2    
   224  112  114 am   BACKBONE|DICT|INTERRES
   225  114  115 1    
   226  114  235 1    
   227  115  116 1    
   228  115  117 1    
   229  115  236 1    
   230  116  237 1    
   231  116  238 1    
   232  116  239 1    
   233  117  118 2    
   234  117  119 am   BACKBONE|DICT|INTERRES
   235  119  120 1    
   236  119  240 1    
   237  120  121 1    
   238  120  124 1    
   239  120  241 1    
   240  121  122 am   BACKBONE|DICT|INTERRES
   241  121  123 2    
   242  122  242 1    
   243  122  243 1    
   244  124  125 1    
   245  124  244 1    
   246  124  245 1    
   247  125  126 1    
   248  126  246 1    
   249  126  247 1    
@<TRIPOS>SUBSTRUCTURE
     1 UNK         1 GROUP             0       ****    0 ROOT    
