@<TRIPOS>MOLECULE
3R540
247   249    1
SMALL
USER_CHARGES


@<TRIPOS>ATOM
      1 CA         -4.3719  -16.2893  -44.8018 C.3       0 UNK        -0.1800 
      2 C          -4.1385  -14.8050  -44.5522 C.2       0 UNK         0.5000 
      3 O          -4.2923  -14.3394  -43.4233 O.2       0 UNK        -0.5000 
      4 N          -3.7691  -14.0631  -45.6025 N.am      1 UNK        -0.5000 
      5 CA         -3.4058  -12.6458  -45.5543 C.3       1 UNK         0.1400 
      6 C6         -3.3467  -12.0207  -46.9707 C.3       23 UNK        -0.0398 
      7 S7         -4.9769  -11.8656  -47.7798 S.3       23 UNK        -0.2404 
      8 C8         -5.2516  -13.4932  -48.5592 C.3       23 UNK        -0.0205 
      9 C9         -4.0909  -13.9572  -49.4289 C.ar      23 UNK        -0.0193 
     10 C10        -3.8555  -13.3662  -50.6750 C.ar      23 UNK        -0.1150 
     11 C11        -2.8111  -13.8122  -51.4943 C.ar      23 UNK        -0.0193 
     12 C12        -2.0034  -14.8624  -51.0465 C.ar      23 UNK        -0.1150 
     13 C13        -2.2208  -15.4522  -49.8012 C.ar      23 UNK        -0.0193 
     14 C14        -3.2684  -15.0018  -48.9980 C.ar      23 UNK        -0.1150 
     15 C15        -1.3292  -16.5893  -49.3419 C.3       23 UNK        -0.0205 
     16 S16        -1.9873  -18.1850  -49.8951 S.3       23 UNK        -0.2404 
     17 C17        -3.1456  -18.6115  -48.5540 C.3       23 UNK        -0.0398 
     18 CA         -3.1214  -20.1324  -48.2937 C.3       11 UNK         0.1400 
     19 N          -1.8180  -20.6053  -47.8176 N.am      11 UNK        -0.5000 
     20 C          -1.4201  -21.8821  -47.8748 C.2       10 UNK         0.5000 
     21 O          -2.0884  -22.7784  -48.3831 O.2       10 UNK        -0.5000 
     22 CA         -0.0630  -22.2237  -47.2366 C.3       10 UNK         0.1400 
     23 CB          1.0852  -21.9965  -48.2328 C.3       10 UNK        -0.1800 
     24 N           0.1779  -21.4652  -46.0076 N.am      10 UNK        -0.5000 
     25 C          -0.5032  -21.6483  -44.8670 C.2       9 UNK         0.5000 
     26 O          -1.3830  -22.4955  -44.7299 O.2       9 UNK        -0.5000 
     27 CA         -0.1825  -20.7022  -43.6963 C.3       9 UNK         0.1400 
     28 CB          1.0261  -21.2147  -42.8999 C.3       9 UNK        -0.1800 
     29 N           0.0728  -19.3322  -44.1354 N.am      9 UNK        -0.5000 
     30 C          -0.8413  -18.5275  -44.6968 C.2       8 UNK         0.5000 
     31 O          -2.0183  -18.8402  -44.8728 O.2       8 UNK        -0.5000 
     32 CA         -0.3256  -17.1731  -45.2163 C.3       8 UNK         0.1400 
     33 CB         -0.2869  -16.1440  -44.0785 C.3       8 UNK        -0.1800 
     34 N           1.0006  -17.2859  -45.8353 N.am      8 UNK        -0.5000 
     35 C           1.2691  -18.0620  -46.8993 C.2       7 UNK         0.5000 
     36 O           0.4035  -18.7074  -47.4878 O.2       7 UNK        -0.5000 
     37 CA          2.7324  -18.2061  -47.3577 C.3       7 UNK         0.1400 
     38 CB          2.9559  -17.5695  -48.7364 C.3       7 UNK        -0.1800 
     39 N           3.6970  -17.6706  -46.3968 N.am      7 UNK        -0.5000 
     40 C           4.0572  -18.3037  -45.2702 C.2       6 UNK         0.5000 
     41 O           3.6155  -19.4058  -44.9427 O.2       6 UNK        -0.5000 
     42 CA          5.0457  -17.5789  -44.3342 C.3       6 UNK         0.1400 
     43 CB          6.4859  -18.0268  -44.6244 C.3       6 UNK        -0.1800 
     44 N           4.9744  -16.1178  -44.4128 N.am      6 UNK        -0.5000 
     45 C           3.8979  -15.3857  -44.0968 C.2       5 UNK         0.5000 
     46 O           2.8441  -15.8768  -43.6933 O.2       5 UNK        -0.5000 
     47 CA          3.9834  -13.8588  -44.2958 C.3       5 UNK         0.1400 
     48 CB          5.4011  -13.3376  -44.6218 C.3       5 UNK        -0.1800 
     49 N           3.0280  -13.3965  -45.3054 N.am      5 UNK        -0.5000 
     50 C           2.9330  -13.8053  -46.5818 C.2       4 UNK         0.5000 
     51 O           3.6641  -14.6651  -47.0755 O.2       4 UNK        -0.5000 
     52 CA          1.8479  -13.1513  -47.4635 C.3       4 UNK         0.1400 
     53 CB          0.7435  -14.1598  -47.8167 C.3       4 UNK        -0.1800 
     54 N           1.2387  -11.9764  -46.8371 N.am      4 UNK        -0.5000 
     55 C           1.8012  -10.7582  -46.8077 C.2       3 UNK         0.5000 
     56 O           2.8631  -10.4890  -47.3701 O.2       3 UNK        -0.5000 
     57 CA          1.0781   -9.6524  -46.0091 C.3       3 UNK         0.1400 
     58 CB          0.3189   -8.7155  -46.9613 C.3       3 UNK        -0.1800 
     59 N           0.1426  -10.1535  -45.0006 N.am      3 UNK        -0.5000 
     60 C           0.4675  -10.8842  -43.9247 C.2       2 UNK         0.5000 
     61 O           1.6227  -11.1924  -43.6299 O.2       2 UNK        -0.5000 
     62 CA         -0.7060  -11.4123  -43.0741 C.3       2 UNK         0.1400 
     63 CB         -1.0109  -10.4464  -41.9195 C.3       2 UNK        -0.1800 
     64 N          -1.9367  -11.6550  -43.8398 N.am      2 UNK        -0.5000 
     65 C          -2.0334  -12.5031  -44.8731 C.2       1 UNK         0.5000 
     66 O          -1.0773  -13.1319  -45.3269 O.2       1 UNK        -0.5000 
     67 C          -4.2688  -20.5741  -47.3650 C.2       11 UNK         0.5000 
     68 O          -5.3470  -20.9007  -47.8600 O.2       11 UNK        -0.5000 
     69 N          -4.0197  -20.6352  -46.0489 N.am      12 UNK        -0.5000 
     70 CA         -4.9445  -21.2147  -45.0708 C.3       12 UNK         0.1400 
     71 CB         -4.4616  -20.8892  -43.6497 C.3       12 UNK        -0.1800 
     72 C          -5.1187  -22.7357  -45.2626 C.2       12 UNK         0.5000 
     73 O          -6.2342  -23.2443  -45.1502 O.2       12 UNK        -0.5000 
     74 N          -4.0197  -23.4247  -45.5959 N.am      13 UNK        -0.5000 
     75 CA         -3.9605  -24.8591  -45.8787 C.3       13 UNK         0.1400 
     76 CB         -2.5437  -25.3691  -45.5688 C.3       13 UNK        -0.1800 
     77 C          -4.3842  -25.2381  -47.3134 C.2       13 UNK         0.5000 
     78 O          -4.2211  -26.3982  -47.6939 O.2       13 UNK        -0.5000 
     79 N          -4.9335  -24.2983  -48.0981 N.am      14 UNK        -0.5000 
     80 CA         -5.4064  -24.5319  -49.4691 C.3       14 UNK         0.1400 
     81 CB         -5.9003  -23.2121  -50.0759 C.3       14 UNK        -0.1800 
     82 C          -6.5042  -25.6118  -49.5640 C.2       14 UNK         0.5000 
     83 O          -6.5560  -26.3437  -50.5523 O.2       14 UNK        -0.5000 
     84 N          -7.3134  -25.7416  -48.5023 N.am      15 UNK        -0.5000 
     85 CA         -8.3128  -26.7979  -48.3206 C.3       15 UNK         0.1400 
     86 CB         -9.1820  -26.4499  -47.1027 C.3       15 UNK        -0.1800 
     87 C          -7.7058  -28.2096  -48.1633 C.2       15 UNK         0.5000 
     88 O          -8.3961  -29.1936  -48.4297 O.2       15 UNK        -0.5000 
     89 N          -6.4300  -28.2863  -47.7591 N.am      16 UNK        -0.5000 
     90 CA         -5.6340  -29.5115  -47.6636 C.3       16 UNK         0.1400 
     91 CB         -4.8138  -29.4697  -46.3617 C.3       16 UNK        -0.1800 
     92 C          -4.7276  -29.7033  -48.8998 C.2       16 UNK         0.5000 
     93 O          -3.8417  -30.5587  -48.8704 O.2       16 UNK        -0.5000 
     94 N          -4.9662  -28.9162  -49.9609 N.am      17 UNK        -0.5000 
     95 CA         -4.2787  -28.9195  -51.2546 C.3       17 UNK         0.1400 
     96 CB         -4.4557  -30.2713  -51.9793 C.3       17 UNK        -0.1800 
     97 C          -2.8104  -28.4512  -51.1834 C.2       17 UNK         0.5000 
     98 O          -1.9782  -28.9218  -51.9624 O.2       17 UNK        -0.5000 
     99 N          -2.5162  -27.5057  -50.2786 N.am      18 UNK        -0.5000 
    100 CA        -1.2480  -26.7714  -50.2465 C.3       18 UNK         0.1400 
    101 CB        -1.1414  -26.0163  -48.9163 C.3       18 UNK        -0.1800 
    102 C         -1.1118  -25.8028  -51.4427 C.2       18 UNK         0.5000 
    103 O         -2.1069  -25.4880  -52.1008 O.2       18 UNK        -0.5000 
    104 N          0.1269  -25.3588  -51.7029 N.am      19 UNK        -0.5000 
    105 CA         0.5200  -24.5670  -52.8751 C.3       19 UNK         0.1400 
    106 CB         2.0395  -24.3382  -52.8425 C.3       19 UNK        -0.1800 
    107 C         -0.2196  -23.2244  -53.0332 C.2       19 UNK         0.5000 
    108 O         -0.5783  -22.8690  -54.1565 O.2       19 UNK        -0.5000 
    109 N         -0.4359  -22.5247  -51.9081 N.am      20 UNK        -0.5000 
    110 CA        -1.1925  -21.2717  -51.7775 C.3       20 UNK         0.1400 
    111 CB        -2.7007  -21.5606  -51.9174 C.3       20 UNK        -0.1800 
    112 C         -0.7048  -20.1437  -52.7176 C.2       20 UNK         0.5000 
    113 O         -1.5114  -19.4964  -53.3891 O.2       20 UNK        -0.5000 
    114 N          0.6198  -19.9537  -52.7730 N.am      21 UNK        -0.5000 
    115 CA         1.2771  -18.9364  -53.5933 C.3       21 UNK         0.1400 
    116 CB         2.7736  -19.2720  -53.6878 C.3       21 UNK        -0.1800 
    117 C          1.0794  -17.5165  -53.0280 C.2       21 UNK         0.5000 
    118 O          1.0866  -17.3389  -51.8096 O.2       21 UNK        -0.5000 
    119 N          0.9599  -16.5336  -53.9258 N.am      22 UNK        -0.5000 
    120 CA         0.8992  -15.0982  -53.6174 C.3       22 UNK         0.1400 
    121 C          2.1509  -14.3854  -54.1955 C.2       22 UNK         0.5000 
    122 N          2.7295  -13.4376  -53.4712 N.am      22 UNK        -0.7600 
    123 O          2.5889  -14.6687  -55.3091 O.2       22 UNK        -0.5000 
    124 C124       -0.4134  -14.4737  -54.1630 C.3       23 UNK        -0.0398 
    125 S125       -0.8589  -12.9052  -53.3311 S.3       23 UNK        -0.2404 
    126 C126       -2.6074  -13.1783  -52.8700 C.3       23 UNK        -0.0205 
    127 H127       -4.0216  -16.5974  -45.7869 H         1 UNK         0.0600 
    128 H128       -5.4344  -16.5207  -44.7282 H         1 UNK         0.0600 
    129 H129       -3.8421  -16.8833  -44.0571 H         1 UNK         0.0600 
    130 H130       -3.6285  -14.5058  -46.4956 H         1 UNK         0.3000 
    131 H131       -4.1542  -12.1121  -44.9646 H         1 UNK         0.0600 
    132 H132       -2.6553  -12.5654  -47.6152 H         1 UNK         0.0800 
    133 H133       -2.9454  -11.0072  -46.9122 H         1 UNK         0.0800 
    134 H134       -5.4761  -14.2292  -47.7866 H         1 UNK         0.0800 
    135 H135       -6.1503  -13.4324  -49.1745 H         1 UNK         0.0800 
    136 H136       -4.4984  -12.5640  -51.0097 H         1 UNK         0.1150 
    137 H137       -1.2062  -15.2422  -51.6647 H         1 UNK         0.1150 
    138 H138       -3.4491  -15.4823  -48.0489 H         1 UNK         0.1150 
    139 H139       -0.3277  -16.4655  -49.7547 H         1 UNK         0.0800 
    140 H140       -1.2086  -16.5744  -48.2601 H         1 UNK         0.0800 
    141 H141       -4.1411  -18.2791  -48.8537 H         1 UNK         0.0800 
    142 H142       -2.8913  -18.0672  -47.6435 H         1 UNK         0.0800 
    143 H143       -3.3142  -20.6226  -49.2497 H         1 UNK         0.0600 
    144 H144       -1.1706  -19.9040  -47.4703 H         1 UNK         0.3000 
    145 H145       -0.0752  -23.2846  -46.9783 H         1 UNK         0.0600 
    146 H146        2.0513  -22.2207  -47.7804 H         1 UNK         0.0600 
    147 H147        0.9766  -22.6467  -49.1011 H         1 UNK         0.0600 
    148 H148        1.1147  -20.9697  -48.5973 H         1 UNK         0.0600 
    149 H149        0.8520  -20.7161  -46.0567 H         1 UNK         0.3000 
    150 H150       -1.0489  -20.6877  -43.0319 H         1 UNK         0.0600 
    151 H151        0.8542  -22.2302  -42.5406 H         1 UNK         0.0600 
    152 H152        1.2173  -20.5898  -42.0274 H         1 UNK         0.0600 
    153 H153        1.9324  -21.2297  -43.5068 H         1 UNK         0.0600 
    154 H154        1.0242  -19.0010  -44.0594 H         1 UNK         0.3000 
    155 H155       -1.0223  -16.8134  -45.9744 H         1 UNK         0.0600 
    156 H156        0.2815  -16.5081  -43.2220 H         1 UNK         0.0600 
    157 H157       -1.2930  -15.9117  -43.7283 H         1 UNK         0.0600 
    158 H158        0.1702  -15.2100  -44.4033 H         1 UNK         0.0600 
    159 H159        1.7605  -16.8069  -45.3673 H         1 UNK         0.3000 
    160 H160        2.9184  -19.2767  -47.4670 H         1 UNK         0.0600 
    161 H161        2.8046  -16.4924  -48.7212 H         1 UNK         0.0600 
    162 H162        2.2654  -17.9855  -49.4711 H         1 UNK         0.0600 
    163 H163        3.9660  -17.7594  -49.0989 H         1 UNK         0.0600 
    164 H164        4.0482  -16.7367  -46.5789 H         1 UNK         0.3000 
    165 H165        4.7971  -17.8691  -43.3113 H         1 UNK         0.0600 
    166 H166        7.1866  -17.5903  -43.9124 H         1 UNK         0.0600 
    167 H167        6.5808  -19.1109  -44.5485 H         1 UNK         0.0600 
    168 H168        6.8020  -17.7390  -45.6279 H         1 UNK         0.0600 
    169 H169        5.7923  -15.6423  -44.7651 H         1 UNK         0.3000 
    170 H170        3.6749  -13.4104  -43.3504 H         1 UNK         0.0600 
    171 H171        6.1132  -13.6177  -43.8445 H         1 UNK         0.0600 
    172 H172        5.7750  -13.7178  -45.5731 H         1 UNK         0.0600 
    173 H173        5.4068  -12.2491  -44.6810 H         1 UNK         0.0600 
    174 H174        2.3722  -12.6961  -44.9807 H         1 UNK         0.3000 
    175 H175        2.3261  -12.8419  -48.3952 H         1 UNK         0.0600 
    176 H176        0.3154  -14.6217  -46.9276 H         1 UNK         0.0600 
    177 H177       -0.0661  -13.6867  -48.3729 H         1 UNK         0.0600 
    178 H178        1.1357  -14.9609  -48.4409 H         1 UNK         0.0600 
    179 H179        0.3786  -12.1441  -46.3254 H         1 UNK         0.3000 
    180 H180        1.8445   -9.0709  -45.4926 H         1 UNK         0.0600 
    181 H181       -0.4774   -9.2401  -47.4910 H         1 UNK         0.0600 
    182 H182        0.9888   -8.2928  -47.7114 H         1 UNK         0.0600 
    183 H183       -0.1284   -7.8806  -46.4214 H         1 UNK         0.0600 
    184 H184       -0.8341   -9.9542  -45.1566 H         1 UNK         0.3000 
    185 H185       -0.3916  -12.3672  -42.6475 H         1 UNK         0.0600 
    186 H186       -0.1200  -10.2639  -41.3170 H         1 UNK         0.0600 
    187 H187       -1.3639   -9.4811  -42.2846 H         1 UNK         0.0600 
    188 H188       -1.7726  -10.8540  -41.2545 H         1 UNK         0.0600 
    189 H189       -2.7647  -11.1727  -43.5205 H         1 UNK         0.3000 
    190 H190       -3.1388  -20.2778  -45.6928 H         1 UNK         0.3000 
    191 H191       -5.9214  -20.7471  -45.2104 H         1 UNK         0.0600 
    192 H192       -3.4842  -21.3258  -43.4450 H         1 UNK         0.0600 
    193 H193       -5.1566  -21.2760  -42.9036 H         1 UNK         0.0600 
    194 H194       -4.3849  -19.8124  -43.4970 H         1 UNK         0.0600 
    195 H195       -3.1303  -22.9360  -45.6096 H         1 UNK         0.3000 
    196 H196       -4.6497  -25.3732  -45.2060 H         1 UNK         0.0600 
    197 H197       -2.4675  -26.4475  -45.7125 H         1 UNK         0.0600 
    198 H198       -2.2691  -25.1631  -44.5342 H         1 UNK         0.0600 
    199 H199       -1.8010  -24.8969  -46.2118 H         1 UNK         0.0600 
    200 H200       -5.0145  -23.3561  -47.7422 H         1 UNK         0.3000 
    201 H201       -4.5523  -24.8777  -50.0558 H         1 UNK         0.0600 
    202 H202       -5.1084  -22.4642  -50.0882 H         1 UNK         0.0600 
    203 H203       -6.7401  -22.8006  -49.5145 H         1 UNK         0.0600 
    204 H204       -6.2284  -23.3530  -51.1065 H         1 UNK         0.0600 
    205 H205       -7.1921  -25.0982  -47.7332 H         1 UNK         0.3000 
    206 H206       -8.9516  -26.8133  -49.2060 H         1 UNK         0.0600 
    207 H207       -9.6811  -25.4897  -47.2351 H         1 UNK         0.0600 
    208 H208       -9.9592  -27.1999  -46.9491 H         1 UNK         0.0600 
    209 H209       -8.5900  -26.3981  -46.1880 H         1 UNK         0.0600 
    210 H210       -5.9073  -27.4292  -47.6126 H         1 UNK         0.3000 
    211 H211       -6.2933  -30.3801  -47.6144 H         1 UNK         0.0600 
    212 H212       -4.0681  -28.6748  -46.3767 H         1 UNK         0.0600 
    213 H213       -4.2847  -30.4098  -46.2019 H         1 UNK         0.0600 
    214 H214       -5.4565  -29.3104  -45.4958 H         1 UNK         0.0600 
    215 H215       -5.7026  -28.2262  -49.8779 H         1 UNK         0.3000 
    216 H216       -4.7905  -28.1676  -51.8569 H         1 UNK         0.0600 
    217 H217       -4.0958  -30.2133  -53.0071 H         1 UNK         0.0600 
    218 H218       -5.5054  -30.5618  -52.0218 H         1 UNK         0.0600 
    219 H219       -3.9043  -31.0728  -51.4872 H         1 UNK         0.0600 
    220 H220       -3.2426  -27.1814  -49.6535 H         1 UNK         0.3000 
    221 H221       -0.4318  -27.4950  -50.2984 H         1 UNK         0.0600 
    222 H222       -1.9305  -25.2725  -48.8297 H         1 UNK         0.0600 
    223 H223       -1.2251  -26.6959  -48.0682 H         1 UNK         0.0600 
    224 H224       -0.1878  -25.4954  -48.8251 H         1 UNK         0.0600 
    225 H225        0.8815  -25.6630  -51.1050 H         1 UNK         0.3000 
    226 H226        0.2893  -25.1668  -53.7581 H         1 UNK         0.0600 
    227 H227        2.5820  -25.2837  -52.8579 H         1 UNK         0.0600 
    228 H228        2.3676  -23.7641  -53.7104 H         1 UNK         0.0600 
    229 H229        2.3460  -23.7890  -51.9514 H         1 UNK         0.0600 
    230 H230       -0.1056  -22.9291  -51.0448 H         1 UNK         0.3000 
    231 H231       -1.0184  -20.9146  -50.7623 H         1 UNK         0.0600 
    232 H232       -3.2935  -20.6680  -51.7150 H         1 UNK         0.0600 
    233 H233       -3.0143  -22.3303  -51.2122 H         1 UNK         0.0600 
    234 H234       -2.9547  -21.9043  -52.9205 H         1 UNK         0.0600 
    235 H235        1.2155  -20.5085  -52.1777 H         1 UNK         0.3000 
    236 H236        0.8503  -18.9789  -54.5978 H         1 UNK         0.0600 
    237 H237        3.2967  -18.5516  -54.3180 H         1 UNK         0.0600 
    238 H238        3.2515  -19.2574  -52.7073 H         1 UNK         0.0600 
    239 H239        2.9306  -20.2588  -54.1242 H         1 UNK         0.0600 
    240 H240        1.0383  -16.7539  -54.9089 H         1 UNK         0.3000 
    241 H241        0.9181  -14.9647  -52.5342 H         1 UNK         0.0600 
    242 H242        3.5368  -12.9610  -53.8423 H         1 UNK         0.3800 
    243 H243        2.3681  -13.1697  -52.5690 H         1 UNK         0.3800 
    244 H244       -0.3538  -14.3014  -55.2392 H         1 UNK         0.0800 
    245 H245       -1.2345  -15.1790  -54.0286 H         1 UNK         0.0800 
    246 H246       -3.1036  -13.7892  -53.6250 H         1 UNK         0.0800 
    247 H247       -3.1025  -12.2065  -52.8984 H         1 UNK         0.0800 
@<TRIPOS>BOND
     1    1    2 1    
     2    1  127 1    
     3    1  128 1    
     4    1  129 1    
     5    2    3 2    
     6    2    4 am   BACKBONE|DICT|INTERRES
     7    4    5 1    
     8    4  130 1    
     9    5    6 1    
    10    5   65 1    
    11    5  131 1    
    12    6    7 1    
    13    6  132 1    
    14    6  133 1    
    15    7    8 1    
    16    8    9 1    
    17    8  134 1    
    18    8  135 1    
    19    9   10 ar   
    20    9   14 ar   
    21   10   11 ar   
    22   10  136 1    
    23   11   12 ar   
    24   11  126 1    
    25   12   13 ar   
    26   12  137 1    
    27   13   14 ar   
    28   13   15 1    
    29   14  138 1    
    30   15   16 1    
    31   15  139 1    
    32   15  140 1    
    33   16   17 1    
    34   17   18 1    
    35   17  141 1    
    36   17  142 1    
    37   18   19 1    
    38   18   67 1    
    39   18  143 1    
    40   19   20 am   BACKBONE|DICT|INTERRES
    41   19  144 1    
    42   20   21 2    
    43   20   22 1    
    44   22   23 1    
    45   22   24 1    
    46   22  145 1    
    47   23  146 1    
    48   23  147 1    
    49   23  148 1    
    50   24   25 am   BACKBONE|DICT|INTERRES
    51   24  149 1    
    52   25   26 2    
    53   25   27 1    
    54   27   28 1    
    55   27   29 1    
    56   27  150 1    
    57   28  151 1    
    58   28  152 1    
    59   28  153 1    
    60   29   30 am   BACKBONE|DICT|INTERRES
    61   29  154 1    
    62   30   31 2    
    63   30   32 1    
    64   32   33 1    
    65   32   34 1    
    66   32  155 1    
    67   33  156 1    
    68   33  157 1    
    69   33  158 1    
    70   34   35 am   BACKBONE|DICT|INTERRES
    71   34  159 1    
    72   35   36 2    
    73   35   37 1    
    74   37   38 1    
    75   37   39 1    
    76   37  160 1    
    77   38  161 1    
    78   38  162 1    
    79   38  163 1    
    80   39   40 am   BACKBONE|DICT|INTERRES
    81   39  164 1    
    82   40   41 2    
    83   40   42 1    
    84   42   43 1    
    85   42   44 1    
    86   42  165 1    
    87   43  166 1    
    88   43  167 1    
    89   43  168 1    
    90   44   45 am   BACKBONE|DICT|INTERRES
    91   44  169 1    
    92   45   46 2    
    93   45   47 1    
    94   47   48 1    
    95   47   49 1    
    96   47  170 1    
    97   48  171 1    
    98   48  172 1    
    99   48  173 1    
   100   49   50 am   BACKBONE|DICT|INTERRES
   101   49  174 1    
   102   50   51 2    
   103   50   52 1    
   104   52   53 1    
   105   52   54 1    
   106   52  175 1    
   107   53  176 1    
   108   53  177 1    
   109   53  178 1    
   110   54   55 am   BACKBONE|DICT|INTERRES
   111   54  179 1    
   112   55   56 2    
   113   55   57 1    
   114   57   58 1    
   115   57   59 1    
   116   57  180 1    
   117   58  181 1    
   118   58  182 1    
   119   58  183 1    
   120   59   60 am   BACKBONE|DICT|INTERRES
   121   59  184 1    
   122   60   61 2    
   123   60   62 1    
   124   62   63 1    
   125   62   64 1    
   126   62  185 1    
   127   63  186 1    
   128   63  187 1    
   129   63  188 1    
   130   64   65 am   BACKBONE|DICT|INTERRES
   131   64  189 1    
   132   65   66 2    
   133   67   68 2    
   134   67   69 am   BACKBONE|DICT|INTERRES
   135   69   70 1    
   136   69  190 1    
   137   70   71 1    
   138   70   72 1    
   139   70  191 1    
   140   71  192 1    
   141   71  193 1    
   142   71  194 1    
   143   72   73 2    
   144   72   74 am   BACKBONE|DICT|INTERRES
   145   74   75 1    
   146   74  195 1    
   147   75   76 1    
   148   75   77 1    
   149   75  196 1    
   150   76  197 1    
   151   76  198 1    
   152   76  199 1    
   153   77   78 2    
   154   77   79 am   BACKBONE|DICT|INTERRES
   155   79   80 1    
   156   79  200 1    
   157   80   81 1    
   158   80   82 1    
   159   80  201 1    
   160   81  202 1    
   161   81  203 1    
   162   81  204 1    
   163   82   83 2    
   164   82   84 am   BACKBONE|DICT|INTERRES
   165   84   85 1    
   166   84  205 1    
   167   85   86 1    
   168   85   87 1    
   169   85  206 1    
   170   86  207 1    
   171   86  208 1    
   172   86  209 1    
   173   87   88 2    
   174   87   89 am   BACKBONE|DICT|INTERRES
   175   89   90 1    
   176   89  210 1    
   177   90   91 1    
   178   90   92 1    
   179   90  211 1    
   180   91  212 1    
   181   91  213 1    
   182   91  214 1    
   183   92   93 2    
   184   92   94 am   BACKBONE|DICT|INTERRES
   185   94   95 1    
   186   94  215 1    
   187   95   96 1    
   188   95   97 1    
   189   95  216 1    
   190   96  217 1    
   191   96  218 1    
   192   96  219 1    
   193   97   98 2    
   194   97   99 am   BACKBONE|DICT|INTERRES
   195   99  100 1    
   196   99  220 1    
   197  100  101 1    
   198  100  102 1    
   199  100  221 1    
   200  101  222 1    
   201  101  223 1    
   202  101  224 1    
   203  102  103 2    
   204  102  104 am   BACKBONE|DICT|INTERRES
   205  104  105 1    
   206  104  225 1    
   207  105  106 1    
   208  105  107 1    
   209  105  226 1    
   210  106  227 1    
   211  106  228 1    
   212  106  229 1    
   213  107  108 2    
   214  107  109 am   BACKBONE|DICT|INTERRES
   215  109  110 1    
   216  109  230 1    
   217  110  111 1    
   218  110  112 1    
   219  110  231 1    
   220  111  232 1    
   221  111  233 1    
   222  111  234 1    
   223  112  113 2    
   224  112  114 am   BACKBONE|DICT|INTERRES
   225  114  115 1    
   226  114  235 1    
   227  115  116 1    
   228  115  117 1    
   229  115  236 1    
   230  116  237 1    
   231  116  238 1    
   232  116  239 1    
   233  117  118 2    
   234  117  119 am   BACKBONE|DICT|INTERRES
   235  119  120 1    
   236  119  240 1    
   237  120  121 1    
   238  120  124 1    
   239  120  241 1    
   240  121  122 am   BACKBONE|DICT|INTERRES
   241  121  123 2    
   242  122  242 1    
   243  122  243 1    
   244  124  125 1    
   245  124  244 1    
   246  124  245 1    
   247  125  126 1    
   248  126  246 1    
   249  126  247 1    
@<TRIPOS>SUBSTRUCTURE
     1 UNK         1 GROUP             0       ****    0 ROOT    
