@<TRIPOS>MOLECULE
3R540
247   249    1
SMALL
USER_CHARGES


@<TRIPOS>ATOM
      1 CA         -5.9354  -17.6920  -47.2360 C.3       0 UNK        -0.1800 
      2 C          -5.4869  -16.5211  -48.0970 C.2       0 UNK         0.5000 
      3 O          -6.3229  -15.7742  -48.6050 O.2       0 UNK        -0.5000 
      4 N          -4.1715  -16.3727  -48.2701 N.am      1 UNK        -0.5000 
      5 CA         -3.5316  -15.3032  -49.0353 C.3       1 UNK         0.1400 
      6 C6         -2.2382  -15.8289  -49.6990 C.3       23 UNK        -0.0398 
      7 S7         -1.6265  -14.7849  -51.0654 S.3       23 UNK        -0.2404 
      8 C8         -0.6843  -15.9921  -52.0642 C.3       23 UNK        -0.0205 
      9 C9          0.1798  -16.9275  -51.2239 C.ar      23 UNK        -0.0193 
     10 C10         0.0701  -18.3108  -51.3789 C.ar      23 UNK        -0.1150 
     11 C11         0.8262  -19.1833  -50.5938 C.ar      23 UNK        -0.0193 
     12 C12         1.6693  -18.6636  -49.6072 C.ar      23 UNK        -0.1150 
     13 C13         1.7621  -17.2811  -49.4189 C.ar      23 UNK        -0.0193 
     14 C14         1.0512  -16.4198  -50.2577 C.ar      23 UNK        -0.1150 
     15 C15         2.5611  -16.7022  -48.2655 C.3       23 UNK        -0.0205 
     16 S16         1.4421  -16.1937  -46.9183 S.3       23 UNK        -0.2404 
     17 C17         1.0944  -17.7859  -46.1022 C.3       23 UNK        -0.0398 
     18 CA         -0.1565  -18.5330  -46.6300 C.3       11 UNK         0.1400 
     19 N          -0.0080  -19.9784  -46.4654 N.am      11 UNK        -0.5000 
     20 C          -0.7510  -20.8959  -47.0994 C.2       10 UNK         0.5000 
     21 O          -1.5263  -20.6179  -48.0130 O.2       10 UNK        -0.5000 
     22 CA         -0.6121  -22.3688  -46.6539 C.3       10 UNK         0.1400 
     23 CB         -0.0481  -23.2317  -47.7938 C.3       10 UNK        -0.1800 
     24 N           0.2032  -22.5801  -45.4534 N.am      10 UNK        -0.5000 
     25 C          -0.0825  -22.1411  -44.2193 C.2       9 UNK         0.5000 
     26 O          -1.0643  -21.4516  -43.9448 O.2       9 UNK        -0.5000 
     27 CA          0.9595  -22.4484  -43.1292 C.3       9 UNK         0.1400 
     28 CB          0.7677  -23.8707  -42.5832 C.3       9 UNK        -0.1800 
     29 N           2.3435  -22.2777  -43.5882 N.am      9 UNK        -0.5000 
     30 C           2.8428  -21.1411  -44.0930 C.2       8 UNK         0.5000 
     31 O           2.1773  -20.1180  -44.2501 O.2       8 UNK        -0.5000 
     32 CA          4.3004  -21.1706  -44.5595 C.3       8 UNK         0.1400 
     33 CB          4.3623  -21.5399  -46.0544 C.3       8 UNK        -0.1800 
     34 N           4.9258  -19.8667  -44.3369 N.am      8 UNK        -0.5000 
     35 C           6.2511  -19.6684  -44.3012 C.2       7 UNK         0.5000 
     36 O           7.0750  -20.5793  -44.4002 O.2       7 UNK        -0.5000 
     37 CA          6.7631  -18.2236  -44.1481 C.3       7 UNK         0.1400 
     38 CB          6.9340  -17.5715  -45.5291 C.3       7 UNK        -0.1800 
     39 N           5.9023  -17.3741  -43.3304 N.am      7 UNK        -0.5000 
     40 C           5.7780  -17.4419  -41.9993 C.2       6 UNK         0.5000 
     41 O           6.3843  -18.2493  -41.2941 O.2       6 UNK        -0.5000 
     42 CA          4.8112  -16.4332  -41.3409 C.3       6 UNK         0.1400 
     43 CB          4.8354  -15.0420  -42.0111 C.3       6 UNK        -0.1800 
     44 N           3.4379  -16.9389  -41.2548 N.am      6 UNK        -0.5000 
     45 C           2.6701  -17.3713  -42.2659 C.2       5 UNK         0.5000 
     46 O           3.0193  -17.3712  -43.4454 O.2       5 UNK        -0.5000 
     47 CA          1.2648  -17.8669  -41.8816 C.3       5 UNK         0.1400 
     48 CB          1.3399  -19.1394  -41.0218 C.3       5 UNK        -0.1800 
     49 N           0.4887  -16.8516  -41.1699 N.am      5 UNK        -0.5000 
     50 C           0.0693  -15.6967  -41.7017 C.2       4 UNK         0.5000 
     51 O           0.2953  -15.3417  -42.8606 O.2       4 UNK        -0.5000 
     52 CA         -0.7571  -14.7915  -40.7801 C.3       4 UNK         0.1400 
     53 CB          0.1545  -13.8750  -39.9478 C.3       4 UNK        -0.1800 
     54 N          -1.6502  -13.9758  -41.5965 N.am      4 UNK        -0.5000 
     55 C          -2.9228  -13.6839  -41.3053 C.2       3 UNK         0.5000 
     56 O          -3.4845  -14.0498  -40.2718 O.2       3 UNK        -0.5000 
     57 CA         -3.7078  -12.8275  -42.3210 C.3       3 UNK         0.1400 
     58 CB         -3.9030  -11.4020  -41.7798 C.3       3 UNK        -0.1800 
     59 N          -3.0771  -12.7428  -43.6414 N.am      3 UNK        -0.5000 
     60 C          -3.1128  -13.7093  -44.5667 C.2       2 UNK         0.5000 
     61 O          -3.6770  -14.7929  -44.4008 O.2       2 UNK        -0.5000 
     62 CA         -2.3834  -13.4002  -45.8838 C.3       2 UNK         0.1400 
     63 CB         -0.8609  -13.4727  -45.6863 C.3       2 UNK        -0.1800 
     64 N          -2.7568  -14.3698  -46.9072 N.am      2 UNK        -0.5000 
     65 C          -3.2452  -14.0928  -48.1218 C.2       1 UNK         0.5000 
     66 O          -3.4788  -12.9521  -48.5247 O.2       1 UNK        -0.5000 
     67 C          -1.4646  -18.0235  -45.9836 C.2       11 UNK         0.5000 
     68 O          -2.0630  -17.0894  -46.5143 O.2       11 UNK        -0.5000 
     69 N          -1.9111  -18.6579  -44.8884 N.am      12 UNK        -0.5000 
     70 CA         -3.1379  -18.2995  -44.1689 C.3       12 UNK         0.1400 
     71 CB         -2.7849  -17.9179  -42.7245 C.3       12 UNK        -0.1800 
     72 C          -4.1841  -19.4249  -44.1901 C.2       12 UNK         0.5000 
     73 O          -5.3778  -19.1355  -44.2768 O.2       12 UNK        -0.5000 
     74 N          -3.7353  -20.6818  -44.1140 N.am      13 UNK        -0.5000 
     75 CA         -4.5669  -21.8750  -44.2440 C.3       13 UNK         0.1400 
     76 CB         -3.9659  -22.9827  -43.3594 C.3       13 UNK        -0.1800 
     77 C          -4.6395  -22.3236  -45.7154 C.2       13 UNK         0.5000 
     78 O          -4.0341  -21.7024  -46.5906 O.2       13 UNK        -0.5000 
     79 N          -5.3762  -23.4153  -45.9616 N.am      14 UNK        -0.5000 
     80 CA         -5.4378  -24.1731  -47.2202 C.3       14 UNK         0.1400 
     81 CB         -4.0701  -24.8302  -47.5094 C.3       14 UNK        -0.1800 
     82 C          -5.9575  -23.3901  -48.4456 C.2       14 UNK         0.5000 
     83 O          -5.7734  -23.8569  -49.5689 O.2       14 UNK        -0.5000 
     84 N          -6.5888  -22.2273  -48.2239 N.am      15 UNK        -0.5000 
     85 CA         -7.1473  -21.3191  -49.2322 C.3       15 UNK         0.1400 
     86 CB         -8.4081  -21.9415  -49.8690 C.3       15 UNK        -0.1800 
     87 C          -6.1082  -20.8701  -50.2834 C.2       15 UNK         0.5000 
     88 O          -6.3727  -20.9598  -51.4830 O.2       15 UNK        -0.5000 
     89 N          -4.9293  -20.4302  -49.8134 N.am      16 UNK        -0.5000 
     90 CA         -3.7790  -20.0036  -50.6260 C.3       16 UNK         0.1400 
     91 CB         -4.1152  -18.7370  -51.4435 C.3       16 UNK        -0.1800 
     92 C          -3.2292  -21.1512  -51.5008 C.2       16 UNK         0.5000 
     93 O          -2.9499  -20.9530  -52.6861 O.2       16 UNK        -0.5000 
     94 N          -3.1210  -22.3403  -50.8891 N.am      17 UNK        -0.5000 
     95 CA         -2.7617  -23.6246  -51.4979 C.3       17 UNK         0.1400 
     96 CB         -1.2966  -23.6182  -51.9838 C.3       17 UNK        -0.1800 
     97 C          -3.7623  -24.0348  -52.5976 C.2       17 UNK         0.5000 
     98 O          -3.3797  -24.2053  -53.7546 O.2       17 UNK        -0.5000 
     99 N          -5.0408  -24.1509  -52.2126 N.am      18 UNK        -0.5000 
    100 CA        -6.1919  -24.5231  -53.0434 C.3       18 UNK         0.1400 
    101 CB        -6.1081  -26.0116  -53.4396 C.3       18 UNK        -0.1800 
    102 C         -6.3881  -23.5859  -54.2536 C.2       18 UNK         0.5000 
    103 O         -6.6585  -24.0485  -55.3634 O.2       18 UNK        -0.5000 
    104 N         -6.2159  -22.2796  -54.0082 N.am      19 UNK        -0.5000 
    105 CA        -6.2770  -21.1669  -54.9586 C.3       19 UNK         0.1400 
    106 CB        -7.6966  -21.0226  -55.5453 C.3       19 UNK        -0.1800 
    107 C         -5.1839  -21.1868  -56.0506 C.2       19 UNK         0.5000 
    108 O         -5.2949  -20.4360  -57.0214 O.2       19 UNK        -0.5000 
    109 N         -4.1300  -22.0004  -55.8779 N.am      20 UNK        -0.5000 
    110 CA        -2.9740  -22.0468  -56.7795 C.3       20 UNK         0.1400 
    111 CB        -2.2476  -23.3906  -56.6161 C.3       20 UNK        -0.1800 
    112 C         -1.9918  -20.8820  -56.5504 C.2       20 UNK         0.5000 
    113 O         -1.0867  -20.6909  -57.3643 O.2       20 UNK        -0.5000 
    114 N         -2.1557  -20.1537  -55.4345 N.am      21 UNK        -0.5000 
    115 CA        -1.3423  -19.0213  -54.9832 C.3       21 UNK         0.1400 
    116 CB        -1.5006  -17.8159  -55.9321 C.3       21 UNK        -0.1800 
    117 C          0.1304  -19.4132  -54.7395 C.2       21 UNK         0.5000 
    118 O          1.0310  -18.6036  -54.9637 O.2       21 UNK        -0.5000 
    119 N          0.3370  -20.6650  -54.3030 N.am      22 UNK        -0.5000 
    120 CA         1.6422  -21.3285  -54.1378 C.3       22 UNK         0.1400 
    121 C          2.4327  -21.5423  -55.4704 C.2       22 UNK         0.5000 
    122 N          1.8263  -21.3941  -56.6439 N.am      22 UNK        -0.7600 
    123 O          3.6087  -21.8957  -55.4486 O.2       22 UNK        -0.5000 
    124 C124        2.4942  -20.6929  -52.9939 C.3       23 UNK        -0.0398 
    125 S125        2.2071  -21.4855  -51.3737 S.3       23 UNK        -0.2404 
    126 C126        0.6823  -20.6849  -50.7849 C.3       23 UNK        -0.0205 
    127 H127       -6.7388  -18.2376  -47.7297 H         1 UNK         0.0600 
    128 H128       -6.3052  -17.3311  -46.2763 H         1 UNK         0.0600 
    129 H129       -5.1184  -18.3897  -47.0482 H         1 UNK         0.0600 
    130 H130       -3.5297  -16.9586  -47.7439 H         1 UNK         0.3000 
    131 H131       -4.2120  -14.9791  -49.8259 H         1 UNK         0.0600 
    132 H132       -1.4422  -15.9553  -48.9624 H         1 UNK         0.0800 
    133 H133       -2.4208  -16.8236  -50.1048 H         1 UNK         0.0800 
    134 H134       -1.3920  -16.5616  -52.6679 H         1 UNK         0.0800 
    135 H135       -0.0460  -15.4534  -52.7654 H         1 UNK         0.0800 
    136 H136       -0.6196  -18.7161  -52.1002 H         1 UNK         0.1150 
    137 H137        2.2194  -19.3365  -48.9645 H         1 UNK         0.1150 
    138 H138        1.1210  -15.3513  -50.1085 H         1 UNK         0.1150 
    139 H139        3.3031  -17.4136  -47.8997 H         1 UNK         0.0800 
    140 H140        3.1172  -15.8300  -48.6120 H         1 UNK         0.0800 
    141 H141        1.0074  -17.6035  -45.0322 H         1 UNK         0.0800 
    142 H142        1.9841  -18.4056  -46.2174 H         1 UNK         0.0800 
    143 H143       -0.2479  -18.3398  -47.6995 H         1 UNK         0.0600 
    144 H144        0.6246  -20.2788  -45.7332 H         1 UNK         0.3000 
    145 H145       -1.6168  -22.7274  -46.4279 H         1 UNK         0.0600 
    146 H146       -0.0204  -24.2854  -47.5157 H         1 UNK         0.0600 
    147 H147       -0.6690  -23.1529  -48.6870 H         1 UNK         0.0600 
    148 H148        0.9633  -22.9273  -48.0664 H         1 UNK         0.0600 
    149 H149        1.0555  -23.1054  -45.5809 H         1 UNK         0.3000 
    150 H150        0.7892  -21.7482  -42.3104 H         1 UNK         0.0600 
    151 H151       -0.2529  -24.0176  -42.2268 H         1 UNK         0.0600 
    152 H152        1.4343  -24.0632  -41.7423 H         1 UNK         0.0600 
    153 H153        0.9614  -24.6265  -43.3454 H         1 UNK         0.0600 
    154 H154        2.9462  -23.0839  -43.5049 H         1 UNK         0.3000 
    155 H155        4.8316  -21.9252  -43.9755 H         1 UNK         0.0600 
    156 H156        3.8742  -22.4965  -46.2444 H         1 UNK         0.0600 
    157 H157        5.3913  -21.6306  -46.4021 H         1 UNK         0.0600 
    158 H158        3.8662  -20.7898  -46.6722 H         1 UNK         0.0600 
    159 H159        4.2846  -19.0894  -44.2081 H         1 UNK         0.3000 
    160 H160        7.7447  -18.2702  -43.6717 H         1 UNK         0.0600 
    161 H161        5.9796  -17.4732  -46.0484 H         1 UNK         0.0600 
    162 H162        7.5933  -18.1658  -46.1634 H         1 UNK         0.0600 
    163 H163        7.3748  -16.5780  -45.4448 H         1 UNK         0.0600 
    164 H164        5.2907  -16.7390  -43.8246 H         1 UNK         0.3000 
    165 H165        5.1563  -16.3029  -40.3140 H         1 UNK         0.0600 
    166 H166        4.2650  -14.3206  -41.4259 H         1 UNK         0.0600 
    167 H167        5.8550  -14.6619  -42.0870 H         1 UNK         0.0600 
    168 H168        4.4119  -15.0541  -43.0157 H         1 UNK         0.0600 
    169 H169        3.0563  -16.9918  -40.3215 H         1 UNK         0.3000 
    170 H170        0.7345  -18.1177  -42.8019 H         1 UNK         0.0600 
    171 H171        0.3580  -19.6027  -40.9231 H         1 UNK         0.0600 
    172 H172        2.0057  -19.8769  -41.4694 H         1 UNK         0.0600 
    173 H173        1.7154  -18.9335  -40.0190 H         1 UNK         0.0600 
    174 H174        0.2584  -17.0573  -40.2086 H         1 UNK         0.3000 
    175 H175       -1.3384  -15.4288  -40.1100 H         1 UNK         0.0600 
    176 H176        0.7611  -13.2283  -40.5832 H         1 UNK         0.0600 
    177 H177       -0.4293  -13.2384  -39.2827 H         1 UNK         0.0600 
    178 H178        0.8351  -14.4576  -39.3259 H         1 UNK         0.0600 
    179 H179       -1.2754  -13.7095  -42.4970 H         1 UNK         0.3000 
    180 H180       -4.6935  -13.2837  -42.4357 H         1 UNK         0.0600 
    181 H181       -2.9502  -10.8882  -41.6464 H         1 UNK         0.0600 
    182 H182       -4.4063  -11.4155  -40.8121 H         1 UNK         0.0600 
    183 H183       -4.5168  -10.8041  -42.4538 H         1 UNK         0.0600 
    184 H184       -2.5908  -11.8822  -43.8488 H         1 UNK         0.3000 
    185 H185       -2.6575  -12.3898  -46.1935 H         1 UNK         0.0600 
    186 H186       -0.5169  -12.7431  -44.9526 H         1 UNK         0.0600 
    187 H187       -0.5520  -14.4595  -45.3385 H         1 UNK         0.0600 
    188 H188       -0.3323  -13.2697  -46.6179 H         1 UNK         0.0600 
    189 H189       -2.6321  -15.3443  -46.6395 H         1 UNK         0.3000 
    190 H190       -1.4068  -19.4697  -44.5526 H         1 UNK         0.3000 
    191 H191       -3.6147  -17.4333  -44.6306 H         1 UNK         0.0600 
    192 H192       -2.2079  -16.9957  -42.7100 H         1 UNK         0.0600 
    193 H193       -3.6829  -17.7411  -42.1311 H         1 UNK         0.0600 
    194 H194       -2.2028  -18.6947  -42.2272 H         1 UNK         0.0600 
    195 H195       -2.7347  -20.8583  -44.0657 H         1 UNK         0.3000 
    196 H196       -5.5803  -21.6631  -43.8972 H         1 UNK         0.0600 
    197 H197       -4.6272  -23.8476  -43.3009 H         1 UNK         0.0600 
    198 H198       -3.8085  -22.6313  -42.3394 H         1 UNK         0.0600 
    199 H199       -3.0066  -23.3313  -43.7435 H         1 UNK         0.0600 
    200 H200       -5.8759  -23.8340  -45.1893 H         1 UNK         0.3000 
    201 H201       -6.1590  -24.9743  -47.0541 H         1 UNK         0.0600 
    202 H202       -3.7082  -25.3870  -46.6450 H         1 UNK         0.0600 
    203 H203       -3.3131  -24.0907  -47.7723 H         1 UNK         0.0600 
    204 H204       -4.1381  -25.5349  -48.3391 H         1 UNK         0.0600 
    205 H205       -6.6623  -21.9204  -47.2648 H         1 UNK         0.3000 
    206 H206       -7.4570  -20.4173  -48.7030 H         1 UNK         0.0600 
    207 H207       -9.1389  -22.2164  -49.1086 H         1 UNK         0.0600 
    208 H208       -8.8938  -21.2364  -50.5446 H         1 UNK         0.0600 
    209 H209       -8.1722  -22.8365  -50.4457 H         1 UNK         0.0600 
    210 H210       -4.7716  -20.4618  -48.8141 H         1 UNK         0.3000 
    211 H211       -2.9852  -19.7349  -49.9299 H         1 UNK         0.0600 
    212 H212       -4.8375  -18.9399  -52.2344 H         1 UNK         0.0600 
    213 H213       -3.2216  -18.3332  -51.9195 H         1 UNK         0.0600 
    214 H214       -4.5287  -17.9541  -50.8085 H         1 UNK         0.0600 
    215 H215       -3.4064  -22.3841  -49.9212 H         1 UNK         0.3000 
    216 H216       -2.8428  -24.3747  -50.7098 H         1 UNK         0.0600 
    217 H217       -1.0108  -24.5990  -52.3654 H         1 UNK         0.0600 
    218 H218       -0.6118  -23.3773  -51.1716 H         1 UNK         0.0600 
    219 H219       -1.1339  -22.8997  -52.7866 H         1 UNK         0.0600 
    220 H220       -5.2640  -23.9734  -51.2325 H         1 UNK         0.3000 
    221 H221       -7.0742  -24.3968  -52.4144 H         1 UNK         0.0600 
    222 H222       -5.2658  -26.2062  -54.1044 H         1 UNK         0.0600 
    223 H223       -5.9957  -26.6467  -52.5609 H         1 UNK         0.0600 
    224 H224       -7.0140  -26.3310  -53.9559 H         1 UNK         0.0600 
    225 H225       -6.0399  -21.9955  -53.0469 H         1 UNK         0.3000 
    226 H226       -6.0793  -20.2727  -54.3657 H         1 UNK         0.0600 
    227 H227       -8.4474  -20.9907  -54.7555 H         1 UNK         0.0600 
    228 H228       -7.7928  -20.0995  -56.1179 H         1 UNK         0.0600 
    229 H229       -7.9457  -21.8472  -56.2135 H         1 UNK         0.0600 
    230 H230       -4.0946  -22.6041  -55.0639 H         1 UNK         0.3000 
    231 H231       -3.3306  -21.9812  -57.8095 H         1 UNK         0.0600 
    232 H232       -1.7516  -23.4654  -55.6480 H         1 UNK         0.0600 
    233 H233       -1.4806  -23.5130  -57.3818 H         1 UNK         0.0600 
    234 H234       -2.9371  -24.2300  -56.7085 H         1 UNK         0.0600 
    235 H235       -2.8646  -20.4572  -54.7760 H         1 UNK         0.3000 
    236 H236       -1.7540  -18.7283  -54.0185 H         1 UNK         0.0600 
    237 H237       -2.5515  -17.5695  -56.0835 H         1 UNK         0.0600 
    238 H238       -1.0164  -16.9293  -55.5210 H         1 UNK         0.0600 
    239 H239       -1.0564  -18.0074  -56.9093 H         1 UNK         0.0600 
    240 H240       -0.4750  -21.2471  -54.1570 H         1 UNK         0.3000 
    241 H241        1.3991  -22.3493  -53.8412 H         1 UNK         0.0600 
    242 H242        2.3516  -21.5530  -57.4890 H         1 UNK         0.3800 
    243 H243        0.8571  -21.1070  -56.7092 H         1 UNK         0.3800 
    244 H244        3.5630  -20.7997  -53.1822 H         1 UNK         0.0800 
    245 H245        2.3350  -19.6179  -52.9137 H         1 UNK         0.0800 
    246 H246       -0.1278  -20.9114  -51.4781 H         1 UNK         0.0800 
    247 H247        0.4007  -21.1353  -49.8350 H         1 UNK         0.0800 
@<TRIPOS>BOND
     1    1    2 1    
     2    1  127 1    
     3    1  128 1    
     4    1  129 1    
     5    2    3 2    
     6    2    4 am   BACKBONE|DICT|INTERRES
     7    4    5 1    
     8    4  130 1    
     9    5    6 1    
    10    5   65 1    
    11    5  131 1    
    12    6    7 1    
    13    6  132 1    
    14    6  133 1    
    15    7    8 1    
    16    8    9 1    
    17    8  134 1    
    18    8  135 1    
    19    9   10 ar   
    20    9   14 ar   
    21   10   11 ar   
    22   10  136 1    
    23   11   12 ar   
    24   11  126 1    
    25   12   13 ar   
    26   12  137 1    
    27   13   14 ar   
    28   13   15 1    
    29   14  138 1    
    30   15   16 1    
    31   15  139 1    
    32   15  140 1    
    33   16   17 1    
    34   17   18 1    
    35   17  141 1    
    36   17  142 1    
    37   18   19 1    
    38   18   67 1    
    39   18  143 1    
    40   19   20 am   BACKBONE|DICT|INTERRES
    41   19  144 1    
    42   20   21 2    
    43   20   22 1    
    44   22   23 1    
    45   22   24 1    
    46   22  145 1    
    47   23  146 1    
    48   23  147 1    
    49   23  148 1    
    50   24   25 am   BACKBONE|DICT|INTERRES
    51   24  149 1    
    52   25   26 2    
    53   25   27 1    
    54   27   28 1    
    55   27   29 1    
    56   27  150 1    
    57   28  151 1    
    58   28  152 1    
    59   28  153 1    
    60   29   30 am   BACKBONE|DICT|INTERRES
    61   29  154 1    
    62   30   31 2    
    63   30   32 1    
    64   32   33 1    
    65   32   34 1    
    66   32  155 1    
    67   33  156 1    
    68   33  157 1    
    69   33  158 1    
    70   34   35 am   BACKBONE|DICT|INTERRES
    71   34  159 1    
    72   35   36 2    
    73   35   37 1    
    74   37   38 1    
    75   37   39 1    
    76   37  160 1    
    77   38  161 1    
    78   38  162 1    
    79   38  163 1    
    80   39   40 am   BACKBONE|DICT|INTERRES
    81   39  164 1    
    82   40   41 2    
    83   40   42 1    
    84   42   43 1    
    85   42   44 1    
    86   42  165 1    
    87   43  166 1    
    88   43  167 1    
    89   43  168 1    
    90   44   45 am   BACKBONE|DICT|INTERRES
    91   44  169 1    
    92   45   46 2    
    93   45   47 1    
    94   47   48 1    
    95   47   49 1    
    96   47  170 1    
    97   48  171 1    
    98   48  172 1    
    99   48  173 1    
   100   49   50 am   BACKBONE|DICT|INTERRES
   101   49  174 1    
   102   50   51 2    
   103   50   52 1    
   104   52   53 1    
   105   52   54 1    
   106   52  175 1    
   107   53  176 1    
   108   53  177 1    
   109   53  178 1    
   110   54   55 am   BACKBONE|DICT|INTERRES
   111   54  179 1    
   112   55   56 2    
   113   55   57 1    
   114   57   58 1    
   115   57   59 1    
   116   57  180 1    
   117   58  181 1    
   118   58  182 1    
   119   58  183 1    
   120   59   60 am   BACKBONE|DICT|INTERRES
   121   59  184 1    
   122   60   61 2    
   123   60   62 1    
   124   62   63 1    
   125   62   64 1    
   126   62  185 1    
   127   63  186 1    
   128   63  187 1    
   129   63  188 1    
   130   64   65 am   BACKBONE|DICT|INTERRES
   131   64  189 1    
   132   65   66 2    
   133   67   68 2    
   134   67   69 am   BACKBONE|DICT|INTERRES
   135   69   70 1    
   136   69  190 1    
   137   70   71 1    
   138   70   72 1    
   139   70  191 1    
   140   71  192 1    
   141   71  193 1    
   142   71  194 1    
   143   72   73 2    
   144   72   74 am   BACKBONE|DICT|INTERRES
   145   74   75 1    
   146   74  195 1    
   147   75   76 1    
   148   75   77 1    
   149   75  196 1    
   150   76  197 1    
   151   76  198 1    
   152   76  199 1    
   153   77   78 2    
   154   77   79 am   BACKBONE|DICT|INTERRES
   155   79   80 1    
   156   79  200 1    
   157   80   81 1    
   158   80   82 1    
   159   80  201 1    
   160   81  202 1    
   161   81  203 1    
   162   81  204 1    
   163   82   83 2    
   164   82   84 am   BACKBONE|DICT|INTERRES
   165   84   85 1    
   166   84  205 1    
   167   85   86 1    
   168   85   87 1    
   169   85  206 1    
   170   86  207 1    
   171   86  208 1    
   172   86  209 1    
   173   87   88 2    
   174   87   89 am   BACKBONE|DICT|INTERRES
   175   89   90 1    
   176   89  210 1    
   177   90   91 1    
   178   90   92 1    
   179   90  211 1    
   180   91  212 1    
   181   91  213 1    
   182   91  214 1    
   183   92   93 2    
   184   92   94 am   BACKBONE|DICT|INTERRES
   185   94   95 1    
   186   94  215 1    
   187   95   96 1    
   188   95   97 1    
   189   95  216 1    
   190   96  217 1    
   191   96  218 1    
   192   96  219 1    
   193   97   98 2    
   194   97   99 am   BACKBONE|DICT|INTERRES
   195   99  100 1    
   196   99  220 1    
   197  100  101 1    
   198  100  102 1    
   199  100  221 1    
   200  101  222 1    
   201  101  223 1    
   202  101  224 1    
   203  102  103 2    
   204  102  104 am   BACKBONE|DICT|INTERRES
   205  104  105 1    
   206  104  225 1    
   207  105  106 1    
   208  105  107 1    
   209  105  226 1    
   210  106  227 1    
   211  106  228 1    
   212  106  229 1    
   213  107  108 2    
   214  107  109 am   BACKBONE|DICT|INTERRES
   215  109  110 1    
   216  109  230 1    
   217  110  111 1    
   218  110  112 1    
   219  110  231 1    
   220  111  232 1    
   221  111  233 1    
   222  111  234 1    
   223  112  113 2    
   224  112  114 am   BACKBONE|DICT|INTERRES
   225  114  115 1    
   226  114  235 1    
   227  115  116 1    
   228  115  117 1    
   229  115  236 1    
   230  116  237 1    
   231  116  238 1    
   232  116  239 1    
   233  117  118 2    
   234  117  119 am   BACKBONE|DICT|INTERRES
   235  119  120 1    
   236  119  240 1    
   237  120  121 1    
   238  120  124 1    
   239  120  241 1    
   240  121  122 am   BACKBONE|DICT|INTERRES
   241  121  123 2    
   242  122  242 1    
   243  122  243 1    
   244  124  125 1    
   245  124  244 1    
   246  124  245 1    
   247  125  126 1    
   248  126  246 1    
   249  126  247 1    
@<TRIPOS>SUBSTRUCTURE
     1 UNK         1 GROUP             0       ****    0 ROOT    
