@<TRIPOS>MOLECULE
3R540
247   249    1
SMALL
USER_CHARGES


@<TRIPOS>ATOM
      1 CA         -2.9526  -12.2965  -49.0669 C.3       0 UNK        -0.1800 
      2 C          -2.1199  -13.4565  -48.5423 C.2       0 UNK         0.5000 
      3 O          -2.6205  -14.2549  -47.7529 O.2       0 UNK        -0.5000 
      4 N          -0.8456  -13.5349  -48.9543 N.am      1 UNK        -0.5000 
      5 CA          0.1354  -14.5754  -48.5922 C.3       1 UNK         0.1400 
      6 C6         -0.2085  -15.9689  -49.1806 C.3       23 UNK        -0.0398 
      7 S7         -0.1742  -15.9963  -51.0040 S.3       23 UNK        -0.2404 
      8 C8         -0.6178  -17.7369  -51.3322 C.3       23 UNK        -0.0205 
      9 C9          0.5576  -18.6976  -51.5073 C.ar      23 UNK        -0.0193 
     10 C10         0.4117  -19.7835  -52.3744 C.ar      23 UNK        -0.1150 
     11 C11         1.4347  -20.7192  -52.5417 C.ar      23 UNK        -0.0193 
     12 C12         2.6145  -20.5812  -51.8049 C.ar      23 UNK        -0.1150 
     13 C13         2.7782  -19.5039  -50.9284 C.ar      23 UNK        -0.0193 
     14 C14         1.7569  -18.5582  -50.8008 C.ar      23 UNK        -0.1150 
     15 C15         4.0566  -19.3573  -50.1161 C.3       23 UNK        -0.0205 
     16 S16         3.9973  -20.3174  -48.5676 S.3       23 UNK        -0.2404 
     17 C17         2.6911  -19.4545  -47.6260 C.3       23 UNK        -0.0398 
     18 CA          1.3489  -20.2230  -47.6579 C.3       11 UNK         0.1400 
     19 N           1.4420  -21.5364  -47.0163 N.am      11 UNK        -0.5000 
     20 C           0.5190  -22.4992  -47.1439 C.2       10 UNK         0.5000 
     21 O          -0.4984  -22.3832  -47.8240 O.2       10 UNK        -0.5000 
     22 CA          0.7413  -23.7965  -46.3467 C.3       10 UNK         0.1400 
     23 CB          1.5699  -24.7943  -47.1692 C.3       10 UNK        -0.1800 
     24 N           1.3834  -23.5938  -45.0475 N.am      10 UNK        -0.5000 
     25 C           0.9250  -22.8115  -44.0605 C.2       9 UNK         0.5000 
     26 O          -0.1008  -22.1349  -44.1440 O.2       9 UNK        -0.5000 
     27 CA          1.7525  -22.7599  -42.7626 C.3       9 UNK         0.1400 
     28 CB          2.8329  -23.8595  -42.6577 C.3       9 UNK        -0.1800 
     29 N           2.3581  -21.4474  -42.5324 N.am      9 UNK        -0.5000 
     30 C           3.1807  -20.7627  -43.3443 C.2       8 UNK         0.5000 
     31 O           3.4283  -21.0974  -44.5041 O.2       8 UNK        -0.5000 
     32 CA          3.8607  -19.4989  -42.7682 C.3       8 UNK         0.1400 
     33 CB          3.4490  -18.2380  -43.5434 C.3       8 UNK        -0.1800 
     34 N           3.5982  -19.2965  -41.3394 N.am      8 UNK        -0.5000 
     35 C           4.1854  -19.9912  -40.3509 C.2       7 UNK         0.5000 
     36 O           5.0888  -20.8059  -40.5417 O.2       7 UNK        -0.5000 
     37 CA          3.6638  -19.7777  -38.9122 C.3       7 UNK         0.1400 
     38 CB          4.5955  -18.8310  -38.1404 C.3       7 UNK        -0.1800 
     39 N           2.2974  -19.2549  -38.8395 N.am      7 UNK        -0.5000 
     40 C           1.1997  -19.8478  -39.3306 C.2       6 UNK         0.5000 
     41 O           1.2014  -20.9763  -39.8225 O.2       6 UNK        -0.5000 
     42 CA         -0.1067  -19.0241  -39.3301 C.3       6 UNK         0.1400 
     43 CB         -1.0253  -19.4759  -38.1852 C.3       6 UNK        -0.1800 
     44 N           0.0715  -17.5678  -39.2497 N.am      6 UNK        -0.5000 
     45 C           0.7995  -16.8157  -40.0869 C.2       5 UNK         0.5000 
     46 O           1.4613  -17.2779  -41.0174 O.2       5 UNK        -0.5000 
     47 CA          0.7760  -15.3030  -39.8240 C.3       5 UNK         0.1400 
     48 CB          1.9694  -14.5763  -40.4704 C.3       5 UNK        -0.1800 
     49 N          -0.4662  -14.7493  -40.3522 N.am      5 UNK        -0.5000 
     50 C          -1.5827  -14.5423  -39.6413 C.2       4 UNK         0.5000 
     51 O          -1.6758  -14.8003  -38.4403 O.2       4 UNK        -0.5000 
     52 CA         -2.7996  -13.9414  -40.3765 C.3       4 UNK         0.1400 
     53 CB         -2.8925  -12.4316  -40.1073 C.3       4 UNK        -0.1800 
     54 N          -2.7765  -14.1599  -41.8237 N.am      4 UNK        -0.5000 
     55 C          -3.0293  -15.3326  -42.4198 C.2       3 UNK         0.5000 
     56 O          -3.3809  -16.3431  -41.8106 O.2       3 UNK        -0.5000 
     57 CA         -2.8382  -15.3985  -43.9500 C.3       3 UNK         0.1400 
     58 CB         -4.1794  -15.1940  -44.6702 C.3       3 UNK        -0.1800 
     59 N          -1.8450  -14.4703  -44.5086 N.am      3 UNK        -0.5000 
     60 C          -0.5639  -14.3657  -44.1224 C.2       2 UNK         0.5000 
     61 O          -0.0842  -15.0089  -43.1908 O.2       2 UNK        -0.5000 
     62 CA          0.3149  -13.3692  -44.9078 C.3       2 UNK         0.1400 
     63 CB          1.7980  -13.4048  -44.4825 C.3       2 UNK        -0.1800 
     64 N           0.1879  -13.5348  -46.3584 N.am      2 UNK        -0.5000 
     65 C           0.4326  -14.6456  -47.0724 C.2       1 UNK         0.5000 
     66 O           0.8828  -15.6831  -46.5841 O.2       1 UNK        -0.5000 
     67 C           0.2097  -19.3860  -47.0442 C.2       11 UNK         0.5000 
     68 O          -0.5898  -18.8116  -47.7842 O.2       11 UNK        -0.5000 
     69 N           0.1153  -19.3836  -45.7061 N.am      12 UNK        -0.5000 
     70 CA         -0.9582  -18.7134  -44.9722 C.3       12 UNK         0.1400 
     71 CB         -0.6287  -18.6581  -43.4720 C.3       12 UNK        -0.1800 
     72 C          -2.3287  -19.3699  -45.2100 C.2       12 UNK         0.5000 
     73 O          -3.3211  -18.6592  -45.3610 O.2       12 UNK        -0.5000 
     74 N          -2.3506  -20.7083  -45.2742 N.am      13 UNK        -0.5000 
     75 CA         -3.5364  -21.5065  -45.5843 C.3       13 UNK         0.1400 
     76 CB         -3.2300  -22.9908  -45.3369 C.3       13 UNK        -0.1800 
     77 C          -4.0544  -21.2899  -47.0194 C.2       13 UNK         0.5000 
     78 O          -5.2681  -21.3013  -47.2272 O.2       13 UNK        -0.5000 
     79 N          -3.1363  -21.0886  -47.9769 N.am      14 UNK        -0.5000 
     80 CA         -3.4483  -20.8076  -49.3784 C.3       14 UNK         0.1400 
     81 CB         -2.1847  -20.9609  -50.2379 C.3       14 UNK        -0.1800 
     82 C          -4.1100  -19.4359  -49.5970 C.2       14 UNK         0.5000 
     83 O          -4.9376  -19.3161  -50.4983 O.2       14 UNK        -0.5000 
     84 N          -3.7565  -18.4442  -48.7642 N.am      15 UNK        -0.5000 
     85 CA         -4.4353  -17.1518  -48.5837 C.3       15 UNK         0.1400 
     86 CB         -5.7136  -17.3612  -47.7469 C.3       15 UNK        -0.1800 
     87 C          -4.7126  -16.3678  -49.8898 C.2       15 UNK         0.5000 
     88 O          -5.7975  -15.8092  -50.0597 O.2       15 UNK        -0.5000 
     89 N          -3.7301  -16.3756  -50.8014 N.am      16 UNK        -0.5000 
     90 CA         -3.7424  -15.7775  -52.1440 C.3       16 UNK         0.1400 
     91 CB         -3.9343  -14.2485  -52.0887 C.3       16 UNK        -0.1800 
     92 C          -4.6763  -16.4628  -53.1668 C.2       16 UNK         0.5000 
     93 O          -4.8213  -15.9501  -54.2770 O.2       16 UNK        -0.5000 
     94 N          -5.2270  -17.6395  -52.8371 N.am      17 UNK        -0.5000 
     95 CA         -5.9730  -18.5092  -53.7526 C.3       17 UNK         0.1400 
     96 CB         -7.2042  -19.0777  -53.0245 C.3       17 UNK        -0.1800 
     97 C          -5.0498  -19.6168  -54.3008 C.2       17 UNK         0.5000 
     98 O          -5.4507  -20.7795  -54.3828 O.2       17 UNK        -0.5000 
     99 N          -3.8130  -19.2341  -54.6526 N.am      18 UNK        -0.5000 
    100 CA        -2.6931  -20.1028  -55.0255 C.3       18 UNK         0.1400 
    101 CB        -1.4984  -19.2227  -55.4262 C.3       18 UNK        -0.1800 
    102 C         -3.0013  -21.1082  -56.1470 C.2       18 UNK         0.5000 
    103 O         -2.5627  -22.2538  -56.0664 O.2       18 UNK        -0.5000 
    104 N         -3.7755  -20.6706  -57.1488 N.am      19 UNK        -0.5000 
    105 CA        -4.1883  -21.4778  -58.2987 C.3       19 UNK         0.1400 
    106 CB        -4.8601  -20.5612  -59.3329 C.3       19 UNK        -0.1800 
    107 C         -5.1171  -22.6547  -57.9379 C.2       19 UNK         0.5000 
    108 O         -5.1535  -23.6376  -58.6796 O.2       19 UNK        -0.5000 
    109 N         -5.8477  -22.5352  -56.8220 N.am      20 UNK        -0.5000 
    110 CA        -6.7186  -23.5792  -56.2884 C.3       20 UNK         0.1400 
    111 CB        -8.0189  -22.9357  -55.7795 C.3       20 UNK        -0.1800 
    112 C         -6.0249  -24.3553  -55.1576 C.2       20 UNK         0.5000 
    113 O         -6.1535  -25.5786  -55.0942 O.2       20 UNK        -0.5000 
    114 N         -5.3297  -23.6307  -54.2714 N.am      21 UNK        -0.5000 
    115 CA        -4.7300  -24.1681  -53.0537 C.3       21 UNK         0.1400 
    116 CB        -4.4285  -23.0091  -52.0948 C.3       21 UNK        -0.1800 
    117 C         -3.4607  -25.0020  -53.2936 C.2       21 UNK         0.5000 
    118 O         -3.3012  -26.0447  -52.6566 O.2       21 UNK        -0.5000 
    119 N         -2.5736  -24.5219  -54.1713 N.am      22 UNK        -0.5000 
    120 CA        -1.2614  -25.1277  -54.4396 C.3       22 UNK         0.1400 
    121 C         -1.2870  -26.0154  -55.7131 C.2       22 UNK         0.5000 
    122 N         -0.3822  -26.9798  -55.8160 N.am      22 UNK        -0.7600 
    123 O         -2.0939  -25.8320  -56.6220 O.2       22 UNK        -0.5000 
    124 C124       -0.1444  -24.0556  -54.5313 C.3       23 UNK        -0.0398 
    125 S125       -0.0008  -23.0484  -53.0135 S.3       23 UNK        -0.2404 
    126 C126        1.2650  -21.8539  -53.5418 C.3       23 UNK        -0.0205 
    127 H127       -2.4629  -11.7901  -49.8989 H         1 UNK         0.0600 
    128 H128       -3.1217  -11.5690  -48.2732 H         1 UNK         0.0600 
    129 H129       -3.9228  -12.6560  -49.4101 H         1 UNK         0.0600 
    130 H130       -0.5014  -12.8366  -49.5988 H         1 UNK         0.3000 
    131 H131        1.0785  -14.2598  -49.0409 H         1 UNK         0.0600 
    132 H132       -1.1860  -16.3020  -48.8298 H         1 UNK         0.0800 
    133 H133        0.5038  -16.7147  -48.8335 H         1 UNK         0.0800 
    134 H134       -1.2277  -17.7542  -52.2357 H         1 UNK         0.0800 
    135 H135       -1.2507  -18.1090  -50.5274 H         1 UNK         0.0800 
    136 H136       -0.5101  -19.9146  -52.9187 H         1 UNK         0.1150 
    137 H137        3.4077  -21.3073  -51.9148 H         1 UNK         0.1150 
    138 H138        1.9017  -17.7239  -50.1347 H         1 UNK         0.1150 
    139 H139        4.9064  -19.6993  -50.7086 H         1 UNK         0.0800 
    140 H140        4.2500  -18.3077  -49.8891 H         1 UNK         0.0800 
    141 H141        2.5750  -18.4410  -48.0121 H         1 UNK         0.0800 
    142 H142        3.0368  -19.3405  -46.5985 H         1 UNK         0.0800 
    143 H143        1.0838  -20.3909  -48.7040 H         1 UNK         0.0600 
    144 H144        2.2386  -21.6924  -46.4109 H         1 UNK         0.3000 
    145 H145       -0.2379  -24.2407  -46.1605 H         1 UNK         0.0600 
    146 H146        1.6557  -25.7535  -46.6582 H         1 UNK         0.0600 
    147 H147        1.1039  -24.9837  -48.1373 H         1 UNK         0.0600 
    148 H148        2.5774  -24.4211  -47.3576 H         1 UNK         0.0600 
    149 H149        2.2499  -24.0883  -44.8945 H         1 UNK         0.3000 
    150 H150        1.0437  -22.9176  -41.9485 H         1 UNK         0.0600 
    151 H151        2.3988  -24.8538  -42.7705 H         1 UNK         0.0600 
    152 H152        3.3155  -23.8325  -41.6804 H         1 UNK         0.0600 
    153 H153        3.6144  -23.7450  -43.4098 H         1 UNK         0.0600 
    154 H154        2.1714  -21.0620  -41.6133 H         1 UNK         0.3000 
    155 H155        4.9364  -19.6297  -42.9021 H         1 UNK         0.0600 
    156 H156        2.3722  -18.0845  -43.5227 H         1 UNK         0.0600 
    157 H157        3.7515  -18.3039  -44.5883 H         1 UNK         0.0600 
    158 H158        3.9192  -17.3467  -43.1276 H         1 UNK         0.0600 
    159 H159        2.8643  -18.6303  -41.1113 H         1 UNK         0.3000 
    160 H160        3.6722  -20.7501  -38.4159 H         1 UNK         0.0600 
    161 H161        4.6057  -17.8322  -38.5789 H         1 UNK         0.0600 
    162 H162        5.6214  -19.2019  -38.1446 H         1 UNK         0.0600 
    163 H163        4.2900  -18.7383  -37.0980 H         1 UNK         0.0600 
    164 H164        2.1952  -18.3247  -38.4625 H         1 UNK         0.3000 
    165 H165       -0.6119  -19.2330  -40.2753 H         1 UNK         0.0600 
    166 H166       -1.9954  -18.9812  -38.2387 H         1 UNK         0.0600 
    167 H167       -1.2080  -20.5505  -38.2297 H         1 UNK         0.0600 
    168 H168       -0.5885  -19.2568  -37.2101 H         1 UNK         0.0600 
    169 H169       -0.4545  -17.0946  -38.5274 H         1 UNK         0.3000 
    170 H170        0.8383  -15.1411  -38.7459 H         1 UNK         0.0600 
    171 H171        2.9129  -14.9487  -40.0698 H         1 UNK         0.0600 
    172 H172        1.9970  -14.7179  -41.5508 H         1 UNK         0.0600 
    173 H173        1.9317  -13.5048  -40.2746 H         1 UNK         0.0600 
    174 H174       -0.4885  -14.6309  -41.3614 H         1 UNK         0.3000 
    175 H175       -3.6956  -14.4148  -39.9692 H         1 UNK         0.0600 
    176 H176       -2.0266  -11.8983  -40.5019 H         1 UNK         0.0600 
    177 H177       -3.7869  -12.0038  -40.5607 H         1 UNK         0.0600 
    178 H178       -2.9436  -12.2277  -39.0369 H         1 UNK         0.0600 
    179 H179       -2.4968  -13.3793  -42.3990 H         1 UNK         0.3000 
    180 H180       -2.4917  -16.4051  -44.1722 H         1 UNK         0.0600 
    181 H181       -4.0849  -15.3844  -45.7390 H         1 UNK         0.0600 
    182 H182       -4.5566  -14.1793  -44.5395 H         1 UNK         0.0600 
    183 H183       -4.9369  -15.8810  -44.2902 H         1 UNK         0.0600 
    184 H184       -2.1423  -13.9453  -45.3199 H         1 UNK         0.3000 
    185 H185       -0.0684  -12.3747  -44.6756 H         1 UNK         0.0600 
    186 H186        2.2352  -14.3955  -44.6127 H         1 UNK         0.0600 
    187 H187        2.3920  -12.6971  -45.0606 H         1 UNK         0.0600 
    188 H188        1.9071  -13.1353  -43.4317 H         1 UNK         0.0600 
    189 H189       -0.1801  -12.7389  -46.8599 H         1 UNK         0.3000 
    190 H190        0.7557  -19.9481  -45.1675 H         1 UNK         0.3000 
    191 H191       -1.0169  -17.6883  -45.3438 H         1 UNK         0.0600 
    192 H192       -1.4897  -18.3312  -42.8876 H         1 UNK         0.0600 
    193 H193        0.1655  -17.9400  -43.2788 H         1 UNK         0.0600 
    194 H194       -0.3175  -19.6272  -43.0815 H         1 UNK         0.0600 
    195 H195       -1.4946  -21.2180  -45.0711 H         1 UNK         0.3000 
    196 H196       -4.3287  -21.2039  -44.8965 H         1 UNK         0.0600 
    197 H197       -2.4562  -23.3572  -46.0111 H         1 UNK         0.0600 
    198 H198       -2.8927  -23.1609  -44.3142 H         1 UNK         0.0600 
    199 H199       -4.1184  -23.6036  -45.4943 H         1 UNK         0.0600 
    200 H200       -2.1536  -21.1779  -47.7418 H         1 UNK         0.3000 
    201 H201       -4.1719  -21.5548  -49.7052 H         1 UNK         0.0600 
    202 H202       -1.3576  -20.3679  -49.8500 H         1 UNK         0.0600 
    203 H203       -2.3636  -20.6497  -51.2677 H         1 UNK         0.0600 
    204 H204       -1.8551  -21.9996  -50.2679 H         1 UNK         0.0600 
    205 H205       -3.0322  -18.6503  -48.0874 H         1 UNK         0.3000 
    206 H206       -3.7555  -16.5398  -47.9927 H         1 UNK         0.0600 
    207 H207       -5.4938  -17.8773  -46.8125 H         1 UNK         0.0600 
    208 H208       -6.1745  -16.4078  -47.4861 H         1 UNK         0.0600 
    209 H209       -6.4543  -17.9516  -48.2875 H         1 UNK         0.0600 
    210 H210       -2.8865  -16.8719  -50.5587 H         1 UNK         0.3000 
    211 H211       -2.7424  -15.9411  -52.5439 H         1 UNK         0.0600 
    212 H212       -3.8540  -13.8036  -53.0811 H         1 UNK         0.0600 
    213 H213       -3.1629  -13.7868  -51.4749 H         1 UNK         0.0600 
    214 H214       -4.9069  -13.9671  -51.6861 H         1 UNK         0.0600 
    215 H215       -5.0513  -18.0331  -51.9157 H         1 UNK         0.3000 
    216 H216       -6.3336  -17.9386  -54.6103 H         1 UNK         0.0600 
    217 H217       -6.9210  -19.7377  -52.2042 H         1 UNK         0.0600 
    218 H218       -7.8291  -19.6552  -53.7068 H         1 UNK         0.0600 
    219 H219       -7.8227  -18.2795  -52.6140 H         1 UNK         0.0600 
    220 H220       -3.6036  -18.2490  -54.5888 H         1 UNK         0.3000 
    221 H221       -2.4218  -20.6774  -54.1377 H         1 UNK         0.0600 
    222 H222       -1.2373  -18.5150  -54.6400 H         1 UNK         0.0600 
    223 H223       -1.7087  -18.6472  -56.3286 H         1 UNK         0.0600 
    224 H224       -0.6148  -19.8304  -55.6249 H         1 UNK         0.0600 
    225 H225       -4.1033  -19.7164  -57.1208 H         1 UNK         0.3000 
    226 H226       -3.2883  -21.9008  -58.7501 H         1 UNK         0.0600 
    227 H227       -5.7568  -20.0893  -58.9291 H         1 UNK         0.0600 
    228 H228       -4.1828  -19.7726  -59.6612 H         1 UNK         0.0600 
    229 H229       -5.1560  -21.1232  -60.2198 H         1 UNK         0.0600 
    230 H230       -5.7246  -21.7123  -56.2443 H         1 UNK         0.3000 
    231 H231       -6.9838  -24.2921  -57.0720 H         1 UNK         0.0600 
    232 H232       -7.8295  -22.2061  -54.9909 H         1 UNK         0.0600 
    233 H233       -8.6947  -23.6898  -55.3742 H         1 UNK         0.0600 
    234 H234       -8.5464  -22.4262  -56.5859 H         1 UNK         0.0600 
    235 H235       -5.3057  -22.6195  -54.3752 H         1 UNK         0.3000 
    236 H236       -5.4650  -24.8163  -52.5717 H         1 UNK         0.0600 
    237 H237       -5.3353  -22.4629  -51.8338 H         1 UNK         0.0600 
    238 H238       -3.9891  -23.3819  -51.1690 H         1 UNK         0.0600 
    239 H239       -3.7256  -22.2997  -52.5327 H         1 UNK         0.0600 
    240 H240       -2.7940  -23.6990  -54.7227 H         1 UNK         0.3000 
    241 H241       -0.9994  -25.7835  -53.6069 H         1 UNK         0.0600 
    242 H242       -0.3789  -27.5598  -56.6410 H         1 UNK         0.3800 
    243 H243        0.2925  -27.1561  -55.0874 H         1 UNK         0.3800 
    244 H244       -0.3187  -23.3932  -55.3800 H         1 UNK         0.0800 
    245 H245        0.8226  -24.5294  -54.7086 H         1 UNK         0.0800 
    246 H246        0.9856  -21.4320  -54.5080 H         1 UNK         0.0800 
    247 H247        2.2092  -22.3788  -53.6947 H         1 UNK         0.0800 
@<TRIPOS>BOND
     1    1    2 1    
     2    1  127 1    
     3    1  128 1    
     4    1  129 1    
     5    2    3 2    
     6    2    4 am   BACKBONE|DICT|INTERRES
     7    4    5 1    
     8    4  130 1    
     9    5    6 1    
    10    5   65 1    
    11    5  131 1    
    12    6    7 1    
    13    6  132 1    
    14    6  133 1    
    15    7    8 1    
    16    8    9 1    
    17    8  134 1    
    18    8  135 1    
    19    9   10 ar   
    20    9   14 ar   
    21   10   11 ar   
    22   10  136 1    
    23   11   12 ar   
    24   11  126 1    
    25   12   13 ar   
    26   12  137 1    
    27   13   14 ar   
    28   13   15 1    
    29   14  138 1    
    30   15   16 1    
    31   15  139 1    
    32   15  140 1    
    33   16   17 1    
    34   17   18 1    
    35   17  141 1    
    36   17  142 1    
    37   18   19 1    
    38   18   67 1    
    39   18  143 1    
    40   19   20 am   BACKBONE|DICT|INTERRES
    41   19  144 1    
    42   20   21 2    
    43   20   22 1    
    44   22   23 1    
    45   22   24 1    
    46   22  145 1    
    47   23  146 1    
    48   23  147 1    
    49   23  148 1    
    50   24   25 am   BACKBONE|DICT|INTERRES
    51   24  149 1    
    52   25   26 2    
    53   25   27 1    
    54   27   28 1    
    55   27   29 1    
    56   27  150 1    
    57   28  151 1    
    58   28  152 1    
    59   28  153 1    
    60   29   30 am   BACKBONE|DICT|INTERRES
    61   29  154 1    
    62   30   31 2    
    63   30   32 1    
    64   32   33 1    
    65   32   34 1    
    66   32  155 1    
    67   33  156 1    
    68   33  157 1    
    69   33  158 1    
    70   34   35 am   BACKBONE|DICT|INTERRES
    71   34  159 1    
    72   35   36 2    
    73   35   37 1    
    74   37   38 1    
    75   37   39 1    
    76   37  160 1    
    77   38  161 1    
    78   38  162 1    
    79   38  163 1    
    80   39   40 am   BACKBONE|DICT|INTERRES
    81   39  164 1    
    82   40   41 2    
    83   40   42 1    
    84   42   43 1    
    85   42   44 1    
    86   42  165 1    
    87   43  166 1    
    88   43  167 1    
    89   43  168 1    
    90   44   45 am   BACKBONE|DICT|INTERRES
    91   44  169 1    
    92   45   46 2    
    93   45   47 1    
    94   47   48 1    
    95   47   49 1    
    96   47  170 1    
    97   48  171 1    
    98   48  172 1    
    99   48  173 1    
   100   49   50 am   BACKBONE|DICT|INTERRES
   101   49  174 1    
   102   50   51 2    
   103   50   52 1    
   104   52   53 1    
   105   52   54 1    
   106   52  175 1    
   107   53  176 1    
   108   53  177 1    
   109   53  178 1    
   110   54   55 am   BACKBONE|DICT|INTERRES
   111   54  179 1    
   112   55   56 2    
   113   55   57 1    
   114   57   58 1    
   115   57   59 1    
   116   57  180 1    
   117   58  181 1    
   118   58  182 1    
   119   58  183 1    
   120   59   60 am   BACKBONE|DICT|INTERRES
   121   59  184 1    
   122   60   61 2    
   123   60   62 1    
   124   62   63 1    
   125   62   64 1    
   126   62  185 1    
   127   63  186 1    
   128   63  187 1    
   129   63  188 1    
   130   64   65 am   BACKBONE|DICT|INTERRES
   131   64  189 1    
   132   65   66 2    
   133   67   68 2    
   134   67   69 am   BACKBONE|DICT|INTERRES
   135   69   70 1    
   136   69  190 1    
   137   70   71 1    
   138   70   72 1    
   139   70  191 1    
   140   71  192 1    
   141   71  193 1    
   142   71  194 1    
   143   72   73 2    
   144   72   74 am   BACKBONE|DICT|INTERRES
   145   74   75 1    
   146   74  195 1    
   147   75   76 1    
   148   75   77 1    
   149   75  196 1    
   150   76  197 1    
   151   76  198 1    
   152   76  199 1    
   153   77   78 2    
   154   77   79 am   BACKBONE|DICT|INTERRES
   155   79   80 1    
   156   79  200 1    
   157   80   81 1    
   158   80   82 1    
   159   80  201 1    
   160   81  202 1    
   161   81  203 1    
   162   81  204 1    
   163   82   83 2    
   164   82   84 am   BACKBONE|DICT|INTERRES
   165   84   85 1    
   166   84  205 1    
   167   85   86 1    
   168   85   87 1    
   169   85  206 1    
   170   86  207 1    
   171   86  208 1    
   172   86  209 1    
   173   87   88 2    
   174   87   89 am   BACKBONE|DICT|INTERRES
   175   89   90 1    
   176   89  210 1    
   177   90   91 1    
   178   90   92 1    
   179   90  211 1    
   180   91  212 1    
   181   91  213 1    
   182   91  214 1    
   183   92   93 2    
   184   92   94 am   BACKBONE|DICT|INTERRES
   185   94   95 1    
   186   94  215 1    
   187   95   96 1    
   188   95   97 1    
   189   95  216 1    
   190   96  217 1    
   191   96  218 1    
   192   96  219 1    
   193   97   98 2    
   194   97   99 am   BACKBONE|DICT|INTERRES
   195   99  100 1    
   196   99  220 1    
   197  100  101 1    
   198  100  102 1    
   199  100  221 1    
   200  101  222 1    
   201  101  223 1    
   202  101  224 1    
   203  102  103 2    
   204  102  104 am   BACKBONE|DICT|INTERRES
   205  104  105 1    
   206  104  225 1    
   207  105  106 1    
   208  105  107 1    
   209  105  226 1    
   210  106  227 1    
   211  106  228 1    
   212  106  229 1    
   213  107  108 2    
   214  107  109 am   BACKBONE|DICT|INTERRES
   215  109  110 1    
   216  109  230 1    
   217  110  111 1    
   218  110  112 1    
   219  110  231 1    
   220  111  232 1    
   221  111  233 1    
   222  111  234 1    
   223  112  113 2    
   224  112  114 am   BACKBONE|DICT|INTERRES
   225  114  115 1    
   226  114  235 1    
   227  115  116 1    
   228  115  117 1    
   229  115  236 1    
   230  116  237 1    
   231  116  238 1    
   232  116  239 1    
   233  117  118 2    
   234  117  119 am   BACKBONE|DICT|INTERRES
   235  119  120 1    
   236  119  240 1    
   237  120  121 1    
   238  120  124 1    
   239  120  241 1    
   240  121  122 am   BACKBONE|DICT|INTERRES
   241  121  123 2    
   242  122  242 1    
   243  122  243 1    
   244  124  125 1    
   245  124  244 1    
   246  124  245 1    
   247  125  126 1    
   248  126  246 1    
   249  126  247 1    
@<TRIPOS>SUBSTRUCTURE
     1 UNK         1 GROUP             0       ****    0 ROOT    
