@<TRIPOS>MOLECULE
3R540
247   249    1
SMALL
USER_CHARGES


@<TRIPOS>ATOM
      1 CA         -2.2778   -8.8796  -47.4582 C.3       0 UNK        -0.1800 
      2 C          -1.5346   -9.9167  -46.6296 C.2       0 UNK         0.5000 
      3 O          -0.3095   -9.8585  -46.5317 O.2       0 UNK        -0.5000 
      4 N          -2.2701  -10.8530  -46.0146 N.am      1 UNK        -0.5000 
      5 CA         -1.7474  -11.9771  -45.2215 C.3       1 UNK         0.1400 
      6 C6         -2.8627  -12.9646  -44.8101 C.3       23 UNK        -0.0398 
      7 S7         -3.6603  -13.7338  -46.2592 S.3       23 UNK        -0.2404 
      8 C8         -2.6828  -15.2600  -46.3856 C.3       23 UNK        -0.0205 
      9 C9         -3.1942  -16.1612  -47.4956 C.ar      23 UNK        -0.0193 
     10 C10        -2.7077  -16.0255  -48.7982 C.ar      23 UNK        -0.1150 
     11 C11        -3.1767  -16.8569  -49.8198 C.ar      23 UNK        -0.0193 
     12 C12        -4.1404  -17.8284  -49.5307 C.ar      23 UNK        -0.1150 
     13 C13        -4.6306  -17.9750  -48.2295 C.ar      23 UNK        -0.0193 
     14 C14        -4.1529  -17.1384  -47.2168 C.ar      23 UNK        -0.1150 
     15 C15        -5.6754  -19.0356  -47.9104 C.3       23 UNK        -0.0205 
     16 S16        -5.0064  -20.7271  -47.9948 S.3       23 UNK        -0.2404 
     17 C17        -3.5603  -20.6090  -46.8892 C.3       23 UNK        -0.0398 
     18 CA         -2.8732  -21.9794  -46.6713 C.3       11 UNK         0.1400 
     19 N          -1.4135  -21.8517  -46.5911 N.am      11 UNK        -0.5000 
     20 C          -0.5484  -22.8686  -46.7079 C.2       10 UNK         0.5000 
     21 O          -0.8852  -24.0352  -46.8965 O.2       10 UNK        -0.5000 
     22 CA          0.9455  -22.5406  -46.5435 C.3       10 UNK         0.1400 
     23 CB          1.5239  -21.9579  -47.8414 C.3       10 UNK        -0.1800 
     24 N           1.2023  -21.6355  -45.4225 N.am      10 UNK        -0.5000 
     25 C           0.9335  -21.9314  -44.1423 C.2       9 UNK         0.5000 
     26 O           0.4836  -23.0165  -43.7753 O.2       9 UNK        -0.5000 
     27 CA          1.1483  -20.8165  -43.1039 C.3       9 UNK         0.1400 
     28 CB          2.6309  -20.7038  -42.7197 C.3       9 UNK        -0.1800 
     29 N           0.6560  -19.5179  -43.5628 N.am      9 UNK        -0.5000 
     30 C          -0.6252  -19.2432  -43.8476 C.2       8 UNK         0.5000 
     31 O          -1.5468  -20.0472  -43.7080 O.2       8 UNK        -0.5000 
     32 CA         -0.9164  -17.8545  -44.4454 C.3       8 UNK         0.1400 
     33 CB         -0.9227  -16.7721  -43.3538 C.3       8 UNK        -0.1800 
     34 N           0.0330  -17.4905  -45.4990 N.am      8 UNK        -0.5000 
     35 C           0.1901  -18.1735  -46.6431 C.2       7 UNK         0.5000 
     36 O          -0.4871  -19.1511  -46.9547 O.2       7 UNK        -0.5000 
     37 CA          1.3440  -17.7351  -47.5581 C.3       7 UNK         0.1400 
     38 CB          0.9258  -16.5583  -48.4513 C.3       7 UNK        -0.1800 
     39 N           2.5342  -17.3830  -46.7832 N.am      7 UNK        -0.5000 
     40 C           3.3009  -18.2772  -46.1411 C.2       6 UNK         0.5000 
     41 O           3.1092  -19.4922  -46.1811 O.2       6 UNK        -0.5000 
     42 CA          4.4466  -17.7208  -45.2745 C.3       6 UNK         0.1400 
     43 CB          5.6988  -17.4715  -46.1279 C.3       6 UNK        -0.1800 
     44 N           4.0793  -16.4864  -44.5795 N.am      6 UNK        -0.5000 
     45 C           3.1464  -16.4049  -43.6200 C.2       5 UNK         0.5000 
     46 O           2.5469  -17.3807  -43.1715 O.2       5 UNK        -0.5000 
     47 CA          2.7851  -14.9945  -43.1137 C.3       5 UNK         0.1400 
     48 CB          3.6230  -14.6318  -41.8794 C.3       5 UNK        -0.1800 
     49 N           2.9427  -13.9497  -44.1294 N.am      5 UNK        -0.5000 
     50 C           2.2690  -13.9004  -45.2866 C.2       4 UNK         0.5000 
     51 O           1.4348  -14.7426  -45.6249 O.2       4 UNK        -0.5000 
     52 CA          2.5980  -12.7096  -46.1973 C.3       4 UNK         0.1400 
     53 CB          1.7875  -12.6945  -47.5070 C.3       4 UNK        -0.1800 
     54 N           2.3799  -11.4684  -45.4601 N.am      4 UNK        -0.5000 
     55 C           3.1245  -10.3600  -45.5687 C.2       3 UNK         0.5000 
     56 O           4.1297  -10.2905  -46.2777 O.2       3 UNK        -0.5000 
     57 CA          2.6835   -9.1191  -44.7637 C.3       3 UNK         0.1400 
     58 CB          2.6299   -7.8676  -45.6573 C.3       3 UNK        -0.1800 
     59 N           1.3648   -9.3069  -44.1589 N.am      3 UNK        -0.5000 
     60 C           1.1115   -9.4139  -42.8475 C.2       2 UNK         0.5000 
     61 O           1.9742   -9.3191  -41.9740 O.2       2 UNK        -0.5000 
     62 CA         -0.3517   -9.6891  -42.4350 C.3       2 UNK         0.1400 
     63 CB         -1.0421   -8.3853  -42.0063 C.3       2 UNK        -0.1800 
     64 N          -1.1503  -10.3233  -43.4879 N.am      2 UNK        -0.5000 
     65 C          -0.9222  -11.5451  -43.9903 C.2       1 UNK         0.5000 
     66 O          -0.0542  -12.3005  -43.5549 O.2       1 UNK        -0.5000 
     67 C          -3.4830  -22.7486  -45.4784 C.2       11 UNK         0.5000 
     68 O          -4.5362  -23.3691  -45.6274 O.2       11 UNK        -0.5000 
     69 N          -2.8141  -22.7128  -44.3181 N.am      12 UNK        -0.5000 
     70 CA         -3.1513  -23.5369  -43.1594 C.3       12 UNK         0.1400 
     71 CB         -2.5291  -22.9259  -41.8944 C.3       12 UNK        -0.1800 
     72 C          -2.7006  -24.9982  -43.3489 C.2       12 UNK         0.5000 
     73 O          -3.4325  -25.9121  -42.9669 O.2       12 UNK        -0.5000 
     74 N          -1.5075  -25.1916  -43.9282 N.am      13 UNK        -0.5000 
     75 CA         -0.8965  -26.4985  -44.1677 C.3       13 UNK         0.1400 
     76 CB          0.5989  -26.3136  -44.4690 C.3       13 UNK        -0.1800 
     77 C          -1.5776  -27.3046  -45.2892 C.2       13 UNK         0.5000 
     78 O          -1.7541  -28.5141  -45.1334 O.2       13 UNK        -0.5000 
     79 N          -1.9348  -26.6384  -46.3932 N.am      14 UNK        -0.5000 
     80 CA         -2.5509  -27.2386  -47.5731 C.3       14 UNK         0.1400 
     81 CB         -1.4960  -27.3623  -48.6838 C.3       14 UNK        -0.1800 
     82 C          -3.7221  -26.3715  -48.0475 C.2       14 UNK         0.5000 
     83 O          -3.6331  -25.1435  -48.0013 O.2       14 UNK        -0.5000 
     84 N          -4.7851  -27.0263  -48.5342 N.am      15 UNK        -0.5000 
     85 CA         -5.9960  -26.3971  -49.0652 C.3       15 UNK         0.1400 
     86 CB         -6.9806  -27.4884  -49.5120 C.3       15 UNK        -0.1800 
     87 C          -5.6840  -25.4353  -50.2255 C.2       15 UNK         0.5000 
     88 O          -5.0272  -25.8367  -51.1899 O.2       15 UNK        -0.5000 
     89 N          -6.1136  -24.1740  -50.0754 N.am      16 UNK        -0.5000 
     90 CA         -5.8715  -23.0457  -50.9845 C.3       16 UNK         0.1400 
     91 CB         -6.6632  -23.2385  -52.2940 C.3       16 UNK        -0.1800 
     92 C          -4.3711  -22.7655  -51.2330 C.2       16 UNK         0.5000 
     93 O          -4.0081  -22.2781  -52.3051 O.2       16 UNK        -0.5000 
     94 N          -3.5258  -23.1189  -50.2522 N.am      17 UNK        -0.5000 
     95 CA         -2.0622  -23.0553  -50.2708 C.3       17 UNK         0.1400 
     96 CB         -1.5770  -21.5910  -50.3426 C.3       17 UNK        -0.1800 
     97 C          -1.4232  -23.9551  -51.3481 C.2       17 UNK         0.5000 
     98 O          -0.3098  -23.6714  -51.7909 O.2       17 UNK        -0.5000 
     99 N          -2.1488  -25.0003  -51.7817 N.am      18 UNK        -0.5000 
    100 CA        -1.8497  -25.9656  -52.8513 C.3       18 UNK         0.1400 
    101 CB        -0.5589  -26.7524  -52.5555 C.3       18 UNK        -0.1800 
    102 C         -1.8155  -25.3630  -54.2730 C.2       18 UNK         0.5000 
    103 O         -2.2325  -26.0255  -55.2226 O.2       18 UNK        -0.5000 
    104 N         -1.3497  -24.1163  -54.3960 N.am      19 UNK        -0.5000 
    105 CA        -1.2020  -23.3414  -55.6268 C.3       19 UNK         0.1400 
    106 CB        -0.0606  -22.3317  -55.4153 C.3       19 UNK        -0.1800 
    107 C         -2.5003  -22.6448  -56.0914 C.2       19 UNK         0.5000 
    108 O         -2.4243  -21.7326  -56.9152 O.2       19 UNK        -0.5000 
    109 N         -3.6593  -23.0673  -55.5639 N.am      20 UNK        -0.5000 
    110 CA        -5.0094  -22.5995  -55.8991 C.3       20 UNK         0.1400 
    111 CB        -5.3881  -23.0208  -57.3345 C.3       20 UNK        -0.1800 
    112 C         -5.1836  -21.0888  -55.6448 C.2       20 UNK         0.5000 
    113 O         -5.4650  -20.3255  -56.5703 O.2       20 UNK        -0.5000 
    114 N         -4.9817  -20.7032  -54.3789 N.am      21 UNK        -0.5000 
    115 CA        -4.9752  -19.3417  -53.8438 C.3       21 UNK         0.1400 
    116 CB        -6.3095  -18.6074  -54.0938 C.3       21 UNK        -0.1800 
    117 C         -3.7312  -18.5630  -54.3060 C.2       21 UNK         0.5000 
    118 O         -3.8398  -17.4278  -54.7728 O.2       21 UNK        -0.5000 
    119 N         -2.5649  -19.1949  -54.1176 N.am      22 UNK        -0.5000 
    120 CA        -1.2249  -18.6092  -54.3012 C.3       22 UNK         0.1400 
    121 C         -0.8546  -18.2859  -55.7819 C.2       22 UNK         0.5000 
    122 N         -1.3912  -18.9937  -56.7677 N.am      22 UNK        -0.7600 
    123 O         -0.0528  -17.3951  -56.0509 O.2       22 UNK        -0.5000 
    124 C124       -0.9441  -17.4174  -53.3381 C.3       23 UNK        -0.0398 
    125 S125       -1.2648  -17.8092  -51.5810 S.3       23 UNK        -0.2404 
    126 C126       -2.6592  -16.6915  -51.2387 C.3       23 UNK        -0.0205 
    127 H127       -2.0846   -7.8802  -47.0682 H         1 UNK         0.0600 
    128 H128       -1.9375   -8.9147  -48.4931 H         1 UNK         0.0600 
    129 H129       -3.3549   -9.0479  -47.4477 H         1 UNK         0.0600 
    130 H130       -3.2724  -10.8480  -46.1416 H         1 UNK         0.3000 
    131 H131       -1.0540  -12.5198  -45.8655 H         1 UNK         0.0600 
    132 H132       -2.4706  -13.7517  -44.1633 H         1 UNK         0.0800 
    133 H133       -3.6294  -12.4521  -44.2266 H         1 UNK         0.0800 
    134 H134       -2.7408  -15.7871  -45.4347 H         1 UNK         0.0800 
    135 H135       -1.6310  -15.0175  -46.5479 H         1 UNK         0.0800 
    136 H136       -1.9663  -15.2698  -49.0168 H         1 UNK         0.1150 
    137 H137       -4.5037  -18.4768  -50.3155 H         1 UNK         0.1150 
    138 H138       -4.5285  -17.2455  -46.2089 H         1 UNK         0.1150 
    139 H139       -6.1000  -18.8734  -46.9185 H         1 UNK         0.0800 
    140 H140       -6.5037  -18.9475  -48.6146 H         1 UNK         0.0800 
    141 H141       -3.8390  -20.1349  -45.9460 H         1 UNK         0.0800 
    142 H142       -2.8697  -19.9206  -47.3750 H         1 UNK         0.0800 
    143 H143       -3.0643  -22.5930  -47.5506 H         1 UNK         0.0600 
    144 H144       -1.0462  -20.9086  -46.4888 H         1 UNK         0.3000 
    145 H145        1.4681  -23.4764  -46.3359 H         1 UNK         0.0600 
    146 H146        2.5971  -21.7885  -47.7538 H         1 UNK         0.0600 
    147 H147        1.3694  -22.6415  -48.6774 H         1 UNK         0.0600 
    148 H148        1.0558  -21.0099  -48.1043 H         1 UNK         0.0600 
    149 H149        1.6186  -20.7373  -45.6461 H         1 UNK         0.3000 
    150 H150        0.5855  -21.0861  -42.2079 H         1 UNK         0.0600 
    151 H151        3.0129  -21.6574  -42.3532 H         1 UNK         0.0600 
    152 H152        2.7775  -19.9685  -41.9284 H         1 UNK         0.0600 
    153 H153        3.2466  -20.4073  -43.5690 H         1 UNK         0.0600 
    154 H154        1.3456  -18.7762  -43.6496 H         1 UNK         0.3000 
    155 H155       -1.9086  -17.8957  -44.8986 H         1 UNK         0.0600 
    156 H156       -0.0053  -16.7822  -42.7664 H         1 UNK         0.0600 
    157 H157       -1.7511  -16.9276  -42.6619 H         1 UNK         0.0600 
    158 H158       -1.0302  -15.7733  -43.7760 H         1 UNK         0.0600 
    159 H159        0.6201  -16.6802  -45.3373 H         1 UNK         0.3000 
    160 H160        1.5965  -18.5748  -48.2089 H         1 UNK         0.0600 
    161 H161        1.7482  -16.2276  -49.0854 H         1 UNK         0.0600 
    162 H162        0.5800  -15.7035  -47.8711 H         1 UNK         0.0600 
    163 H163        0.1080  -16.8524  -49.1084 H         1 UNK         0.0600 
    164 H164        2.7059  -16.3978  -46.6429 H         1 UNK         0.3000 
    165 H165        4.6904  -18.4737  -44.5220 H         1 UNK         0.0600 
    166 H166        6.5383  -17.1495  -45.5115 H         1 UNK         0.0600 
    167 H167        6.0063  -18.3823  -46.6436 H         1 UNK         0.0600 
    168 H168        5.5256  -16.7071  -46.8864 H         1 UNK         0.0600 
    169 H169        4.5315  -15.6371  -44.8834 H         1 UNK         0.3000 
    170 H170        1.7337  -15.0102  -42.8199 H         1 UNK         0.0600 
    171 H171        3.5058  -15.3804  -41.0946 H         1 UNK         0.0600 
    172 H172        4.6854  -14.5686  -42.1176 H         1 UNK         0.0600 
    173 H173        3.3138  -13.6736  -41.4611 H         1 UNK         0.0600 
    174 H174        3.5958  -13.2090  -43.9189 H         1 UNK         0.3000 
    175 H175        3.6544  -12.8062  -46.4556 H         1 UNK         0.0600 
    176 H176        0.7166  -12.6244  -47.3212 H         1 UNK         0.0600 
    177 H177        2.0702  -11.8490  -48.1343 H         1 UNK         0.0600 
    178 H178        1.9639  -13.6008  -48.0868 H         1 UNK         0.0600 
    179 H179        1.6002  -11.4738  -44.8141 H         1 UNK         0.3000 
    180 H180        3.4401   -8.9560  -43.9940 H         1 UNK         0.0600 
    181 H181        1.9214   -7.9916  -46.4774 H         1 UNK         0.0600 
    182 H182        3.6056   -7.6510  -46.0939 H         1 UNK         0.0600 
    183 H183        2.3301   -6.9890  -45.0858 H         1 UNK         0.0600 
    184 H184        0.6035   -9.4226  -44.8219 H         1 UNK         0.3000 
    185 H185       -0.3285  -10.3642  -41.5770 H         1 UNK         0.0600 
    186 H186       -0.4910   -7.8975  -41.2011 H         1 UNK         0.0600 
    187 H187       -1.1115   -7.6767  -42.8328 H         1 UNK         0.0600 
    188 H188       -2.0509   -8.5746  -41.6391 H         1 UNK         0.0600 
    189 H189       -1.8728   -9.7594  -43.9115 H         1 UNK         0.3000 
    190 H190       -1.9971  -22.1189  -44.2413 H         1 UNK         0.3000 
    191 H191       -4.2359  -23.5339  -43.0311 H         1 UNK         0.0600 
    192 H192       -1.4407  -22.9050  -41.9451 H         1 UNK         0.0600 
    193 H193       -2.8045  -23.5004  -41.0093 H         1 UNK         0.0600 
    194 H194       -2.8748  -21.9035  -41.7405 H         1 UNK         0.0600 
    195 H195       -0.9448  -24.3812  -44.1649 H         1 UNK         0.3000 
    196 H196       -0.9804  -27.0801  -43.2472 H         1 UNK         0.0600 
    197 H197        0.7575  -25.7158  -45.3668 H         1 UNK         0.0600 
    198 H198        1.0887  -27.2757  -44.6240 H         1 UNK         0.0600 
    199 H199        1.1093  -25.8180  -43.6430 H         1 UNK         0.0600 
    200 H200       -1.7552  -25.6374  -46.4600 H         1 UNK         0.3000 
    201 H201       -2.9350  -28.2332  -47.3379 H         1 UNK         0.0600 
    202 H202       -1.9270  -27.8044  -49.5827 H         1 UNK         0.0600 
    203 H203       -0.6672  -27.9979  -48.3720 H         1 UNK         0.0600 
    204 H204       -1.0868  -26.3887  -48.9583 H         1 UNK         0.0600 
    205 H205       -4.7585  -28.0345  -48.5733 H         1 UNK         0.3000 
    206 H206       -6.4560  -25.8342  -48.2503 H         1 UNK         0.0600 
    207 H207       -7.2554  -28.1380  -48.6808 H         1 UNK         0.0600 
    208 H208       -7.9012  -27.0486  -49.8979 H         1 UNK         0.0600 
    209 H209       -6.5590  -28.1120  -50.3015 H         1 UNK         0.0600 
    210 H210       -6.6128  -23.9404  -49.2281 H         1 UNK         0.3000 
    211 H211       -6.2668  -22.1595  -50.4866 H         1 UNK         0.0600 
    212 H212       -6.2426  -24.0364  -52.9069 H         1 UNK         0.0600 
    213 H213       -6.6644  -22.3262  -52.8894 H         1 UNK         0.0600 
    214 H214       -7.7050  -23.4866  -52.0917 H         1 UNK         0.0600 
    215 H215       -3.9156  -23.5719  -49.4325 H         1 UNK         0.3000 
    216 H216       -1.7317  -23.4707  -49.3212 H         1 UNK         0.0600 
    217 H217       -1.8047  -21.1328  -51.3053 H         1 UNK         0.0600 
    218 H218       -0.4982  -21.5267  -50.1998 H         1 UNK         0.0600 
    219 H219       -2.0393  -20.9811  -49.5666 H         1 UNK         0.0600 
    220 H220       -3.0755  -25.1115  -51.3830 H         1 UNK         0.3000 
    221 H221       -2.6772  -26.6768  -52.8373 H         1 UNK         0.0600 
    222 H222        0.3255  -26.1158  -52.5888 H         1 UNK         0.0600 
    223 H223       -0.5967  -27.2221  -51.5735 H         1 UNK         0.0600 
    224 H224       -0.4131  -27.5462  -53.2891 H         1 UNK         0.0600 
    225 H225       -0.9984  -23.6820  -53.5474 H         1 UNK         0.3000 
    226 H226       -0.9064  -24.0185  -56.4305 H         1 UNK         0.0600 
    227 H227        0.8713  -22.8402  -55.1675 H         1 UNK         0.0600 
    228 H228        0.1262  -21.7404  -56.3126 H         1 UNK         0.0600 
    229 H229       -0.2877  -21.6421  -54.6031 H         1 UNK         0.0600 
    230 H230       -3.6068  -23.7944  -54.8655 H         1 UNK         0.3000 
    231 H231       -5.6933  -23.1106  -55.2205 H         1 UNK         0.0600 
    232 H232       -5.2974  -24.0992  -57.4645 H         1 UNK         0.0600 
    233 H233       -4.7565  -22.5395  -58.0817 H         1 UNK         0.0600 
    234 H234       -6.4211  -22.7525  -57.5587 H         1 UNK         0.0600 
    235 H235       -4.6882  -21.4138  -53.7092 H         1 UNK         0.3000 
    236 H236       -4.8732  -19.4509  -52.7629 H         1 UNK         0.0600 
    237 H237       -6.3366  -17.6627  -53.5497 H         1 UNK         0.0600 
    238 H238       -6.4612  -18.3763  -55.1481 H         1 UNK         0.0600 
    239 H239       -7.1567  -19.2026  -53.7535 H         1 UNK         0.0600 
    240 H240       -2.5874  -20.1296  -53.7374 H         1 UNK         0.3000 
    241 H241       -0.5277  -19.3965  -54.0169 H         1 UNK         0.0600 
    242 H242       -1.9971  -19.7875  -56.5924 H         1 UNK         0.3800 
    243 H243       -1.1389  -18.7738  -57.7176 H         1 UNK         0.3800 
    244 H244        0.1021  -17.1163  -53.4110 H         1 UNK         0.0800 
    245 H245       -1.5246  -16.5431  -53.6358 H         1 UNK         0.0800 
    246 H246       -2.3424  -15.6604  -51.4034 H         1 UNK         0.0800 
    247 H247       -3.4672  -16.8797  -51.9455 H         1 UNK         0.0800 
@<TRIPOS>BOND
     1    1    2 1    
     2    1  127 1    
     3    1  128 1    
     4    1  129 1    
     5    2    3 2    
     6    2    4 am   BACKBONE|DICT|INTERRES
     7    4    5 1    
     8    4  130 1    
     9    5    6 1    
    10    5   65 1    
    11    5  131 1    
    12    6    7 1    
    13    6  132 1    
    14    6  133 1    
    15    7    8 1    
    16    8    9 1    
    17    8  134 1    
    18    8  135 1    
    19    9   10 ar   
    20    9   14 ar   
    21   10   11 ar   
    22   10  136 1    
    23   11   12 ar   
    24   11  126 1    
    25   12   13 ar   
    26   12  137 1    
    27   13   14 ar   
    28   13   15 1    
    29   14  138 1    
    30   15   16 1    
    31   15  139 1    
    32   15  140 1    
    33   16   17 1    
    34   17   18 1    
    35   17  141 1    
    36   17  142 1    
    37   18   19 1    
    38   18   67 1    
    39   18  143 1    
    40   19   20 am   BACKBONE|DICT|INTERRES
    41   19  144 1    
    42   20   21 2    
    43   20   22 1    
    44   22   23 1    
    45   22   24 1    
    46   22  145 1    
    47   23  146 1    
    48   23  147 1    
    49   23  148 1    
    50   24   25 am   BACKBONE|DICT|INTERRES
    51   24  149 1    
    52   25   26 2    
    53   25   27 1    
    54   27   28 1    
    55   27   29 1    
    56   27  150 1    
    57   28  151 1    
    58   28  152 1    
    59   28  153 1    
    60   29   30 am   BACKBONE|DICT|INTERRES
    61   29  154 1    
    62   30   31 2    
    63   30   32 1    
    64   32   33 1    
    65   32   34 1    
    66   32  155 1    
    67   33  156 1    
    68   33  157 1    
    69   33  158 1    
    70   34   35 am   BACKBONE|DICT|INTERRES
    71   34  159 1    
    72   35   36 2    
    73   35   37 1    
    74   37   38 1    
    75   37   39 1    
    76   37  160 1    
    77   38  161 1    
    78   38  162 1    
    79   38  163 1    
    80   39   40 am   BACKBONE|DICT|INTERRES
    81   39  164 1    
    82   40   41 2    
    83   40   42 1    
    84   42   43 1    
    85   42   44 1    
    86   42  165 1    
    87   43  166 1    
    88   43  167 1    
    89   43  168 1    
    90   44   45 am   BACKBONE|DICT|INTERRES
    91   44  169 1    
    92   45   46 2    
    93   45   47 1    
    94   47   48 1    
    95   47   49 1    
    96   47  170 1    
    97   48  171 1    
    98   48  172 1    
    99   48  173 1    
   100   49   50 am   BACKBONE|DICT|INTERRES
   101   49  174 1    
   102   50   51 2    
   103   50   52 1    
   104   52   53 1    
   105   52   54 1    
   106   52  175 1    
   107   53  176 1    
   108   53  177 1    
   109   53  178 1    
   110   54   55 am   BACKBONE|DICT|INTERRES
   111   54  179 1    
   112   55   56 2    
   113   55   57 1    
   114   57   58 1    
   115   57   59 1    
   116   57  180 1    
   117   58  181 1    
   118   58  182 1    
   119   58  183 1    
   120   59   60 am   BACKBONE|DICT|INTERRES
   121   59  184 1    
   122   60   61 2    
   123   60   62 1    
   124   62   63 1    
   125   62   64 1    
   126   62  185 1    
   127   63  186 1    
   128   63  187 1    
   129   63  188 1    
   130   64   65 am   BACKBONE|DICT|INTERRES
   131   64  189 1    
   132   65   66 2    
   133   67   68 2    
   134   67   69 am   BACKBONE|DICT|INTERRES
   135   69   70 1    
   136   69  190 1    
   137   70   71 1    
   138   70   72 1    
   139   70  191 1    
   140   71  192 1    
   141   71  193 1    
   142   71  194 1    
   143   72   73 2    
   144   72   74 am   BACKBONE|DICT|INTERRES
   145   74   75 1    
   146   74  195 1    
   147   75   76 1    
   148   75   77 1    
   149   75  196 1    
   150   76  197 1    
   151   76  198 1    
   152   76  199 1    
   153   77   78 2    
   154   77   79 am   BACKBONE|DICT|INTERRES
   155   79   80 1    
   156   79  200 1    
   157   80   81 1    
   158   80   82 1    
   159   80  201 1    
   160   81  202 1    
   161   81  203 1    
   162   81  204 1    
   163   82   83 2    
   164   82   84 am   BACKBONE|DICT|INTERRES
   165   84   85 1    
   166   84  205 1    
   167   85   86 1    
   168   85   87 1    
   169   85  206 1    
   170   86  207 1    
   171   86  208 1    
   172   86  209 1    
   173   87   88 2    
   174   87   89 am   BACKBONE|DICT|INTERRES
   175   89   90 1    
   176   89  210 1    
   177   90   91 1    
   178   90   92 1    
   179   90  211 1    
   180   91  212 1    
   181   91  213 1    
   182   91  214 1    
   183   92   93 2    
   184   92   94 am   BACKBONE|DICT|INTERRES
   185   94   95 1    
   186   94  215 1    
   187   95   96 1    
   188   95   97 1    
   189   95  216 1    
   190   96  217 1    
   191   96  218 1    
   192   96  219 1    
   193   97   98 2    
   194   97   99 am   BACKBONE|DICT|INTERRES
   195   99  100 1    
   196   99  220 1    
   197  100  101 1    
   198  100  102 1    
   199  100  221 1    
   200  101  222 1    
   201  101  223 1    
   202  101  224 1    
   203  102  103 2    
   204  102  104 am   BACKBONE|DICT|INTERRES
   205  104  105 1    
   206  104  225 1    
   207  105  106 1    
   208  105  107 1    
   209  105  226 1    
   210  106  227 1    
   211  106  228 1    
   212  106  229 1    
   213  107  108 2    
   214  107  109 am   BACKBONE|DICT|INTERRES
   215  109  110 1    
   216  109  230 1    
   217  110  111 1    
   218  110  112 1    
   219  110  231 1    
   220  111  232 1    
   221  111  233 1    
   222  111  234 1    
   223  112  113 2    
   224  112  114 am   BACKBONE|DICT|INTERRES
   225  114  115 1    
   226  114  235 1    
   227  115  116 1    
   228  115  117 1    
   229  115  236 1    
   230  116  237 1    
   231  116  238 1    
   232  116  239 1    
   233  117  118 2    
   234  117  119 am   BACKBONE|DICT|INTERRES
   235  119  120 1    
   236  119  240 1    
   237  120  121 1    
   238  120  124 1    
   239  120  241 1    
   240  121  122 am   BACKBONE|DICT|INTERRES
   241  121  123 2    
   242  122  242 1    
   243  122  243 1    
   244  124  125 1    
   245  124  244 1    
   246  124  245 1    
   247  125  126 1    
   248  126  246 1    
   249  126  247 1    
@<TRIPOS>SUBSTRUCTURE
     1 UNK         1 GROUP             0       ****    0 ROOT    
