@<TRIPOS>MOLECULE
3R540
247   249    1
SMALL
USER_CHARGES


@<TRIPOS>ATOM
      1 CA         -0.9526  -10.5511  -45.7364 C.3       0 UNK        -0.1800 
      2 C           0.3971  -10.9235  -46.3342 C.2       0 UNK         0.5000 
      3 O           1.2779  -10.0693  -46.4407 O.2       0 UNK        -0.5000 
      4 N           0.5561  -12.1916  -46.7307 N.am      1 UNK        -0.5000 
      5 CA          1.7991  -12.7646  -47.2599 C.3       1 UNK         0.1400 
      6 C6          1.5599  -14.1547  -47.9013 C.3       23 UNK        -0.0398 
      7 S7          0.4518  -14.0452  -49.3480 S.3       23 UNK        -0.2404 
      8 C8          1.5607  -14.5120  -50.7149 C.3       23 UNK        -0.0205 
      9 C9          1.4641  -15.9983  -51.0232 C.ar      23 UNK        -0.0193 
     10 C10         0.5687  -16.4477  -51.9981 C.ar      23 UNK        -0.1150 
     11 C11         0.4639  -17.8086  -52.2971 C.ar      23 UNK        -0.0193 
     12 C12         1.2595  -18.7255  -51.6052 C.ar      23 UNK        -0.1150 
     13 C13         2.1460  -18.2918  -50.6127 C.ar      23 UNK        -0.0193 
     14 C14         2.2567  -16.9245  -50.3384 C.ar      23 UNK        -0.1150 
     15 C15         2.9511  -19.3098  -49.8124 C.3       23 UNK        -0.0205 
     16 S16         2.5061  -19.3328  -48.0396 S.3       23 UNK        -0.2404 
     17 C17         0.6932  -19.5349  -48.0878 C.3       23 UNK        -0.0398 
     18 CA          0.2069  -20.9171  -47.5913 C.3       11 UNK         0.1400 
     19 N           0.2377  -21.0425  -46.1305 N.am      11 UNK        -0.5000 
     20 C          -0.1096  -22.1372  -45.4366 C.2       10 UNK         0.5000 
     21 O          -0.4104  -23.2125  -45.9553 O.2       10 UNK        -0.5000 
     22 CA         -0.2013  -21.9915  -43.9059 C.3       10 UNK         0.1400 
     23 CB          1.1855  -22.0883  -43.2535 C.3       10 UNK        -0.1800 
     24 N          -0.8652  -20.7507  -43.4986 N.am      10 UNK        -0.5000 
     25 C          -2.1472  -20.4590  -43.7666 C.2       9 UNK         0.5000 
     26 O          -2.9158  -21.2292  -44.3413 O.2       9 UNK        -0.5000 
     27 CA         -2.6479  -19.0587  -43.3692 C.3       9 UNK         0.1400 
     28 CB         -3.0137  -19.0092  -41.8785 C.3       9 UNK        -0.1800 
     29 N          -1.6791  -18.0073  -43.6767 N.am      9 UNK        -0.5000 
     30 C          -1.2775  -17.6811  -44.9133 C.2       8 UNK         0.5000 
     31 O          -1.7375  -18.1893  -45.9358 O.2       8 UNK        -0.5000 
     32 CA         -0.1278  -16.6605  -45.0232 C.3       8 UNK         0.1400 
     33 CB         -0.6521  -15.2226  -44.8927 C.3       8 UNK        -0.1800 
     34 N           0.9265  -16.8969  -44.0346 N.am      8 UNK        -0.5000 
     35 C           1.6624  -18.0164  -43.9684 C.2       7 UNK         0.5000 
     36 O           1.5647  -18.9433  -44.7687 O.2       7 UNK        -0.5000 
     37 CA          2.6161  -18.1581  -42.7715 C.3       7 UNK         0.1400 
     38 CB          3.9569  -17.4612  -43.0448 C.3       7 UNK        -0.1800 
     39 N           2.0136  -17.6307  -41.5481 N.am      7 UNK        -0.5000 
     40 C           1.0328  -18.2445  -40.8709 C.2       6 UNK         0.5000 
     41 O           0.5802  -19.3473  -41.1787 O.2       6 UNK        -0.5000 
     42 CA          0.4297  -17.4805  -39.6758 C.3       6 UNK         0.1400 
     43 CB          1.2646  -17.7143  -38.4082 C.3       6 UNK        -0.1800 
     44 N           0.3178  -16.0413  -39.9227 N.am      6 UNK        -0.5000 
     45 C          -0.4987  -15.4914  -40.8327 C.2       5 UNK         0.5000 
     46 O          -1.2935  -16.1410  -41.5101 O.2       5 UNK        -0.5000 
     47 CA         -0.3734  -13.9714  -41.0648 C.3       5 UNK         0.1400 
     48 CB         -1.3612  -13.2092  -40.1698 C.3       5 UNK        -0.1800 
     49 N           0.9777  -13.4379  -40.8579 N.am      5 UNK        -0.5000 
     50 C           2.0775  -13.8508  -41.5020 C.2       4 UNK         0.5000 
     51 O           2.0798  -14.7651  -42.3299 O.2       4 UNK        -0.5000 
     52 CA          3.3970  -13.1756  -41.1037 C.3       4 UNK         0.1400 
     53 CB          3.7749  -13.5345  -39.6516 C.3       4 UNK        -0.1800 
     54 N           4.4512  -13.6149  -42.0129 N.am      4 UNK        -0.5000 
     55 C           5.6439  -13.0306  -42.1679 C.2       3 UNK         0.5000 
     56 O           5.9757  -11.9979  -41.5851 O.2       3 UNK        -0.5000 
     57 CA          6.6492  -13.7045  -43.1231 C.3       3 UNK         0.1400 
     58 CB          7.7412  -14.4202  -42.3126 C.3       3 UNK        -0.1800 
     59 N           6.0355  -14.6832  -44.0270 N.am      3 UNK        -0.5000 
     60 C           5.4141  -14.4510  -45.1921 C.2       2 UNK         0.5000 
     61 O           4.9423  -15.3767  -45.8532 O.2       2 UNK        -0.5000 
     62 CA          5.3291  -13.0105  -45.7520 C.3       2 UNK         0.1400 
     63 CB          6.5806  -12.6817  -46.5833 C.3       2 UNK        -0.1800 
     64 N           4.1546  -12.8287  -46.6040 N.am      2 UNK        -0.5000 
     65 C           2.8887  -12.8515  -46.1697 C.2       1 UNK         0.5000 
     66 O           2.5760  -12.9530  -44.9811 O.2       1 UNK        -0.5000 
     67 C          -1.1998  -21.1980  -48.1505 C.2       11 UNK         0.5000 
     68 O          -1.3300  -22.0254  -49.0503 O.2       11 UNK        -0.5000 
     69 N          -2.2224  -20.5291  -47.5971 N.am      12 UNK        -0.5000 
     70 CA         -3.6211  -20.6955  -47.9909 C.3       12 UNK         0.1400 
     71 CB         -4.5029  -19.6841  -47.2456 C.3       12 UNK        -0.1800 
     72 C          -4.1322  -22.1303  -47.7819 C.2       12 UNK         0.5000 
     73 O          -4.7874  -22.6655  -48.6747 O.2       12 UNK        -0.5000 
     74 N          -3.7919  -22.7399  -46.6379 N.am      13 UNK        -0.5000 
     75 CA         -4.1068  -24.1303  -46.3082 C.3       13 UNK         0.1400 
     76 CB         -3.7075  -24.4232  -44.8543 C.3       13 UNK        -0.1800 
     77 C          -3.4500  -25.1333  -47.2735 C.2       13 UNK         0.5000 
     78 O          -4.1372  -26.0216  -47.7797 O.2       13 UNK        -0.5000 
     79 N          -2.1514  -24.9458  -47.5535 N.am      14 UNK        -0.5000 
     80 CA         -1.3854  -25.7361  -48.5231 C.3       14 UNK         0.1400 
     81 CB          0.0977  -25.3441  -48.4461 C.3       14 UNK        -0.1800 
     82 C          -1.9125  -25.5911  -49.9639 C.2       14 UNK         0.5000 
     83 O          -1.9150  -26.5648  -50.7170 O.2       14 UNK        -0.5000 
     84 N          -2.3966  -24.3895  -50.2982 N.am      15 UNK        -0.5000 
     85 CA         -3.0504  -24.0422  -51.5566 C.3       15 UNK         0.1400 
     86 CB         -2.8288  -22.5454  -51.8242 C.3       15 UNK        -0.1800 
     87 C          -4.5506  -24.4066  -51.5982 C.2       15 UNK         0.5000 
     88 O          -5.2489  -23.9174  -52.4863 O.2       15 UNK        -0.5000 
     89 N          -5.0273  -25.2462  -50.6660 N.am      16 UNK        -0.5000 
     90 CA         -6.3849  -25.7968  -50.5806 C.3       16 UNK         0.1400 
     91 CB         -6.6627  -26.7331  -51.7763 C.3       16 UNK        -0.1800 
     92 C          -7.4578  -24.7026  -50.4128 C.2       16 UNK         0.5000 
     93 O          -8.3900  -24.6156  -51.2122 O.2       16 UNK        -0.5000 
     94 N          -7.2689  -23.8597  -49.3889 N.am      17 UNK        -0.5000 
     95 CA         -8.0356  -22.6452  -49.0841 C.3       17 UNK         0.1400 
     96 CB         -9.5119  -22.9667  -48.7692 C.3       17 UNK        -0.1800 
     97 C          -7.8566  -21.5690  -50.1752 C.2       17 UNK         0.5000 
     98 O          -8.8114  -20.8783  -50.5344 O.2       17 UNK        -0.5000 
     99 N          -6.6194  -21.4711  -50.6854 N.am      18 UNK        -0.5000 
    100 CA        -6.1491  -20.5806  -51.7526 C.3       18 UNK         0.1400 
    101 CB        -6.2213  -19.1079  -51.2976 C.3       18 UNK        -0.1800 
    102 C         -6.8144  -20.8176  -53.1285 C.2       18 UNK         0.5000 
    103 O         -6.7559  -19.9369  -53.9874 O.2       18 UNK        -0.5000 
    104 N         -7.4227  -21.9939  -53.3285 N.am      19 UNK        -0.5000 
    105 CA        -8.1270  -22.3627  -54.5554 C.3       19 UNK         0.1400 
    106 CB        -9.2754  -23.3195  -54.2020 C.3       19 UNK        -0.1800 
    107 C         -7.2074  -23.0095  -55.6061 C.2       19 UNK         0.5000 
    108 O         -7.4960  -22.8959  -56.7982 O.2       19 UNK        -0.5000 
    109 N         -6.1470  -23.6963  -55.1593 N.am      20 UNK        -0.5000 
    110 CA        -5.2161  -24.4323  -56.0102 C.3       20 UNK         0.1400 
    111 CB        -4.8124  -25.7476  -55.3139 C.3       20 UNK        -0.1800 
    112 C         -4.0196  -23.5406  -56.3817 C.2       20 UNK         0.5000 
    113 O         -4.1099  -22.7801  -57.3461 O.2       20 UNK        -0.5000 
    114 N         -2.9187  -23.6476  -55.6234 N.am      21 UNK        -0.5000 
    115 CA        -1.6188  -23.0273  -55.9105 C.3       21 UNK         0.1400 
    116 CB        -0.5935  -23.5067  -54.8714 C.3       21 UNK        -0.1800 
    117 C         -1.6258  -21.4875  -55.9926 C.2       21 UNK         0.5000 
    118 O         -0.7846  -20.9216  -56.6923 O.2       21 UNK        -0.5000 
    119 N         -2.5738  -20.8453  -55.3008 N.am      22 UNK        -0.5000 
    120 CA        -2.8184  -19.3958  -55.3699 C.3       22 UNK         0.1400 
    121 C         -3.8379  -18.9814  -56.4736 C.2       22 UNK         0.5000 
    122 N         -4.3911  -19.8925  -57.2658 N.am      22 UNK        -0.7600 
    123 O         -4.1188  -17.7967  -56.6334 O.2       22 UNK        -0.5000 
    124 C124       -3.2080  -18.8036  -53.9894 C.3       23 UNK        -0.0398 
    125 S125       -1.9812  -19.0722  -52.6619 S.3       23 UNK        -0.2404 
    126 C126       -0.5022  -18.2814  -53.3730 C.3       23 UNK        -0.0205 
    127 H127       -0.8230  -10.1858  -44.7177 H         1 UNK         0.0600 
    128 H128       -1.6325  -11.4032  -45.7073 H         1 UNK         0.0600 
    129 H129       -1.4202   -9.7627  -46.3262 H         1 UNK         0.0600 
    130 H130       -0.2081  -12.8407  -46.6215 H         1 UNK         0.3000 
    131 H131        2.1667  -12.0895  -48.0361 H         1 UNK         0.0600 
    132 H132        2.5040  -14.6114  -48.2019 H         1 UNK         0.0800 
    133 H133        1.1188  -14.8416  -47.1799 H         1 UNK         0.0800 
    134 H134        2.5913  -14.2314  -50.4934 H         1 UNK         0.0800 
    135 H135        1.2806  -13.9353  -51.5978 H         1 UNK         0.0800 
    136 H136       -0.0493  -15.7339  -52.5247 H         1 UNK         0.1150 
    137 H137        1.1665  -19.7800  -51.8251 H         1 UNK         0.1150 
    138 H138        2.9408  -16.5881  -49.5723 H         1 UNK         0.1150 
    139 H139        2.8174  -20.3135  -50.2188 H         1 UNK         0.0800 
    140 H140        4.0130  -19.0796  -49.9077 H         1 UNK         0.0800 
    141 H141        0.3409  -19.3522  -49.1020 H         1 UNK         0.0800 
    142 H142        0.2550  -18.7367  -47.4909 H         1 UNK         0.0800 
    143 H143        0.8692  -21.6840  -47.9985 H         1 UNK         0.0600 
    144 H144        0.5445  -20.2189  -45.6167 H         1 UNK         0.3000 
    145 H145       -0.8033  -22.8223  -43.5320 H         1 UNK         0.0600 
    146 H146        1.1162  -22.0245  -42.1675 H         1 UNK         0.0600 
    147 H147        1.6614  -23.0396  -43.4944 H         1 UNK         0.0600 
    148 H148        1.8514  -21.2961  -43.5936 H         1 UNK         0.0600 
    149 H149       -0.3056  -20.0792  -42.9861 H         1 UNK         0.3000 
    150 H150       -3.5528  -18.8549  -43.9453 H         1 UNK         0.0600 
    151 H151       -3.7518  -19.7734  -41.6322 H         1 UNK         0.0600 
    152 H152       -3.4431  -18.0436  -41.6108 H         1 UNK         0.0600 
    153 H153       -2.1439  -19.1751  -41.2429 H         1 UNK         0.0600 
    154 H154       -1.3058  -17.4869  -42.8880 H         1 UNK         0.3000 
    155 H155        0.3239  -16.7715  -46.0104 H         1 UNK         0.0600 
    156 H156       -1.2441  -15.0889  -43.9882 H         1 UNK         0.0600 
    157 H157       -1.2916  -14.9678  -45.7384 H         1 UNK         0.0600 
    158 H158        0.1647  -14.5012  -44.8658 H         1 UNK         0.0600 
    159 H159        1.1104  -16.1588  -43.3623 H         1 UNK         0.3000 
    160 H160        2.8175  -19.2211  -42.6238 H         1 UNK         0.0600 
    161 H161        3.8230  -16.4056  -43.2741 H         1 UNK         0.0600 
    162 H162        4.4590  -17.9147  -43.9004 H         1 UNK         0.0600 
    163 H163        4.6287  -17.5413  -42.1902 H         1 UNK         0.0600 
    164 H164        2.2661  -16.6856  -41.2940 H         1 UNK         0.3000 
    165 H165       -0.5738  -17.8748  -39.5018 H         1 UNK         0.0600 
    166 H166        0.8044  -17.2417  -37.5403 H         1 UNK         0.0600 
    167 H167        1.3510  -18.7795  -38.1893 H         1 UNK         0.0600 
    168 H168        2.2753  -17.3170  -38.5111 H         1 UNK         0.0600 
    169 H169        0.9362  -15.4368  -39.4029 H         1 UNK         0.3000 
    170 H170       -0.6405  -13.7773  -42.1048 H         1 UNK         0.0600 
    171 H171       -2.3807  -13.5674  -40.3197 H         1 UNK         0.0600 
    172 H172       -1.1226  -13.3305  -39.1124 H         1 UNK         0.0600 
    173 H173       -1.3574  -12.1427  -40.3958 H         1 UNK         0.0600 
    174 H174        1.0619  -12.6926  -40.1817 H         1 UNK         0.3000 
    175 H175        3.2677  -12.0957  -41.2000 H         1 UNK         0.0600 
    176 H176        3.9107  -14.6097  -39.5280 H         1 UNK         0.0600 
    177 H177        4.7005  -13.0462  -39.3470 H         1 UNK         0.0600 
    178 H178        3.0050  -13.2168  -38.9478 H         1 UNK         0.0600 
    179 H179        4.1983  -14.4119  -42.5833 H         1 UNK         0.3000 
    180 H180        7.1360  -12.9175  -43.6997 H         1 UNK         0.0600 
    181 H181        7.3281  -15.2224  -41.6996 H         1 UNK         0.0600 
    182 H182        8.2520  -13.7263  -41.6435 H         1 UNK         0.0600 
    183 H183        8.4985  -14.8530  -42.9668 H         1 UNK         0.0600 
    184 H184        6.0983  -15.6414  -43.7182 H         1 UNK         0.3000 
    185 H185        5.2464  -12.2948  -44.9336 H         1 UNK         0.0600 
    186 H186        7.4927  -12.7922  -45.9966 H         1 UNK         0.0600 
    187 H187        6.6715  -13.3407  -47.4479 H         1 UNK         0.0600 
    188 H188        6.5539  -11.6542  -46.9468 H         1 UNK         0.0600 
    189 H189        4.3336  -12.7655  -47.5953 H         1 UNK         0.3000 
    190 H190       -2.0312  -19.8365  -46.8775 H         1 UNK         0.3000 
    191 H191       -3.6883  -20.4748  -49.0582 H         1 UNK         0.0600 
    192 H192       -4.4617  -19.8309  -46.1662 H         1 UNK         0.0600 
    193 H193       -5.5458  -19.7758  -47.5520 H         1 UNK         0.0600 
    194 H194       -4.1909  -18.6609  -47.4556 H         1 UNK         0.0600 
    195 H195       -3.2872  -22.2092  -45.9323 H         1 UNK         0.3000 
    196 H196       -5.1887  -24.2516  -46.3912 H         1 UNK         0.0600 
    197 H197       -3.9458  -25.4523  -44.5827 H         1 UNK         0.0600 
    198 H198       -4.2406  -23.7719  -44.1616 H         1 UNK         0.0600 
    199 H199       -2.6392  -24.2786  -44.6919 H         1 UNK         0.0600 
    200 H200       -1.6474  -24.2013  -47.0783 H         1 UNK         0.3000 
    201 H201       -1.4758  -26.7873  -48.2420 H         1 UNK         0.0600 
    202 H202        0.4998  -25.5191  -47.4481 H         1 UNK         0.0600 
    203 H203        0.2481  -24.2909  -48.6860 H         1 UNK         0.0600 
    204 H204        0.6948  -25.9301  -49.1457 H         1 UNK         0.0600 
    205 H205       -2.2874  -23.6286  -49.6335 H         1 UNK         0.3000 
    206 H206       -2.5711  -24.5990  -52.3636 H         1 UNK         0.0600 
    207 H207       -1.7668  -22.3012  -51.8483 H         1 UNK         0.0600 
    208 H208       -3.2515  -22.2404  -52.7810 H         1 UNK         0.0600 
    209 H209       -3.2828  -21.9333  -51.0459 H         1 UNK         0.0600 
    210 H210       -4.3954  -25.5464  -49.9342 H         1 UNK         0.3000 
    211 H211       -6.4156  -26.4025  -49.6738 H         1 UNK         0.0600 
    212 H212       -6.6893  -26.1906  -52.7220 H         1 UNK         0.0600 
    213 H213       -7.6243  -27.2345  -51.6623 H         1 UNK         0.0600 
    214 H214       -5.8998  -27.5075  -51.8561 H         1 UNK         0.0600 
    215 H215       -6.4041  -23.9501  -48.8673 H         1 UNK         0.3000 
    216 H216       -7.5938  -22.2296  -48.1774 H         1 UNK         0.0600 
    217 H217      -10.0289  -22.0836  -48.3922 H         1 UNK         0.0600 
    218 H218       -9.5928  -23.7402  -48.0056 H         1 UNK         0.0600 
    219 H219      -10.0543  -23.3067  -49.6516 H         1 UNK         0.0600 
    220 H220       -5.9176  -22.0862  -50.2873 H         1 UNK         0.3000 
    221 H221       -5.0972  -20.8174  -51.8985 H         1 UNK         0.0600 
    222 H222       -7.2512  -18.7706  -51.1802 H         1 UNK         0.0600 
    223 H223       -5.7103  -18.9654  -50.3453 H         1 UNK         0.0600 
    224 H224       -5.7441  -18.4448  -52.0194 H         1 UNK         0.0600 
    225 H225       -7.3902  -22.6887  -52.5935 H         1 UNK         0.3000 
    226 H226       -8.5655  -21.4672  -55.0011 H         1 UNK         0.0600 
    227 H227       -9.9354  -22.8862  -53.4500 H         1 UNK         0.0600 
    228 H228       -9.8822  -23.5416  -55.0806 H         1 UNK         0.0600 
    229 H229       -8.9026  -24.2683  -53.8145 H         1 UNK         0.0600 
    230 H230       -5.9546  -23.7156  -54.1593 H         1 UNK         0.3000 
    231 H231       -5.7087  -24.7076  -56.9453 H         1 UNK         0.0600 
    232 H232       -5.6837  -26.3829  -55.1541 H         1 UNK         0.0600 
    233 H233       -4.3458  -25.5857  -54.3434 H         1 UNK         0.0600 
    234 H234       -4.1109  -26.3145  -55.9274 H         1 UNK         0.0600 
    235 H235       -2.9402  -24.2984  -54.8535 H         1 UNK         0.3000 
    236 H236       -1.3005  -23.3937  -56.8886 H         1 UNK         0.0600 
    237 H237        0.3986  -23.1095  -55.0905 H         1 UNK         0.0600 
    238 H238       -0.8573  -23.1839  -53.8652 H         1 UNK         0.0600 
    239 H239       -0.5117  -24.5937  -54.8664 H         1 UNK         0.0600 
    240 H240       -3.2373  -21.3901  -54.7728 H         1 UNK         0.3000 
    241 H241       -1.8922  -18.9064  -55.6729 H         1 UNK         0.0600 
    242 H242       -5.0418  -19.5919  -57.9734 H         1 UNK         0.3800 
    243 H243       -4.1709  -20.8811  -57.1861 H         1 UNK         0.3800 
    244 H244       -3.3735  -17.7275  -54.0649 H         1 UNK         0.0800 
    245 H245       -4.1550  -19.2289  -53.6612 H         1 UNK         0.0800 
    246 H246       -0.8023  -17.4380  -53.9968 H         1 UNK         0.0800 
    247 H247        0.0014  -18.9897  -54.0329 H         1 UNK         0.0800 
@<TRIPOS>BOND
     1    1    2 1    
     2    1  127 1    
     3    1  128 1    
     4    1  129 1    
     5    2    3 2    
     6    2    4 am   BACKBONE|DICT|INTERRES
     7    4    5 1    
     8    4  130 1    
     9    5    6 1    
    10    5   65 1    
    11    5  131 1    
    12    6    7 1    
    13    6  132 1    
    14    6  133 1    
    15    7    8 1    
    16    8    9 1    
    17    8  134 1    
    18    8  135 1    
    19    9   10 ar   
    20    9   14 ar   
    21   10   11 ar   
    22   10  136 1    
    23   11   12 ar   
    24   11  126 1    
    25   12   13 ar   
    26   12  137 1    
    27   13   14 ar   
    28   13   15 1    
    29   14  138 1    
    30   15   16 1    
    31   15  139 1    
    32   15  140 1    
    33   16   17 1    
    34   17   18 1    
    35   17  141 1    
    36   17  142 1    
    37   18   19 1    
    38   18   67 1    
    39   18  143 1    
    40   19   20 am   BACKBONE|DICT|INTERRES
    41   19  144 1    
    42   20   21 2    
    43   20   22 1    
    44   22   23 1    
    45   22   24 1    
    46   22  145 1    
    47   23  146 1    
    48   23  147 1    
    49   23  148 1    
    50   24   25 am   BACKBONE|DICT|INTERRES
    51   24  149 1    
    52   25   26 2    
    53   25   27 1    
    54   27   28 1    
    55   27   29 1    
    56   27  150 1    
    57   28  151 1    
    58   28  152 1    
    59   28  153 1    
    60   29   30 am   BACKBONE|DICT|INTERRES
    61   29  154 1    
    62   30   31 2    
    63   30   32 1    
    64   32   33 1    
    65   32   34 1    
    66   32  155 1    
    67   33  156 1    
    68   33  157 1    
    69   33  158 1    
    70   34   35 am   BACKBONE|DICT|INTERRES
    71   34  159 1    
    72   35   36 2    
    73   35   37 1    
    74   37   38 1    
    75   37   39 1    
    76   37  160 1    
    77   38  161 1    
    78   38  162 1    
    79   38  163 1    
    80   39   40 am   BACKBONE|DICT|INTERRES
    81   39  164 1    
    82   40   41 2    
    83   40   42 1    
    84   42   43 1    
    85   42   44 1    
    86   42  165 1    
    87   43  166 1    
    88   43  167 1    
    89   43  168 1    
    90   44   45 am   BACKBONE|DICT|INTERRES
    91   44  169 1    
    92   45   46 2    
    93   45   47 1    
    94   47   48 1    
    95   47   49 1    
    96   47  170 1    
    97   48  171 1    
    98   48  172 1    
    99   48  173 1    
   100   49   50 am   BACKBONE|DICT|INTERRES
   101   49  174 1    
   102   50   51 2    
   103   50   52 1    
   104   52   53 1    
   105   52   54 1    
   106   52  175 1    
   107   53  176 1    
   108   53  177 1    
   109   53  178 1    
   110   54   55 am   BACKBONE|DICT|INTERRES
   111   54  179 1    
   112   55   56 2    
   113   55   57 1    
   114   57   58 1    
   115   57   59 1    
   116   57  180 1    
   117   58  181 1    
   118   58  182 1    
   119   58  183 1    
   120   59   60 am   BACKBONE|DICT|INTERRES
   121   59  184 1    
   122   60   61 2    
   123   60   62 1    
   124   62   63 1    
   125   62   64 1    
   126   62  185 1    
   127   63  186 1    
   128   63  187 1    
   129   63  188 1    
   130   64   65 am   BACKBONE|DICT|INTERRES
   131   64  189 1    
   132   65   66 2    
   133   67   68 2    
   134   67   69 am   BACKBONE|DICT|INTERRES
   135   69   70 1    
   136   69  190 1    
   137   70   71 1    
   138   70   72 1    
   139   70  191 1    
   140   71  192 1    
   141   71  193 1    
   142   71  194 1    
   143   72   73 2    
   144   72   74 am   BACKBONE|DICT|INTERRES
   145   74   75 1    
   146   74  195 1    
   147   75   76 1    
   148   75   77 1    
   149   75  196 1    
   150   76  197 1    
   151   76  198 1    
   152   76  199 1    
   153   77   78 2    
   154   77   79 am   BACKBONE|DICT|INTERRES
   155   79   80 1    
   156   79  200 1    
   157   80   81 1    
   158   80   82 1    
   159   80  201 1    
   160   81  202 1    
   161   81  203 1    
   162   81  204 1    
   163   82   83 2    
   164   82   84 am   BACKBONE|DICT|INTERRES
   165   84   85 1    
   166   84  205 1    
   167   85   86 1    
   168   85   87 1    
   169   85  206 1    
   170   86  207 1    
   171   86  208 1    
   172   86  209 1    
   173   87   88 2    
   174   87   89 am   BACKBONE|DICT|INTERRES
   175   89   90 1    
   176   89  210 1    
   177   90   91 1    
   178   90   92 1    
   179   90  211 1    
   180   91  212 1    
   181   91  213 1    
   182   91  214 1    
   183   92   93 2    
   184   92   94 am   BACKBONE|DICT|INTERRES
   185   94   95 1    
   186   94  215 1    
   187   95   96 1    
   188   95   97 1    
   189   95  216 1    
   190   96  217 1    
   191   96  218 1    
   192   96  219 1    
   193   97   98 2    
   194   97   99 am   BACKBONE|DICT|INTERRES
   195   99  100 1    
   196   99  220 1    
   197  100  101 1    
   198  100  102 1    
   199  100  221 1    
   200  101  222 1    
   201  101  223 1    
   202  101  224 1    
   203  102  103 2    
   204  102  104 am   BACKBONE|DICT|INTERRES
   205  104  105 1    
   206  104  225 1    
   207  105  106 1    
   208  105  107 1    
   209  105  226 1    
   210  106  227 1    
   211  106  228 1    
   212  106  229 1    
   213  107  108 2    
   214  107  109 am   BACKBONE|DICT|INTERRES
   215  109  110 1    
   216  109  230 1    
   217  110  111 1    
   218  110  112 1    
   219  110  231 1    
   220  111  232 1    
   221  111  233 1    
   222  111  234 1    
   223  112  113 2    
   224  112  114 am   BACKBONE|DICT|INTERRES
   225  114  115 1    
   226  114  235 1    
   227  115  116 1    
   228  115  117 1    
   229  115  236 1    
   230  116  237 1    
   231  116  238 1    
   232  116  239 1    
   233  117  118 2    
   234  117  119 am   BACKBONE|DICT|INTERRES
   235  119  120 1    
   236  119  240 1    
   237  120  121 1    
   238  120  124 1    
   239  120  241 1    
   240  121  122 am   BACKBONE|DICT|INTERRES
   241  121  123 2    
   242  122  242 1    
   243  122  243 1    
   244  124  125 1    
   245  124  244 1    
   246  124  245 1    
   247  125  126 1    
   248  126  246 1    
   249  126  247 1    
@<TRIPOS>SUBSTRUCTURE
     1 UNK         1 GROUP             0       ****    0 ROOT    
