@<TRIPOS>MOLECULE
3R540
247   249    1
SMALL
USER_CHARGES


@<TRIPOS>ATOM
      1 CA         -3.2811  -13.1639  -51.6674 C.3       0 UNK        -0.1800 
      2 C          -1.9732  -12.9438  -50.9188 C.2       0 UNK         0.5000 
      3 O          -1.2693  -11.9714  -51.1925 O.2       0 UNK        -0.5000 
      4 N          -1.6415  -13.8436  -49.9840 N.am      1 UNK        -0.5000 
      5 CA         -0.4739  -13.7566  -49.1051 C.3       1 UNK         0.1400 
      6 C6         -0.2248  -15.1004  -48.3716 C.3       23 UNK        -0.0398 
      7 S7          1.3234  -15.1433  -47.4006 S.3       23 UNK        -0.2404 
      8 C8          2.5533  -15.6663  -48.6382 C.3       23 UNK        -0.0205 
      9 C9          2.5325  -17.1662  -48.9024 C.ar      23 UNK        -0.0193 
     10 C10         1.8079  -17.6811  -49.9809 C.ar      23 UNK        -0.1150 
     11 C11         1.8192  -19.0515  -50.2482 C.ar      23 UNK        -0.0193 
     12 C12         2.5708  -19.9055  -49.4408 C.ar      23 UNK        -0.1150 
     13 C13         3.3085  -19.4120  -48.3583 C.ar      23 UNK        -0.0193 
     14 C14         3.2729  -18.0369  -48.0937 C.ar      23 UNK        -0.1150 
     15 C15         4.1174  -20.3299  -47.4359 C.3       23 UNK        -0.0205 
     16 S16         4.8061  -21.8291  -48.2214 S.3       23 UNK        -0.2404 
     17 C17         3.3908  -22.9868  -48.1649 C.3       23 UNK        -0.0398 
     18 CA          3.5550  -24.0802  -47.0815 C.3       11 UNK         0.1400 
     19 N           3.5344  -23.4996  -45.7362 N.am      11 UNK        -0.5000 
     20 C           4.2762  -23.9066  -44.6988 C.2       10 UNK         0.5000 
     21 O           5.1367  -24.7839  -44.7734 O.2       10 UNK        -0.5000 
     22 CA          3.9825  -23.2438  -43.3376 C.3       10 UNK         0.1400 
     23 CB          5.0080  -22.1383  -43.0453 C.3       10 UNK        -0.1800 
     24 N           2.6246  -22.6925  -43.2540 N.am      10 UNK        -0.5000 
     25 C           1.5136  -23.4436  -43.1867 C.2       9 UNK         0.5000 
     26 O           1.5342  -24.6738  -43.1553 O.2       9 UNK        -0.5000 
     27 CA          0.1492  -22.7258  -43.2181 C.3       9 UNK         0.1400 
     28 CB         -0.3763  -22.5233  -41.7897 C.3       9 UNK        -0.1800 
     29 N           0.1629  -21.4423  -43.9239 N.am      9 UNK        -0.5000 
     30 C           0.4835  -21.2822  -45.2161 C.2       8 UNK         0.5000 
     31 O           0.7612  -22.2230  -45.9624 O.2       8 UNK        -0.5000 
     32 CA          0.5846  -19.8375  -45.7480 C.3       8 UNK         0.1400 
     33 CB         -0.7179  -19.3821  -46.4148 C.3       8 UNK        -0.1800 
     34 N           0.9996  -18.8517  -44.7452 N.am      8 UNK        -0.5000 
     35 C           2.1708  -18.8878  -44.0913 C.2       7 UNK         0.5000 
     36 O           2.9706  -19.8187  -44.1726 O.2       7 UNK        -0.5000 
     37 CA          2.5042  -17.6957  -43.1876 C.3       7 UNK         0.1400 
     38 CB          2.9170  -16.4833  -44.0282 C.3       7 UNK        -0.1800 
     39 N           1.3695  -17.3485  -42.3382 N.am      7 UNK        -0.5000 
     40 C           1.1564  -17.8784  -41.1261 C.2       6 UNK         0.5000 
     41 O           1.9535  -18.6204  -40.5507 O.2       6 UNK        -0.5000 
     42 CA         -0.1895  -17.5528  -40.4499 C.3       6 UNK         0.1400 
     43 CB         -0.0762  -16.2765  -39.6029 C.3       6 UNK        -0.1800 
     44 N          -1.2931  -17.4039  -41.3996 N.am      6 UNK        -0.5000 
     45 C          -1.7320  -18.3669  -42.2227 C.2       5 UNK         0.5000 
     46 O          -1.2698  -19.5056  -42.2530 O.2       5 UNK        -0.5000 
     47 CA         -2.8445  -17.9859  -43.2140 C.3       5 UNK         0.1400 
     48 CB         -4.2235  -18.3384  -42.6386 C.3       5 UNK        -0.1800 
     49 N          -2.8357  -16.5771  -43.6117 N.am      5 UNK        -0.5000 
     50 C          -1.8257  -15.9352  -44.2157 C.2       4 UNK         0.5000 
     51 O          -0.7486  -16.4709  -44.4932 O.2       4 UNK        -0.5000 
     52 CA         -2.0894  -14.4609  -44.5913 C.3       4 UNK         0.1400 
     53 CB         -3.1169  -13.7639  -43.6711 C.3       4 UNK        -0.1800 
     54 N          -0.8778  -13.6457  -44.6849 N.am      4 UNK        -0.5000 
     55 C           0.0296  -13.4002  -43.7271 C.2       3 UNK         0.5000 
     56 O          -0.0051  -13.9084  -42.6053 O.2       3 UNK        -0.5000 
     57 CA          1.1505  -12.3904  -44.0637 C.3       3 UNK         0.1400 
     58 CB          2.5473  -13.0044  -43.9014 C.3       3 UNK        -0.1800 
     59 N           1.0422  -11.8526  -45.4206 N.am      3 UNK        -0.5000 
     60 C           0.3679  -10.7474  -45.7616 C.2       2 UNK         0.5000 
     61 O          -0.1886  -10.0039  -44.9533 O.2       2 UNK        -0.5000 
     62 CA          0.2777  -10.4401  -47.2692 C.3       2 UNK         0.1400 
     63 CB          1.4179   -9.5040  -47.6972 C.3       2 UNK        -0.1800 
     64 N           0.2982  -11.6396  -48.1146 N.am      2 UNK        -0.5000 
     65 C          -0.6566  -12.5802  -48.1239 C.2       1 UNK         0.5000 
     66 O          -1.6455  -12.5548  -47.3888 O.2       1 UNK        -0.5000 
     67 C           2.4684  -25.1712  -47.2367 C.2       11 UNK         0.5000 
     68 O           2.3690  -25.7644  -48.3111 O.2       11 UNK        -0.5000 
     69 N           1.6757  -25.4158  -46.1790 N.am      12 UNK        -0.5000 
     70 CA          0.5303  -26.3295  -46.1087 C.3       12 UNK         0.1400 
     71 CB          0.9804  -27.7968  -46.2698 C.3       12 UNK        -0.1800 
     72 C          -0.6174  -25.9327  -47.0628 C.2       12 UNK         0.5000 
     73 O          -1.2820  -26.8032  -47.6288 O.2       12 UNK        -0.5000 
     74 N          -0.8284  -24.6193  -47.2234 N.am      13 UNK        -0.5000 
     75 CA         -1.8929  -24.0312  -48.0343 C.3       13 UNK         0.1400 
     76 CB         -1.6734  -22.5156  -48.0730 C.3       13 UNK        -0.1800 
     77 C          -3.2961  -24.3262  -47.4730 C.2       13 UNK         0.5000 
     78 O          -3.4740  -24.3349  -46.2520 O.2       13 UNK        -0.5000 
     79 N          -4.2726  -24.5046  -48.3702 N.am      14 UNK        -0.5000 
     80 CA         -5.6931  -24.5973  -48.0285 C.3       14 UNK         0.1400 
     81 CB         -6.3777  -25.6065  -48.9604 C.3       14 UNK        -0.1800 
     82 C          -6.3735  -23.2178  -48.1083 C.2       14 UNK         0.5000 
     83 O          -7.2970  -22.9561  -47.3366 O.2       14 UNK        -0.5000 
     84 N          -5.8871  -22.3516  -49.0059 N.am      15 UNK        -0.5000 
     85 CA         -6.2330  -20.9369  -49.0958 C.3       15 UNK         0.1400 
     86 CB         -7.1281  -20.6942  -50.3206 C.3       15 UNK        -0.1800 
     87 C          -4.9203  -20.1592  -49.2281 C.2       15 UNK         0.5000 
     88 O          -4.0438  -20.5898  -49.9796 O.2       15 UNK        -0.5000 
     89 N          -4.8010  -19.0338  -48.5136 N.am      16 UNK        -0.5000 
     90 CA         -3.6014  -18.1929  -48.4415 C.3       16 UNK         0.1400 
     91 CB         -3.6712  -17.3497  -47.1557 C.3       16 UNK        -0.1800 
     92 C          -3.3855  -17.3368  -49.7085 C.2       16 UNK         0.5000 
     93 O          -3.3282  -16.1081  -49.6282 O.2       16 UNK        -0.5000 
     94 N          -3.2732  -18.0216  -50.8510 N.am      17 UNK        -0.5000 
     95 CA         -3.1754  -17.5134  -52.2178 C.3       17 UNK         0.1400 
     96 CB         -1.8921  -16.6808  -52.4179 C.3       17 UNK        -0.1800 
     97 C          -4.4680  -16.8103  -52.6769 C.2       17 UNK         0.5000 
     98 O          -5.5250  -17.0044  -52.0698 O.2       17 UNK        -0.5000 
     99 N          -4.3804  -16.0832  -53.8006 N.am      18 UNK        -0.5000 
    100 CA        -5.4692  -15.5130  -54.6094 C.3       18 UNK         0.1400 
    101 CB        -6.3465  -14.5300  -53.8093 C.3       18 UNK        -0.1800 
    102 C         -6.3066  -16.6002  -55.3139 C.2       18 UNK         0.5000 
    103 O         -6.4205  -16.5813  -56.5401 O.2       18 UNK        -0.5000 
    104 N         -6.8220  -17.5580  -54.5361 N.am      19 UNK        -0.5000 
    105 CA        -7.3387  -18.8367  -55.0106 C.3       19 UNK         0.1400 
    106 CB        -8.2998  -19.4064  -53.9567 C.3       19 UNK        -0.1800 
    107 C         -6.1698  -19.8086  -55.2513 C.2       19 UNK         0.5000 
    108 O         -5.1769  -19.7751  -54.5173 O.2       19 UNK        -0.5000 
    109 N         -6.3164  -20.6840  -56.2515 N.am      20 UNK        -0.5000 
    110 CA        -5.3238  -21.6838  -56.6535 C.3       20 UNK         0.1400 
    111 CB        -5.5556  -22.0376  -58.1341 C.3       20 UNK        -0.1800 
    112 C         -5.3410  -22.9243  -55.7333 C.2       20 UNK         0.5000 
    113 O         -5.5567  -24.0431  -56.2035 O.2       20 UNK        -0.5000 
    114 N         -5.1299  -22.7004  -54.4317 N.am      21 UNK        -0.5000 
    115 CA        -5.1326  -23.7241  -53.3847 C.3       21 UNK         0.1400 
    116 CB        -6.5500  -23.8583  -52.7995 C.3       21 UNK        -0.1800 
    117 C         -4.0559  -23.4359  -52.3203 C.2       21 UNK         0.5000 
    118 O         -4.2244  -23.7974  -51.1532 O.2       21 UNK        -0.5000 
    119 N         -2.9627  -22.7889  -52.7445 N.am      22 UNK        -0.5000 
    120 CA        -1.8087  -22.4341  -51.9011 C.3       22 UNK         0.1400 
    121 C         -0.6957  -23.5247  -51.8445 C.2       22 UNK         0.5000 
    122 N         -0.8382  -24.6548  -52.5263 N.am      22 UNK        -0.7600 
    123 O          0.3095  -23.3561  -51.1620 O.2       22 UNK        -0.5000 
    124 C124       -1.2577  -21.0339  -52.2800 C.3       23 UNK        -0.0398 
    125 S125       -0.6358  -20.1160  -50.8316 S.3       23 UNK        -0.2404 
    126 C126        1.0156  -19.6260  -51.4005 C.3       23 UNK        -0.0205 
    127 H127       -3.0821  -13.3816  -52.7166 H         1 UNK         0.0600 
    128 H128       -3.8998  -12.2681  -51.6154 H         1 UNK         0.0600 
    129 H129       -3.8538  -13.9924  -51.2506 H         1 UNK         0.0600 
    130 H130       -2.2784  -14.6177  -49.7991 H         1 UNK         0.3000 
    131 H131        0.3930  -13.5553  -49.7379 H         1 UNK         0.0600 
    132 H132       -1.0490  -15.3156  -47.6909 H         1 UNK         0.0800 
    133 H133       -0.2174  -15.9226  -49.0867 H         1 UNK         0.0800 
    134 H134        3.5433  -15.3801  -48.2802 H         1 UNK         0.0800 
    135 H135        2.4010  -15.1133  -49.5661 H         1 UNK         0.0800 
    136 H136        1.2355  -17.0183  -50.6141 H         1 UNK         0.1150 
    137 H137        2.5640  -20.9584  -49.6722 H         1 UNK         0.1150 
    138 H138        3.8290  -17.6383  -47.2569 H         1 UNK         0.1150 
    139 H139        4.9542  -19.7694  -47.0167 H         1 UNK         0.0800 
    140 H140        3.5027  -20.6293  -46.5892 H         1 UNK         0.0800 
    141 H141        2.4598  -22.4409  -48.0072 H         1 UNK         0.0800 
    142 H142        3.3117  -23.4345  -49.1574 H         1 UNK         0.0800 
    143 H143        4.5135  -24.5757  -47.2497 H         1 UNK         0.0600 
    144 H144        2.8268  -22.7930  -45.5785 H         1 UNK         0.3000 
    145 H145        4.0840  -24.0107  -42.5667 H         1 UNK         0.0600 
    146 H146        4.7910  -21.6323  -42.1044 H         1 UNK         0.0600 
    147 H147        5.0290  -21.3876  -43.8357 H         1 UNK         0.0600 
    148 H148        6.0133  -22.5540  -42.9679 H         1 UNK         0.0600 
    149 H149        2.5414  -21.6847  -43.3370 H         1 UNK         0.3000 
    150 H150       -0.5472  -23.3810  -43.7457 H         1 UNK         0.0600 
    151 H151       -0.3679  -23.4594  -41.2297 H         1 UNK         0.0600 
    152 H152       -1.4051  -22.1633  -41.7972 H         1 UNK         0.0600 
    153 H153        0.2287  -21.8024  -41.2381 H         1 UNK         0.0600 
    154 H154       -0.0943  -20.6264  -43.3760 H         1 UNK         0.3000 
    155 H155        1.3491  -19.8344  -46.5219 H         1 UNK         0.0600 
    156 H156       -0.8638  -19.9121  -47.3552 H         1 UNK         0.0600 
    157 H157       -0.6935  -18.3185  -46.6537 H         1 UNK         0.0600 
    158 H158       -1.5867  -19.5744  -45.7876 H         1 UNK         0.0600 
    159 H159        0.4006  -18.0386  -44.6323 H         1 UNK         0.3000 
    160 H160        3.3615  -17.9755  -42.5715 H         1 UNK         0.0600 
    161 H161        2.0722  -16.0694  -44.5796 H         1 UNK         0.0600 
    162 H162        3.6881  -16.7469  -44.7532 H         1 UNK         0.0600 
    163 H163        3.3281  -15.7032  -43.3899 H         1 UNK         0.0600 
    164 H164        0.6486  -16.7710  -42.7539 H         1 UNK         0.3000 
    165 H165       -0.4338  -18.3846  -39.7860 H         1 UNK         0.0600 
    166 H166       -0.9991  -16.0812  -39.0567 H         1 UNK         0.0600 
    167 H167        0.7238  -16.3663  -38.8668 H         1 UNK         0.0600 
    168 H168        0.1414  -15.4033  -40.2192 H         1 UNK         0.0600 
    169 H169       -1.7142  -16.4889  -41.4652 H         1 UNK         0.3000 
    170 H170       -2.6944  -18.5818  -44.1133 H         1 UNK         0.0600 
    171 H171       -4.4521  -17.7481  -41.7504 H         1 UNK         0.0600 
    172 H172       -5.0127  -18.1656  -43.3706 H         1 UNK         0.0600 
    173 H173       -4.2710  -19.3907  -42.3549 H         1 UNK         0.0600 
    174 H174       -3.6803  -16.0586  -43.4194 H         1 UNK         0.3000 
    175 H175       -2.5104  -14.4831  -45.5970 H         1 UNK         0.0600 
    176 H176       -2.8155  -13.8039  -42.6237 H         1 UNK         0.0600 
    177 H177       -3.2317  -12.7139  -43.9413 H         1 UNK         0.0600 
    178 H178       -4.1054  -14.2168  -43.7536 H         1 UNK         0.0600 
    179 H179       -0.7643  -13.1719  -45.5716 H         1 UNK         0.3000 
    180 H180        1.0626  -11.5776  -43.3400 H         1 UNK         0.0600 
    181 H181        3.3203  -12.2406  -43.9860 H         1 UNK         0.0600 
    182 H182        2.7424  -13.7556  -44.6658 H         1 UNK         0.0600 
    183 H183        2.6634  -13.4725  -42.9233 H         1 UNK         0.0600 
    184 H184        1.4617  -12.4035  -46.1560 H         1 UNK         0.3000 
    185 H185       -0.6698   -9.9255  -47.4425 H         1 UNK         0.0600 
    186 H186        1.3169   -9.2108  -48.7424 H         1 UNK         0.0600 
    187 H187        1.4159   -8.5890  -47.1032 H         1 UNK         0.0600 
    188 H188        2.3940   -9.9743  -47.5719 H         1 UNK         0.0600 
    189 H189        1.0743  -11.7216  -48.7556 H         1 UNK         0.3000 
    190 H190        1.8560  -24.8972  -45.3293 H         1 UNK         0.3000 
    191 H191        0.1262  -26.2247  -45.1009 H         1 UNK         0.0600 
    192 H192        0.1569  -28.4819  -46.0656 H         1 UNK         0.0600 
    193 H193        1.7835  -28.0408  -45.5745 H         1 UNK         0.0600 
    194 H194        1.3346  -28.0057  -47.2795 H         1 UNK         0.0600 
    195 H195       -0.2362  -23.9640  -46.7266 H         1 UNK         0.3000 
    196 H196       -1.8171  -24.4316  -49.0473 H         1 UNK         0.0600 
    197 H197       -2.4339  -22.0229  -48.6727 H         1 UNK         0.0600 
    198 H198       -0.7013  -22.2614  -48.4968 H         1 UNK         0.0600 
    199 H199       -1.7353  -22.0871  -47.0732 H         1 UNK         0.0600 
    200 H200       -4.0628  -24.4379  -49.3632 H         1 UNK         0.3000 
    201 H201       -5.8087  -24.9631  -47.0060 H         1 UNK         0.0600 
    202 H202       -5.9535  -26.6031  -48.8382 H         1 UNK         0.0600 
    203 H203       -6.2680  -25.3242  -50.0053 H         1 UNK         0.0600 
    204 H204       -7.4450  -25.6773  -48.7466 H         1 UNK         0.0600 
    205 H205       -5.1186  -22.6377  -49.6037 H         1 UNK         0.3000 
    206 H206       -6.7549  -20.6107  -48.1937 H         1 UNK         0.0600 
    207 H207       -8.0185  -21.3224  -50.2935 H         1 UNK         0.0600 
    208 H208       -7.4595  -19.6558  -50.3581 H         1 UNK         0.0600 
    209 H209       -6.5973  -20.8984  -51.2510 H         1 UNK         0.0600 
    210 H210       -5.5872  -18.7243  -47.9611 H         1 UNK         0.3000 
    211 H211       -2.7337  -18.8492  -48.3609 H         1 UNK         0.0600 
    212 H212       -4.5089  -16.6516  -47.1748 H         1 UNK         0.0600 
    213 H213       -2.7600  -16.7680  -47.0223 H         1 UNK         0.0600 
    214 H214       -3.7806  -17.9818  -46.2749 H         1 UNK         0.0600 
    215 H215       -3.3800  -19.0303  -50.7718 H         1 UNK         0.3000 
    216 H216       -3.0921  -18.3964  -52.8505 H         1 UNK         0.0600 
    217 H217       -1.6850  -16.5129  -53.4748 H         1 UNK         0.0600 
    218 H218       -1.0241  -17.1918  -52.0019 H         1 UNK         0.0600 
    219 H219       -1.9627  -15.7085  -51.9387 H         1 UNK         0.0600 
    220 H220       -3.4687  -16.0160  -54.2304 H         1 UNK         0.3000 
    221 H221       -4.9787  -14.9366  -55.3954 H         1 UNK         0.0600 
    222 H222       -6.9161  -15.0256  -53.0234 H         1 UNK         0.0600 
    223 H223       -5.7421  -13.7513  -53.3447 H         1 UNK         0.0600 
    224 H224       -7.0651  -14.0358  -54.4640 H         1 UNK         0.0600 
    225 H225       -6.5975  -17.5053  -53.5459 H         1 UNK         0.3000 
    226 H226       -7.8852  -18.6868  -55.9442 H         1 UNK         0.0600 
    227 H227       -9.1438  -18.7366  -53.7909 H         1 UNK         0.0600 
    228 H228       -8.7042  -20.3688  -54.2727 H         1 UNK         0.0600 
    229 H229       -7.8005  -19.5575  -52.9994 H         1 UNK         0.0600 
    230 H230       -7.1773  -20.6803  -56.7796 H         1 UNK         0.3000 
    231 H231       -4.3278  -21.2425  -56.5754 H         1 UNK         0.0600 
    232 H232       -4.8099  -22.7506  -58.4884 H         1 UNK         0.0600 
    233 H233       -5.4808  -21.1530  -58.7668 H         1 UNK         0.0600 
    234 H234       -6.5388  -22.4821  -58.2939 H         1 UNK         0.0600 
    235 H235       -4.9894  -21.7398  -54.1309 H         1 UNK         0.3000 
    236 H236       -4.8585  -24.6860  -53.8225 H         1 UNK         0.0600 
    237 H237       -6.8410  -22.9732  -52.2362 H         1 UNK         0.0600 
    238 H238       -7.2897  -24.0119  -53.5853 H         1 UNK         0.0600 
    239 H239       -6.6160  -24.7157  -52.1323 H         1 UNK         0.0600 
    240 H240       -2.8899  -22.5566  -53.7240 H         1 UNK         0.3000 
    241 H241       -2.1808  -22.3665  -50.8806 H         1 UNK         0.0600 
    242 H242       -0.1134  -25.3534  -52.4764 H         1 UNK         0.3800 
    243 H243       -1.6564  -24.8209  -53.0889 H         1 UNK         0.3800 
    244 H244       -2.0536  -20.4248  -52.7067 H         1 UNK         0.0800 
    245 H245       -0.4944  -21.1037  -53.0566 H         1 UNK         0.0800 
    246 H246        1.5317  -20.4931  -51.8161 H         1 UNK         0.0800 
    247 H247        0.9253  -18.8969  -52.2069 H         1 UNK         0.0800 
@<TRIPOS>BOND
     1    1    2 1    
     2    1  127 1    
     3    1  128 1    
     4    1  129 1    
     5    2    3 2    
     6    2    4 am   BACKBONE|DICT|INTERRES
     7    4    5 1    
     8    4  130 1    
     9    5    6 1    
    10    5   65 1    
    11    5  131 1    
    12    6    7 1    
    13    6  132 1    
    14    6  133 1    
    15    7    8 1    
    16    8    9 1    
    17    8  134 1    
    18    8  135 1    
    19    9   10 ar   
    20    9   14 ar   
    21   10   11 ar   
    22   10  136 1    
    23   11   12 ar   
    24   11  126 1    
    25   12   13 ar   
    26   12  137 1    
    27   13   14 ar   
    28   13   15 1    
    29   14  138 1    
    30   15   16 1    
    31   15  139 1    
    32   15  140 1    
    33   16   17 1    
    34   17   18 1    
    35   17  141 1    
    36   17  142 1    
    37   18   19 1    
    38   18   67 1    
    39   18  143 1    
    40   19   20 am   BACKBONE|DICT|INTERRES
    41   19  144 1    
    42   20   21 2    
    43   20   22 1    
    44   22   23 1    
    45   22   24 1    
    46   22  145 1    
    47   23  146 1    
    48   23  147 1    
    49   23  148 1    
    50   24   25 am   BACKBONE|DICT|INTERRES
    51   24  149 1    
    52   25   26 2    
    53   25   27 1    
    54   27   28 1    
    55   27   29 1    
    56   27  150 1    
    57   28  151 1    
    58   28  152 1    
    59   28  153 1    
    60   29   30 am   BACKBONE|DICT|INTERRES
    61   29  154 1    
    62   30   31 2    
    63   30   32 1    
    64   32   33 1    
    65   32   34 1    
    66   32  155 1    
    67   33  156 1    
    68   33  157 1    
    69   33  158 1    
    70   34   35 am   BACKBONE|DICT|INTERRES
    71   34  159 1    
    72   35   36 2    
    73   35   37 1    
    74   37   38 1    
    75   37   39 1    
    76   37  160 1    
    77   38  161 1    
    78   38  162 1    
    79   38  163 1    
    80   39   40 am   BACKBONE|DICT|INTERRES
    81   39  164 1    
    82   40   41 2    
    83   40   42 1    
    84   42   43 1    
    85   42   44 1    
    86   42  165 1    
    87   43  166 1    
    88   43  167 1    
    89   43  168 1    
    90   44   45 am   BACKBONE|DICT|INTERRES
    91   44  169 1    
    92   45   46 2    
    93   45   47 1    
    94   47   48 1    
    95   47   49 1    
    96   47  170 1    
    97   48  171 1    
    98   48  172 1    
    99   48  173 1    
   100   49   50 am   BACKBONE|DICT|INTERRES
   101   49  174 1    
   102   50   51 2    
   103   50   52 1    
   104   52   53 1    
   105   52   54 1    
   106   52  175 1    
   107   53  176 1    
   108   53  177 1    
   109   53  178 1    
   110   54   55 am   BACKBONE|DICT|INTERRES
   111   54  179 1    
   112   55   56 2    
   113   55   57 1    
   114   57   58 1    
   115   57   59 1    
   116   57  180 1    
   117   58  181 1    
   118   58  182 1    
   119   58  183 1    
   120   59   60 am   BACKBONE|DICT|INTERRES
   121   59  184 1    
   122   60   61 2    
   123   60   62 1    
   124   62   63 1    
   125   62   64 1    
   126   62  185 1    
   127   63  186 1    
   128   63  187 1    
   129   63  188 1    
   130   64   65 am   BACKBONE|DICT|INTERRES
   131   64  189 1    
   132   65   66 2    
   133   67   68 2    
   134   67   69 am   BACKBONE|DICT|INTERRES
   135   69   70 1    
   136   69  190 1    
   137   70   71 1    
   138   70   72 1    
   139   70  191 1    
   140   71  192 1    
   141   71  193 1    
   142   71  194 1    
   143   72   73 2    
   144   72   74 am   BACKBONE|DICT|INTERRES
   145   74   75 1    
   146   74  195 1    
   147   75   76 1    
   148   75   77 1    
   149   75  196 1    
   150   76  197 1    
   151   76  198 1    
   152   76  199 1    
   153   77   78 2    
   154   77   79 am   BACKBONE|DICT|INTERRES
   155   79   80 1    
   156   79  200 1    
   157   80   81 1    
   158   80   82 1    
   159   80  201 1    
   160   81  202 1    
   161   81  203 1    
   162   81  204 1    
   163   82   83 2    
   164   82   84 am   BACKBONE|DICT|INTERRES
   165   84   85 1    
   166   84  205 1    
   167   85   86 1    
   168   85   87 1    
   169   85  206 1    
   170   86  207 1    
   171   86  208 1    
   172   86  209 1    
   173   87   88 2    
   174   87   89 am   BACKBONE|DICT|INTERRES
   175   89   90 1    
   176   89  210 1    
   177   90   91 1    
   178   90   92 1    
   179   90  211 1    
   180   91  212 1    
   181   91  213 1    
   182   91  214 1    
   183   92   93 2    
   184   92   94 am   BACKBONE|DICT|INTERRES
   185   94   95 1    
   186   94  215 1    
   187   95   96 1    
   188   95   97 1    
   189   95  216 1    
   190   96  217 1    
   191   96  218 1    
   192   96  219 1    
   193   97   98 2    
   194   97   99 am   BACKBONE|DICT|INTERRES
   195   99  100 1    
   196   99  220 1    
   197  100  101 1    
   198  100  102 1    
   199  100  221 1    
   200  101  222 1    
   201  101  223 1    
   202  101  224 1    
   203  102  103 2    
   204  102  104 am   BACKBONE|DICT|INTERRES
   205  104  105 1    
   206  104  225 1    
   207  105  106 1    
   208  105  107 1    
   209  105  226 1    
   210  106  227 1    
   211  106  228 1    
   212  106  229 1    
   213  107  108 2    
   214  107  109 am   BACKBONE|DICT|INTERRES
   215  109  110 1    
   216  109  230 1    
   217  110  111 1    
   218  110  112 1    
   219  110  231 1    
   220  111  232 1    
   221  111  233 1    
   222  111  234 1    
   223  112  113 2    
   224  112  114 am   BACKBONE|DICT|INTERRES
   225  114  115 1    
   226  114  235 1    
   227  115  116 1    
   228  115  117 1    
   229  115  236 1    
   230  116  237 1    
   231  116  238 1    
   232  116  239 1    
   233  117  118 2    
   234  117  119 am   BACKBONE|DICT|INTERRES
   235  119  120 1    
   236  119  240 1    
   237  120  121 1    
   238  120  124 1    
   239  120  241 1    
   240  121  122 am   BACKBONE|DICT|INTERRES
   241  121  123 2    
   242  122  242 1    
   243  122  243 1    
   244  124  125 1    
   245  124  244 1    
   246  124  245 1    
   247  125  126 1    
   248  126  246 1    
   249  126  247 1    
@<TRIPOS>SUBSTRUCTURE
     1 UNK         1 GROUP             0       ****    0 ROOT    
