@<TRIPOS>MOLECULE
3R540
247   249    1
SMALL
USER_CHARGES


@<TRIPOS>ATOM
      1 CA          8.4068  -12.2834  -45.9428 C.3       0 UNK        -0.1800 
      2 C           7.1857  -12.7823  -46.7029 C.2       0 UNK         0.5000 
      3 O           6.9931  -12.3969  -47.8557 O.2       0 UNK        -0.5000 
      4 N           6.3732  -13.6273  -46.0491 N.am      1 UNK        -0.5000 
      5 CA          5.1406  -14.2658  -46.5407 C.3       1 UNK         0.1400 
      6 C6          5.3430  -15.6274  -47.2704 C.3       23 UNK        -0.0398 
      7 S7          6.6215  -15.7050  -48.5721 S.3       23 UNK        -0.2404 
      8 C8          5.6634  -15.4262  -50.0975 C.3       23 UNK        -0.0205 
      9 C9          4.5501  -16.4419  -50.3396 C.ar      23 UNK        -0.0193 
     10 C10         3.2822  -15.9948  -50.7272 C.ar      23 UNK        -0.1150 
     11 C11         2.2684  -16.9075  -51.0278 C.ar      23 UNK        -0.0193 
     12 C12         2.5285  -18.2749  -50.9360 C.ar      23 UNK        -0.1150 
     13 C13         3.7710  -18.7395  -50.4992 C.ar      23 UNK        -0.0193 
     14 C14         4.7843  -17.8175  -50.2185 C.ar      23 UNK        -0.1150 
     15 C15         4.0151  -20.2346  -50.3420 C.3       23 UNK        -0.0205 
     16 S16         3.3763  -20.8672  -48.7537 S.3       23 UNK        -0.2404 
     17 C17         1.5741  -20.7669  -49.0207 C.3       23 UNK        -0.0398 
     18 CA          0.7773  -21.8597  -48.2753 C.3       11 UNK         0.1400 
     19 N           0.8252  -21.7205  -46.8158 N.am      11 UNK        -0.5000 
     20 C           0.3484  -22.6378  -45.9611 C.2       10 UNK         0.5000 
     21 O          -0.1121  -23.7239  -46.3156 O.2       10 UNK        -0.5000 
     22 CA          0.3276  -22.2634  -44.4678 C.3       10 UNK         0.1400 
     23 CB          1.7055  -22.4786  -43.8248 C.3       10 UNK        -0.1800 
     24 N          -0.1218  -20.8891  -44.2404 N.am      10 UNK        -0.5000 
     25 C          -1.3544  -20.4386  -44.5158 C.2       9 UNK         0.5000 
     26 O          -2.2620  -21.1572  -44.9304 O.2       9 UNK        -0.5000 
     27 CA         -1.6067  -18.9269  -44.3551 C.3       9 UNK         0.1400 
     28 CB         -1.9370  -18.5749  -42.8981 C.3       9 UNK        -0.1800 
     29 N          -0.4832  -18.1139  -44.8233 N.am      9 UNK        -0.5000 
     30 C          -0.0452  -18.0946  -46.0912 C.2       8 UNK         0.5000 
     31 O          -0.5788  -18.7192  -47.0060 O.2       8 UNK        -0.5000 
     32 CA          1.2355  -17.2935  -46.3738 C.3       8 UNK         0.1400 
     33 CB          0.9095  -15.8149  -46.6057 C.3       8 UNK        -0.1800 
     34 N           2.2110  -17.4266  -45.2907 N.am      8 UNK        -0.5000 
     35 C           2.8688  -18.5639  -45.0222 C.2       7 UNK         0.5000 
     36 O           2.7436  -19.5945  -45.6817 O.2       7 UNK        -0.5000 
     37 CA          3.7712  -18.5659  -43.7747 C.3       7 UNK         0.1400 
     38 CB          5.1083  -17.8665  -44.0594 C.3       7 UNK        -0.1800 
     39 N           3.1314  -17.9343  -42.6208 N.am      7 UNK        -0.5000 
     40 C           2.0447  -18.4133  -41.9991 C.2       6 UNK         0.5000 
     41 O           1.4944  -19.4689  -42.3069 O.2       6 UNK        -0.5000 
     42 CA          1.4498  -17.5512  -40.8693 C.3       6 UNK         0.1400 
     43 CB          2.0471  -17.9566  -39.5138 C.3       6 UNK        -0.1800 
     44 N           1.6398  -16.1123  -41.0706 N.am      6 UNK        -0.5000 
     45 C           1.1401  -15.4076  -42.0945 C.2       5 UNK         0.5000 
     46 O           0.4697  -15.9015  -43.0053 O.2       5 UNK        -0.5000 
     47 CA          1.5352  -13.9225  -42.1329 C.3       5 UNK         0.1400 
     48 CB          2.9053  -13.7634  -42.8137 C.3       5 UNK        -0.1800 
     49 N           0.5473  -13.1056  -42.8371 N.am      5 UNK        -0.5000 
     50 C          -0.6179  -12.7047  -42.3087 C.2       4 UNK         0.5000 
     51 O          -0.9815  -13.0116  -41.1719 O.2       4 UNK        -0.5000 
     52 CA         -1.5193  -11.7730  -43.1482 C.3       4 UNK         0.1400 
     53 CB         -1.4894  -10.3463  -42.5760 C.3       4 UNK        -0.1800 
     54 N          -1.1484  -11.7084  -44.5619 N.am      4 UNK        -0.5000 
     55 C          -1.5318  -12.5906  -45.4930 C.2       3 UNK         0.5000 
     56 O          -2.2917  -13.5326  -45.2665 O.2       3 UNK        -0.5000 
     57 CA         -0.9742  -12.3967  -46.9214 C.3       3 UNK         0.1400 
     58 CB         -2.0104  -11.6855  -47.8052 C.3       3 UNK        -0.1800 
     59 N           0.3090  -11.6846  -47.0304 N.am      3 UNK        -0.5000 
     60 C           1.4400  -12.0285  -46.4016 C.2       2 UNK         0.5000 
     61 O           1.4877  -12.8756  -45.5103 O.2       2 UNK        -0.5000 
     62 CA          2.7351  -11.2996  -46.8099 C.3       2 UNK         0.1400 
     63 CB          2.8947   -9.9997  -46.0074 C.3       2 UNK        -0.1800 
     64 N           3.8957  -12.1573  -46.5585 N.am      2 UNK        -0.5000 
     65 C           4.1341  -13.3032  -47.2134 C.2       1 UNK         0.5000 
     66 O           3.5581  -13.6164  -48.2558 O.2       1 UNK        -0.5000 
     67 C          -0.6730  -21.9047  -48.8000 C.2       11 UNK         0.5000 
     68 O          -0.9663  -22.7104  -49.6810 O.2       11 UNK        -0.5000 
     69 N          -1.5601  -21.0604  -48.2550 N.am      12 UNK        -0.5000 
     70 CA         -2.9893  -21.0541  -48.5691 C.3       12 UNK         0.1400 
     71 CB         -3.6620  -19.8204  -47.9508 C.3       12 UNK        -0.1800 
     72 C          -3.6916  -22.3527  -48.1361 C.2       12 UNK         0.5000 
     73 O          -4.4720  -22.9037  -48.9094 O.2       12 UNK        -0.5000 
     74 N          -3.3681  -22.8540  -46.9357 N.am      13 UNK        -0.5000 
     75 CA         -3.8494  -24.1360  -46.4183 C.3       13 UNK         0.1400 
     76 CB         -3.3699  -24.3360  -44.9732 C.3       13 UNK        -0.1800 
     77 C          -3.4409  -25.3230  -47.3106 C.2       13 UNK         0.5000 
     78 O          -4.2894  -26.1556  -47.6370 O.2       13 UNK        -0.5000 
     79 N          -2.1674  -25.3402  -47.7322 N.am      14 UNK        -0.5000 
     80 CA         -1.6111  -26.3093  -48.6785 C.3       14 UNK         0.1400 
     81 CB         -0.0902  -26.1174  -48.7729 C.3       14 UNK        -0.1800 
     82 C          -2.2601  -26.2338  -50.0745 C.2       14 UNK         0.5000 
     83 O          -2.4755  -27.2726  -50.7004 O.2       14 UNK        -0.5000 
     84 N          -2.6132  -25.0201  -50.5178 N.am      15 UNK        -0.5000 
     85 CA         -3.3427  -24.7183  -51.7522 C.3       15 UNK         0.1400 
     86 CB         -3.0582  -23.2593  -52.1420 C.3       15 UNK        -0.1800 
     87 C          -4.8535  -25.0334  -51.6446 C.2       15 UNK         0.5000 
     88 O          -5.6985  -24.1887  -51.9554 O.2       15 UNK        -0.5000 
     89 N          -5.1536  -26.2690  -51.2197 N.am      16 UNK        -0.5000 
     90 CA         -6.4731  -26.8907  -51.1009 C.3       16 UNK         0.1400 
     91 CB         -7.0551  -27.1572  -52.5053 C.3       16 UNK        -0.1800 
     92 C          -7.4353  -26.1093  -50.1844 C.2       16 UNK         0.5000 
     93 O          -8.5788  -25.8622  -50.5669 O.2       16 UNK        -0.5000 
     94 N          -6.9526  -25.7167  -48.9949 N.am      17 UNK        -0.5000 
     95 CA         -7.6807  -24.9362  -47.9842 C.3       17 UNK         0.1400 
     96 CB         -8.8082  -25.7779  -47.3507 C.3       17 UNK        -0.1800 
     97 C          -8.1691  -23.5764  -48.5306 C.2       17 UNK         0.5000 
     98 O          -9.3285  -23.2030  -48.3455 O.2       17 UNK        -0.5000 
     99 N          -7.2582  -22.8853  -49.2264 N.am      18 UNK        -0.5000 
    100 CA        -7.4022  -21.5993  -49.9082 C.3       18 UNK         0.1400 
    101 CB        -7.7905  -20.4804  -48.9206 C.3       18 UNK        -0.1800 
    102 C         -8.3049  -21.6250  -51.1581 C.2       18 UNK         0.5000 
    103 O         -8.5699  -20.5603  -51.7193 O.2       18 UNK        -0.5000 
    104 N         -8.7318  -22.8112  -51.6199 N.am      19 UNK        -0.5000 
    105 CA        -9.5241  -22.9720  -52.8441 C.3       19 UNK         0.1400 
    106 CB       -10.1043  -24.3906  -52.9187 C.3       19 UNK        -0.1800 
    107 C         -8.7268  -22.6440  -54.1208 C.2       19 UNK         0.5000 
    108 O         -9.3220  -22.1982  -55.1023 O.2       19 UNK        -0.5000 
    109 N         -7.3998  -22.8250  -54.0717 N.am      20 UNK        -0.5000 
    110 CA        -6.4569  -22.4097  -55.1107 C.3       20 UNK         0.1400 
    111 CB        -5.5228  -23.5875  -55.4425 C.3       20 UNK        -0.1800 
    112 C         -5.7000  -21.1259  -54.7019 C.2       20 UNK         0.5000 
    113 O         -4.5852  -20.9002  -55.1749 O.2       20 UNK        -0.5000 
    114 N         -6.3296  -20.2995  -53.8501 N.am      21 UNK        -0.5000 
    115 CA        -5.8389  -19.0341  -53.2944 C.3       21 UNK         0.1400 
    116 CB        -5.6543  -17.9785  -54.4084 C.3       21 UNK        -0.1800 
    117 C         -4.5985  -19.2313  -52.3965 C.2       21 UNK         0.5000 
    118 O         -4.5075  -20.2475  -51.7093 O.2       21 UNK        -0.5000 
    119 N         -3.6892  -18.2504  -52.3785 N.am      22 UNK        -0.5000 
    120 CA        -2.3918  -18.3271  -51.6972 C.3       22 UNK         0.1400 
    121 C         -1.3953  -19.1618  -52.5497 C.2       22 UNK         0.5000 
    122 N         -0.9590  -20.3205  -52.0739 N.am      22 UNK        -0.7600 
    123 O         -1.0019  -18.7507  -53.6386 O.2       22 UNK        -0.5000 
    124 C124       -1.8668  -16.9016  -51.3814 C.3       23 UNK        -0.0398 
    125 S125       -0.4030  -16.8915  -50.2904 S.3       23 UNK        -0.2404 
    126 C126        0.8976  -16.4359  -51.4839 C.3       23 UNK        -0.0205 
    127 H127        8.4563  -12.6964  -44.9350 H         1 UNK         0.0600 
    128 H128        8.3813  -11.1966  -45.8638 H         1 UNK         0.0600 
    129 H129        9.3176  -12.5666  -46.4706 H         1 UNK         0.0600 
    130 H130        6.6218  -13.8748  -45.1017 H         1 UNK         0.3000 
    131 H131        4.6176  -14.5328  -45.6209 H         1 UNK         0.0600 
    132 H132        4.3958  -16.0135  -47.6504 H         1 UNK         0.0800 
    133 H133        5.6534  -16.3622  -46.5290 H         1 UNK         0.0800 
    134 H134        6.3489  -15.4629  -50.9448 H         1 UNK         0.0800 
    135 H135        5.2666  -14.4107  -50.0760 H         1 UNK         0.0800 
    136 H136        3.0900  -14.9342  -50.8116 H         1 UNK         0.1150 
    137 H137        1.7453  -18.9726  -51.1918 H         1 UNK         0.1150 
    138 H138        5.7575  -18.1703  -49.9076 H         1 UNK         0.1150 
    139 H139        3.5600  -20.7798  -51.1702 H         1 UNK         0.0800 
    140 H140        5.0844  -20.4444  -50.3948 H         1 UNK         0.0800 
    141 H141        1.3951  -20.8667  -50.0920 H         1 UNK         0.0800 
    142 H142        1.2305  -19.7706  -48.7383 H         1 UNK         0.0800 
    143 H143        1.2284  -22.8236  -48.5211 H         1 UNK         0.0600 
    144 H144        1.2414  -20.8710  -46.4498 H         1 UNK         0.3000 
    145 H145       -0.3807  -22.9293  -43.9707 H         1 UNK         0.0600 
    146 H146        1.6732  -22.2874  -42.7521 H         1 UNK         0.0600 
    147 H147        2.4620  -21.8243  -44.2575 H         1 UNK         0.0600 
    148 H148        2.0433  -23.5065  -43.9623 H         1 UNK         0.0600 
    149 H149        0.5537  -20.2507  -43.8312 H         1 UNK         0.3000 
    150 H150       -2.4726  -18.6674  -44.9673 H         1 UNK         0.0600 
    151 H151       -2.8480  -19.0805  -42.5757 H         1 UNK         0.0600 
    152 H152       -2.0961  -17.5034  -42.7740 H         1 UNK         0.0600 
    153 H153       -1.1410  -18.8786  -42.2200 H         1 UNK         0.0600 
    154 H154       -0.0204  -17.5258  -44.1380 H         1 UNK         0.3000 
    155 H155        1.6831  -17.6867  -47.2898 H         1 UNK         0.0600 
    156 H156        0.2060  -15.6969  -47.4303 H         1 UNK         0.0600 
    157 H157        1.8054  -15.2525  -46.8634 H         1 UNK         0.0600 
    158 H158        0.4618  -15.3564  -45.7232 H         1 UNK         0.0600 
    159 H159        2.2983  -16.6449  -44.6588 H         1 UNK         0.3000 
    160 H160        3.9795  -19.6073  -43.5193 H         1 UNK         0.0600 
    161 H161        4.9742  -16.8011  -44.2478 H         1 UNK         0.0600 
    162 H162        5.5985  -18.3012  -44.9316 H         1 UNK         0.0600 
    163 H163        5.7931  -17.9725  -43.2179 H         1 UNK         0.0600 
    164 H164        3.5271  -17.0659  -42.2938 H         1 UNK         0.3000 
    165 H165        0.3759  -17.7410  -40.8369 H         1 UNK         0.0600 
    166 H166        1.5734  -17.4143  -38.6953 H         1 UNK         0.0600 
    167 H167        1.8987  -19.0208  -39.3248 H         1 UNK         0.0600 
    168 H168        3.1195  -17.7621  -39.4709 H         1 UNK         0.0600 
    169 H169        2.1918  -15.6342  -40.3729 H         1 UNK         0.3000 
    170 H170        1.6174  -13.5534  -41.1083 H         1 UNK         0.0600 
    171 H171        2.9181  -14.2189  -43.8039 H         1 UNK         0.0600 
    172 H172        3.1740  -12.7127  -42.9246 H         1 UNK         0.0600 
    173 H173        3.6919  -14.2392  -42.2272 H         1 UNK         0.0600 
    174 H174        0.7569  -12.8966  -43.8102 H         1 UNK         0.3000 
    175 H175       -2.5416  -12.1478  -43.0641 H         1 UNK         0.0600 
    176 H176       -0.4898   -9.9131  -42.6280 H         1 UNK         0.0600 
    177 H177       -2.1695   -9.6893  -43.1185 H         1 UNK         0.0600 
    178 H178       -1.7974  -10.3365  -41.5296 H         1 UNK         0.0600 
    179 H179       -0.5122  -10.9736  -44.8332 H         1 UNK         0.3000 
    180 H180       -0.8153  -13.3958  -47.3312 H         1 UNK         0.0600 
    181 H181       -2.1794  -10.6590  -47.4773 H         1 UNK         0.0600 
    182 H182       -2.9712  -12.2015  -47.7769 H         1 UNK         0.0600 
    183 H183       -1.6905  -11.6586  -48.8470 H         1 UNK         0.0600 
    184 H184        0.3482  -10.9541  -47.7264 H         1 UNK         0.3000 
    185 H185        2.6937  -11.0640  -47.8753 H         1 UNK         0.0600 
    186 H186        2.0619   -9.3202  -46.1925 H         1 UNK         0.0600 
    187 H187        2.9301  -10.1908  -44.9338 H         1 UNK         0.0600 
    188 H188        3.8088   -9.4748  -46.2853 H         1 UNK         0.0600 
    189 H189        4.4047  -11.9810  -45.7055 H         1 UNK         0.3000 
    190 H190       -1.2332  -20.3614  -47.5914 H         1 UNK         0.3000 
    191 H191       -3.0852  -20.9768  -49.6517 H         1 UNK         0.0600 
    192 H192       -3.1772  -18.9003  -48.2776 H         1 UNK         0.0600 
    193 H193       -3.6323  -19.8455  -46.8619 H         1 UNK         0.0600 
    194 H194       -4.7086  -19.7606  -48.2510 H         1 UNK         0.0600 
    195 H195       -2.7645  -22.3110  -46.3230 H         1 UNK         0.3000 
    196 H196       -4.9380  -24.0887  -46.4013 H         1 UNK         0.0600 
    197 H197       -3.7194  -23.5304  -44.3273 H         1 UNK         0.0600 
    198 H198       -2.2829  -24.3689  -44.9067 H         1 UNK         0.0600 
    199 H199       -3.7517  -25.2713  -44.5622 H         1 UNK         0.0600 
    200 H200       -1.5304  -24.6305  -47.3819 H         1 UNK         0.3000 
    201 H201       -1.8033  -27.3074  -48.2797 H         1 UNK         0.0600 
    202 H202        0.3834  -26.2364  -47.7982 H         1 UNK         0.0600 
    203 H203        0.1685  -25.1282  -49.1508 H         1 UNK         0.0600 
    204 H204        0.3555  -26.8526  -49.4441 H         1 UNK         0.0600 
    205 H205       -2.3704  -24.2173  -49.9479 H         1 UNK         0.3000 
    206 H206       -2.9472  -25.3512  -52.5489 H         1 UNK         0.0600 
    207 H207       -1.9913  -23.0930  -52.2877 H         1 UNK         0.0600 
    208 H208       -3.4002  -22.5742  -51.3691 H         1 UNK         0.0600 
    209 H209       -3.5563  -22.9773  -53.0681 H         1 UNK         0.0600 
    210 H210       -4.3659  -26.8637  -50.9802 H         1 UNK         0.3000 
    211 H211       -6.3176  -27.8574  -50.6201 H         1 UNK         0.0600 
    212 H212       -7.2125  -26.2320  -53.0602 H         1 UNK         0.0600 
    213 H213       -8.0141  -27.6731  -52.4446 H         1 UNK         0.0600 
    214 H214       -6.3871  -27.7865  -53.0932 H         1 UNK         0.0600 
    215 H215       -5.9904  -25.9433  -48.7613 H         1 UNK         0.3000 
    216 H216       -6.9666  -24.7088  -47.1943 H         1 UNK         0.0600 
    217 H217       -9.2738  -25.2440  -46.5215 H         1 UNK         0.0600 
    218 H218       -8.4228  -26.7175  -46.9551 H         1 UNK         0.0600 
    219 H219       -9.5941  -26.0134  -48.0689 H         1 UNK         0.0600 
    220 H220       -6.3193  -23.2712  -49.2944 H         1 UNK         0.3000 
    221 H221       -6.4039  -21.3679  -50.2792 H         1 UNK         0.0600 
    222 H222       -8.8178  -20.5859  -48.5712 H         1 UNK         0.0600 
    223 H223       -7.1365  -20.4791  -48.0488 H         1 UNK         0.0600 
    224 H224       -7.7055  -19.4996  -49.3897 H         1 UNK         0.0600 
    225 H225       -8.4725  -23.6568  -51.1262 H         1 UNK         0.3000 
    226 H226      -10.3616  -22.2731  -52.7916 H         1 UNK         0.0600 
    227 H227      -10.6781  -24.6319  -52.0237 H         1 UNK         0.0600 
    228 H228      -10.7750  -24.4919  -53.7727 H         1 UNK         0.0600 
    229 H229       -9.3214  -25.1398  -53.0302 H         1 UNK         0.0600 
    230 H230       -6.9838  -23.1998  -53.2230 H         1 UNK         0.3000 
    231 H231       -6.9930  -22.1601  -56.0282 H         1 UNK         0.0600 
    232 H232       -4.8118  -23.3229  -56.2259 H         1 UNK         0.0600 
    233 H233       -6.0919  -24.4451  -55.8014 H         1 UNK         0.0600 
    234 H234       -4.9532  -23.9125  -54.5745 H         1 UNK         0.0600 
    235 H235       -7.2230  -20.5996  -53.4814 H         1 UNK         0.3000 
    236 H236       -6.6291  -18.6760  -52.6331 H         1 UNK         0.0600 
    237 H237       -4.8043  -18.2080  -55.0521 H         1 UNK         0.0600 
    238 H238       -6.5407  -17.9189  -55.0401 H         1 UNK         0.0600 
    239 H239       -5.4975  -16.9833  -53.9913 H         1 UNK         0.0600 
    240 H240       -3.8216  -17.4616  -52.9938 H         1 UNK         0.3000 
    241 H241       -2.5398  -18.8345  -50.7423 H         1 UNK         0.0600 
    242 H242       -0.3212  -20.8596  -52.6368 H         1 UNK         0.3800 
    243 H243       -1.3181  -20.7125  -51.2186 H         1 UNK         0.3800 
    244 H244       -2.6448  -16.3358  -50.8671 H         1 UNK         0.0800 
    245 H245       -1.6584  -16.3491  -52.2992 H         1 UNK         0.0800 
    246 H246        0.8832  -15.3551  -51.6316 H         1 UNK         0.0800 
    247 H247        0.6896  -16.8848  -52.4558 H         1 UNK         0.0800 
@<TRIPOS>BOND
     1    1    2 1    
     2    1  127 1    
     3    1  128 1    
     4    1  129 1    
     5    2    3 2    
     6    2    4 am   BACKBONE|DICT|INTERRES
     7    4    5 1    
     8    4  130 1    
     9    5    6 1    
    10    5   65 1    
    11    5  131 1    
    12    6    7 1    
    13    6  132 1    
    14    6  133 1    
    15    7    8 1    
    16    8    9 1    
    17    8  134 1    
    18    8  135 1    
    19    9   10 ar   
    20    9   14 ar   
    21   10   11 ar   
    22   10  136 1    
    23   11   12 ar   
    24   11  126 1    
    25   12   13 ar   
    26   12  137 1    
    27   13   14 ar   
    28   13   15 1    
    29   14  138 1    
    30   15   16 1    
    31   15  139 1    
    32   15  140 1    
    33   16   17 1    
    34   17   18 1    
    35   17  141 1    
    36   17  142 1    
    37   18   19 1    
    38   18   67 1    
    39   18  143 1    
    40   19   20 am   BACKBONE|DICT|INTERRES
    41   19  144 1    
    42   20   21 2    
    43   20   22 1    
    44   22   23 1    
    45   22   24 1    
    46   22  145 1    
    47   23  146 1    
    48   23  147 1    
    49   23  148 1    
    50   24   25 am   BACKBONE|DICT|INTERRES
    51   24  149 1    
    52   25   26 2    
    53   25   27 1    
    54   27   28 1    
    55   27   29 1    
    56   27  150 1    
    57   28  151 1    
    58   28  152 1    
    59   28  153 1    
    60   29   30 am   BACKBONE|DICT|INTERRES
    61   29  154 1    
    62   30   31 2    
    63   30   32 1    
    64   32   33 1    
    65   32   34 1    
    66   32  155 1    
    67   33  156 1    
    68   33  157 1    
    69   33  158 1    
    70   34   35 am   BACKBONE|DICT|INTERRES
    71   34  159 1    
    72   35   36 2    
    73   35   37 1    
    74   37   38 1    
    75   37   39 1    
    76   37  160 1    
    77   38  161 1    
    78   38  162 1    
    79   38  163 1    
    80   39   40 am   BACKBONE|DICT|INTERRES
    81   39  164 1    
    82   40   41 2    
    83   40   42 1    
    84   42   43 1    
    85   42   44 1    
    86   42  165 1    
    87   43  166 1    
    88   43  167 1    
    89   43  168 1    
    90   44   45 am   BACKBONE|DICT|INTERRES
    91   44  169 1    
    92   45   46 2    
    93   45   47 1    
    94   47   48 1    
    95   47   49 1    
    96   47  170 1    
    97   48  171 1    
    98   48  172 1    
    99   48  173 1    
   100   49   50 am   BACKBONE|DICT|INTERRES
   101   49  174 1    
   102   50   51 2    
   103   50   52 1    
   104   52   53 1    
   105   52   54 1    
   106   52  175 1    
   107   53  176 1    
   108   53  177 1    
   109   53  178 1    
   110   54   55 am   BACKBONE|DICT|INTERRES
   111   54  179 1    
   112   55   56 2    
   113   55   57 1    
   114   57   58 1    
   115   57   59 1    
   116   57  180 1    
   117   58  181 1    
   118   58  182 1    
   119   58  183 1    
   120   59   60 am   BACKBONE|DICT|INTERRES
   121   59  184 1    
   122   60   61 2    
   123   60   62 1    
   124   62   63 1    
   125   62   64 1    
   126   62  185 1    
   127   63  186 1    
   128   63  187 1    
   129   63  188 1    
   130   64   65 am   BACKBONE|DICT|INTERRES
   131   64  189 1    
   132   65   66 2    
   133   67   68 2    
   134   67   69 am   BACKBONE|DICT|INTERRES
   135   69   70 1    
   136   69  190 1    
   137   70   71 1    
   138   70   72 1    
   139   70  191 1    
   140   71  192 1    
   141   71  193 1    
   142   71  194 1    
   143   72   73 2    
   144   72   74 am   BACKBONE|DICT|INTERRES
   145   74   75 1    
   146   74  195 1    
   147   75   76 1    
   148   75   77 1    
   149   75  196 1    
   150   76  197 1    
   151   76  198 1    
   152   76  199 1    
   153   77   78 2    
   154   77   79 am   BACKBONE|DICT|INTERRES
   155   79   80 1    
   156   79  200 1    
   157   80   81 1    
   158   80   82 1    
   159   80  201 1    
   160   81  202 1    
   161   81  203 1    
   162   81  204 1    
   163   82   83 2    
   164   82   84 am   BACKBONE|DICT|INTERRES
   165   84   85 1    
   166   84  205 1    
   167   85   86 1    
   168   85   87 1    
   169   85  206 1    
   170   86  207 1    
   171   86  208 1    
   172   86  209 1    
   173   87   88 2    
   174   87   89 am   BACKBONE|DICT|INTERRES
   175   89   90 1    
   176   89  210 1    
   177   90   91 1    
   178   90   92 1    
   179   90  211 1    
   180   91  212 1    
   181   91  213 1    
   182   91  214 1    
   183   92   93 2    
   184   92   94 am   BACKBONE|DICT|INTERRES
   185   94   95 1    
   186   94  215 1    
   187   95   96 1    
   188   95   97 1    
   189   95  216 1    
   190   96  217 1    
   191   96  218 1    
   192   96  219 1    
   193   97   98 2    
   194   97   99 am   BACKBONE|DICT|INTERRES
   195   99  100 1    
   196   99  220 1    
   197  100  101 1    
   198  100  102 1    
   199  100  221 1    
   200  101  222 1    
   201  101  223 1    
   202  101  224 1    
   203  102  103 2    
   204  102  104 am   BACKBONE|DICT|INTERRES
   205  104  105 1    
   206  104  225 1    
   207  105  106 1    
   208  105  107 1    
   209  105  226 1    
   210  106  227 1    
   211  106  228 1    
   212  106  229 1    
   213  107  108 2    
   214  107  109 am   BACKBONE|DICT|INTERRES
   215  109  110 1    
   216  109  230 1    
   217  110  111 1    
   218  110  112 1    
   219  110  231 1    
   220  111  232 1    
   221  111  233 1    
   222  111  234 1    
   223  112  113 2    
   224  112  114 am   BACKBONE|DICT|INTERRES
   225  114  115 1    
   226  114  235 1    
   227  115  116 1    
   228  115  117 1    
   229  115  236 1    
   230  116  237 1    
   231  116  238 1    
   232  116  239 1    
   233  117  118 2    
   234  117  119 am   BACKBONE|DICT|INTERRES
   235  119  120 1    
   236  119  240 1    
   237  120  121 1    
   238  120  124 1    
   239  120  241 1    
   240  121  122 am   BACKBONE|DICT|INTERRES
   241  121  123 2    
   242  122  242 1    
   243  122  243 1    
   244  124  125 1    
   245  124  244 1    
   246  124  245 1    
   247  125  126 1    
   248  126  246 1    
   249  126  247 1    
@<TRIPOS>SUBSTRUCTURE
     1 UNK         1 GROUP             0       ****    0 ROOT    
