@<TRIPOS>MOLECULE
3R540
247   249    1
SMALL
USER_CHARGES


@<TRIPOS>ATOM
      1 CA         -3.6924  -13.0170  -43.5286 C.3       0 UNK        -0.1800 
      2 C          -2.9621  -14.3398  -43.7498 C.2       0 UNK         0.5000 
      3 O          -2.9783  -15.1903  -42.8642 O.2       0 UNK        -0.5000 
      4 N          -2.3150  -14.5642  -44.9023 N.am      1 UNK        -0.5000 
      5 CA         -2.1888  -13.6510  -46.0498 C.3       1 UNK         0.1400 
      6 C6         -1.8811  -14.4329  -47.3512 C.3       23 UNK        -0.0398 
      7 S7         -3.3609  -15.3375  -47.9212 S.3       23 UNK        -0.2404 
      8 C8         -3.4355  -14.9028  -49.6895 C.3       23 UNK        -0.0205 
      9 C9         -2.8646  -16.0006  -50.5781 C.ar      23 UNK        -0.0193 
     10 C10        -3.6427  -16.5352  -51.6092 C.ar      23 UNK        -0.1150 
     11 C11        -3.1411  -17.5368  -52.4457 C.ar      23 UNK        -0.0193 
     12 C12        -1.8474  -18.0216  -52.2199 C.ar      23 UNK        -0.1150 
     13 C13        -1.0547  -17.4927  -51.1981 C.ar      23 UNK        -0.0193 
     14 C14        -1.5633  -16.4749  -50.3879 C.ar      23 UNK        -0.1150 
     15 C15         0.3572  -18.0136  -50.9875 C.3       23 UNK        -0.0205 
     16 S16         0.3656  -19.6496  -50.1946 S.3       23 UNK        -0.2404 
     17 C17        -0.0311  -19.2408  -48.4623 C.3       23 UNK        -0.0398 
     18 CA         -1.0223  -20.2591  -47.8428 C.3       11 UNK         0.1400 
     19 N          -0.6421  -20.6365  -46.4782 N.am      11 UNK        -0.5000 
     20 C          -1.1901  -21.6406  -45.7797 C.2       10 UNK         0.5000 
     21 O          -2.0630  -22.3801  -46.2271 O.2       10 UNK        -0.5000 
     22 CA         -0.7277  -21.8095  -44.3232 C.3       10 UNK         0.1400 
     23 CB          0.5723  -22.6240  -44.2408 C.3       10 UNK        -0.1800 
     24 N          -0.5499  -20.5083  -43.6790 N.am      10 UNK        -0.5000 
     25 C          -1.5661  -19.7421  -43.2568 C.2       9 UNK         0.5000 
     26 O          -2.7402  -20.1112  -43.2568 O.2       9 UNK        -0.5000 
     27 CA         -1.2221  -18.3183  -42.7833 C.3       9 UNK         0.1400 
     28 CB         -1.0346  -18.2842  -41.2596 C.3       9 UNK        -0.1800 
     29 N          -0.0277  -17.7803  -43.4391 N.am      9 UNK        -0.5000 
     30 C           0.0010  -17.3553  -44.7094 C.2       8 UNK         0.5000 
     31 O          -0.9908  -17.3250  -45.4382 O.2       8 UNK        -0.5000 
     32 CA          1.3602  -16.9090  -45.2787 C.3       8 UNK         0.1400 
     33 CB          1.5969  -15.4199  -45.0049 C.3       8 UNK        -0.1800 
     34 N           2.5000  -17.6713  -44.7723 N.am      8 UNK        -0.5000 
     35 C           2.7006  -18.9821  -44.9422 C.2       7 UNK         0.5000 
     36 O           1.8931  -19.7125  -45.5141 O.2       7 UNK        -0.5000 
     37 CA          3.9910  -19.5960  -44.3601 C.3       7 UNK         0.1400 
     38 CB          5.1482  -19.5171  -45.3732 C.3       7 UNK        -0.1800 
     39 N           4.3791  -19.0636  -43.0456 N.am      7 UNK        -0.5000 
     40 C           4.7897  -17.8292  -42.7235 C.2       6 UNK         0.5000 
     41 O           4.9759  -16.9222  -43.5376 O.2       6 UNK        -0.5000 
     42 CA          4.9302  -17.5372  -41.2187 C.3       6 UNK         0.1400 
     43 CB          6.3567  -17.0803  -40.8759 C.3       6 UNK        -0.1800 
     44 N           3.9825  -16.5155  -40.7709 N.am      6 UNK        -0.5000 
     45 C           2.6548  -16.5174  -40.9468 C.2       5 UNK         0.5000 
     46 O           2.0473  -17.4261  -41.5129 O.2       5 UNK        -0.5000 
     47 CA          1.8543  -15.3082  -40.4206 C.3       5 UNK         0.1400 
     48 CB          1.3640  -15.5594  -38.9833 C.3       5 UNK        -0.1800 
     49 N           2.5188  -14.0015  -40.5332 N.am      5 UNK        -0.5000 
     50 C           3.6298  -13.5509  -39.9270 C.2       4 UNK         0.5000 
     51 O           4.3221  -14.2304  -39.1686 O.2       4 UNK        -0.5000 
     52 CA          4.0635  -12.1028  -40.2336 C.3       4 UNK         0.1400 
     53 CB          5.1862  -12.0981  -41.2829 C.3       4 UNK        -0.1800 
     54 N           2.9698  -11.2561  -40.7109 N.am      4 UNK        -0.5000 
     55 C           1.9280  -10.8514  -39.9707 C.2       3 UNK         0.5000 
     56 O           1.8218  -11.0704  -38.7636 O.2       3 UNK        -0.5000 
     57 CA          0.8037  -10.0936  -40.7061 C.3       3 UNK         0.1400 
     58 CB          0.9167   -8.5831  -40.4480 C.3       3 UNK        -0.1800 
     59 N           0.7655  -10.3265  -42.1553 N.am      3 UNK        -0.5000 
     60 C           0.5136  -11.5030  -42.7433 C.2       2 UNK         0.5000 
     61 O           0.3398  -12.5598  -42.1300 O.2       2 UNK        -0.5000 
     62 CA          0.4974  -11.5079  -44.2750 C.3       2 UNK         0.1400 
     63 CB          1.9064  -11.7631  -44.8367 C.3       2 UNK        -0.1800 
     64 N          -0.4148  -12.5561  -44.7164 N.am      2 UNK        -0.5000 
     65 C          -1.1668  -12.5123  -45.8220 C.2       1 UNK         0.5000 
     66 O          -1.0988  -11.5988  -46.6452 O.2       1 UNK        -0.5000 
     67 C          -2.4916  -19.7933  -47.9371 C.2       11 UNK         0.5000 
     68 O          -3.1811  -20.1392  -48.8972 O.2       11 UNK        -0.5000 
     69 N          -2.9655  -19.0962  -46.8939 N.am      12 UNK        -0.5000 
     70 CA         -4.3564  -18.6745  -46.7183 C.3       12 UNK         0.1400 
     71 CB         -4.4601  -17.7963  -45.4614 C.3       12 UNK        -0.1800 
     72 C          -5.3682  -19.8354  -46.6294 C.2       12 UNK         0.5000 
     73 O          -6.5442  -19.6268  -46.9336 O.2       12 UNK        -0.5000 
     74 N          -4.9169  -21.0337  -46.2293 N.am      13 UNK        -0.5000 
     75 CA         -5.7309  -22.2450  -46.1527 C.3       13 UNK         0.1400 
     76 CB         -5.1076  -23.2264  -45.1443 C.3       13 UNK        -0.1800 
     77 C          -5.9136  -22.8626  -47.5520 C.2       13 UNK         0.5000 
     78 O          -5.2577  -23.8497  -47.8903 O.2       13 UNK        -0.5000 
     79 N          -6.7993  -22.2429  -48.3438 N.am      14 UNK        -0.5000 
     80 CA         -7.2526  -22.6643  -49.6725 C.3       14 UNK         0.1400 
     81 CB         -8.1203  -23.9357  -49.5576 C.3       14 UNK        -0.1800 
     82 C          -6.0999  -22.8197  -50.6840 C.2       14 UNK         0.5000 
     83 O          -5.9741  -23.8693  -51.3166 O.2       14 UNK        -0.5000 
     84 N          -5.2657  -21.7753  -50.7998 N.am      15 UNK        -0.5000 
     85 CA         -4.1031  -21.6892  -51.6931 C.3       15 UNK         0.1400 
     86 CB         -4.5565  -21.7418  -53.1698 C.3       15 UNK        -0.1800 
     87 C          -3.0419  -22.7579  -51.3616 C.2       15 UNK         0.5000 
     88 O          -2.5600  -23.4440  -52.2634 O.2       15 UNK        -0.5000 
     89 N          -2.7382  -22.9084  -50.0642 N.am      16 UNK        -0.5000 
     90 CA         -1.8721  -23.9392  -49.4776 C.3       16 UNK         0.1400 
     91 CB         -0.4040  -23.7369  -49.9182 C.3       16 UNK        -0.1800 
     92 C          -2.3840  -25.3647  -49.7765 C.2       16 UNK         0.5000 
     93 O          -1.6050  -26.2244  -50.1877 O.2       16 UNK        -0.5000 
     94 N          -3.6995  -25.5754  -49.6175 N.am      17 UNK        -0.5000 
     95 CA         -4.4492  -26.7713  -50.0228 C.3       17 UNK         0.1400 
     96 CB         -4.1086  -27.9650  -49.1073 C.3       17 UNK        -0.1800 
     97 C          -4.2688  -27.0813  -51.5268 C.2       17 UNK         0.5000 
     98 O          -3.9269  -28.2040  -51.9019 O.2       17 UNK        -0.5000 
     99 N          -4.4636  -26.0401  -52.3465 N.am      18 UNK        -0.5000 
    100 CA        -4.3069  -25.9590  -53.8019 C.3       18 UNK         0.1400 
    101 CB        -5.2231  -26.9714  -54.5185 C.3       18 UNK        -0.1800 
    102 C         -2.8551  -26.0294  -54.3250 C.2       18 UNK         0.5000 
    103 O         -2.6623  -25.8926  -55.5345 O.2       18 UNK        -0.5000 
    104 N         -1.8536  -26.2028  -53.4493 N.am      19 UNK        -0.5000 
    105 CA        -0.4415  -26.3277  -53.8249 C.3       19 UNK         0.1400 
    106 CB         0.3726  -26.8436  -52.6300 C.3       19 UNK        -0.1800 
    107 C          0.1834  -25.0336  -54.3825 C.2       19 UNK         0.5000 
    108 O          1.1420  -25.1206  -55.1513 O.2       19 UNK        -0.5000 
    109 N         -0.3621  -23.8642  -54.0150 N.am      20 UNK        -0.5000 
    110 CA         0.0619  -22.5623  -54.5411 C.3       20 UNK         0.1400 
    111 CB        -0.3581  -21.4493  -53.5691 C.3       20 UNK        -0.1800 
    112 C         -0.4772  -22.2843  -55.9600 C.2       20 UNK         0.5000 
    113 O          0.0337  -21.3827  -56.6253 O.2       20 UNK        -0.5000 
    114 N         -1.4754  -23.0692  -56.3991 N.am      21 UNK        -0.5000 
    115 CA        -2.0828  -23.0785  -57.7336 C.3       21 UNK         0.1400 
    116 CB        -1.0751  -23.6049  -58.7770 C.3       21 UNK        -0.1800 
    117 C         -2.7228  -21.7316  -58.1344 C.2       21 UNK         0.5000 
    118 O         -2.5595  -21.2806  -59.2701 O.2       21 UNK        -0.5000 
    119 N         -3.4518  -21.1170  -57.1931 N.am      22 UNK        -0.5000 
    120 CA        -4.1825  -19.8515  -57.3969 C.3       22 UNK         0.1400 
    121 C         -5.4258  -19.9561  -58.3318 C.2       22 UNK         0.5000 
    122 N         -5.9316  -21.1432  -58.6446 N.am      22 UNK        -0.7600 
    123 O         -5.9395  -18.9371  -58.7855 O.2       22 UNK        -0.5000 
    124 C124       -4.5830  -19.1866  -56.0556 C.3       23 UNK        -0.0398 
    125 S125       -3.1578  -18.7847  -54.9928 S.3       23 UNK        -0.2404 
    126 C126       -4.0386  -18.0799  -53.5560 C.3       23 UNK        -0.0205 
    127 H127       -2.9982  -12.1775  -43.5288 H         1 UNK         0.0600 
    128 H128       -4.2020  -13.0220  -42.5649 H         1 UNK         0.0600 
    129 H129       -4.4470  -12.8540  -44.2977 H         1 UNK         0.0600 
    130 H130       -1.8921  -15.4753  -45.0392 H         1 UNK         0.3000 
    131 H131       -3.1467  -13.1486  -46.1945 H         1 UNK         0.0600 
    132 H132       -1.5487  -13.7611  -48.1437 H         1 UNK         0.0800 
    133 H133       -1.0668  -15.1428  -47.1992 H         1 UNK         0.0800 
    134 H134       -2.9192  -13.9642  -49.8912 H         1 UNK         0.0800 
    135 H135       -4.4826  -14.7246  -49.9388 H         1 UNK         0.0800 
    136 H136       -4.6470  -16.1667  -51.7655 H         1 UNK         0.1150 
    137 H137       -1.4455  -18.8114  -52.8366 H         1 UNK         0.1150 
    138 H138       -0.9511  -16.0588  -49.6013 H         1 UNK         0.1150 
    139 H139        0.8559  -18.0920  -51.9546 H         1 UNK         0.0800 
    140 H140        0.9502  -17.3149  -50.3953 H         1 UNK         0.0800 
    141 H141       -0.3953  -18.2160  -48.3729 H         1 UNK         0.0800 
    142 H142        0.9196  -19.2559  -47.9292 H         1 UNK         0.0800 
    143 H143       -0.9681  -21.1849  -48.4135 H         1 UNK         0.0600 
    144 H144        0.1303  -20.1254  -46.0604 H         1 UNK         0.3000 
    145 H145       -1.5021  -22.3634  -43.7879 H         1 UNK         0.0600 
    146 H146        1.3888  -22.1538  -44.7877 H         1 UNK         0.0600 
    147 H147        0.8916  -22.7529  -43.2066 H         1 UNK         0.0600 
    148 H148        0.4306  -23.6196  -44.6632 H         1 UNK         0.0600 
    149 H149        0.3817  -20.1192  -43.6824 H         1 UNK         0.3000 
    150 H150       -2.0712  -17.6795  -43.0327 H         1 UNK         0.0600 
    151 H151       -1.9275  -18.6460  -40.7484 H         1 UNK         0.0600 
    152 H152       -0.8502  -17.2682  -40.9103 H         1 UNK         0.0600 
    153 H153       -0.1980  -18.9075  -40.9420 H         1 UNK         0.0600 
    154 H154        0.8212  -17.7424  -42.8784 H         1 UNK         0.3000 
    155 H155        1.3261  -17.0546  -46.3603 H         1 UNK         0.0600 
    156 H156        2.5581  -15.0921  -45.4015 H         1 UNK         0.0600 
    157 H157        1.5787  -15.1942  -43.9376 H         1 UNK         0.0600 
    158 H158        0.8298  -14.8187  -45.4891 H         1 UNK         0.0600 
    159 H159        3.2316  -17.1514  -44.2969 H         1 UNK         0.3000 
    160 H160        3.7780  -20.6533  -44.1945 H         1 UNK         0.0600 
    161 H161        6.0459  -19.9978  -44.9846 H         1 UNK         0.0600 
    162 H162        5.4015  -18.4879  -45.6283 H         1 UNK         0.0600 
    163 H163        4.8839  -20.0243  -46.3020 H         1 UNK         0.0600 
    164 H164        4.2147  -19.7021  -42.2796 H         1 UNK         0.3000 
    165 H165        4.7194  -18.4490  -40.6566 H         1 UNK         0.0600 
    166 H166        6.6075  -16.1407  -41.3702 H         1 UNK         0.0600 
    167 H167        6.4770  -16.9352  -39.8021 H         1 UNK         0.0600 
    168 H168        7.0912  -17.8235  -41.1885 H         1 UNK         0.0600 
    169 H169        4.3703  -15.7290  -40.2580 H         1 UNK         0.3000 
    170 H170        0.9694  -15.2333  -41.0552 H         1 UNK         0.0600 
    171 H171        2.1923  -15.6543  -38.2806 H         1 UNK         0.0600 
    172 H172        0.7230  -14.7475  -38.6395 H         1 UNK         0.0600 
    173 H173        0.7818  -16.4800  -38.9262 H         1 UNK         0.0600 
    174 H174        2.0272  -13.3491  -41.1336 H         1 UNK         0.3000 
    175 H175        4.4528  -11.6717  -39.3089 H         1 UNK         0.0600 
    176 H176        4.8487  -12.5084  -42.2357 H         1 UNK         0.0600 
    177 H177        5.5546  -11.0879  -41.4627 H         1 UNK         0.0600 
    178 H178        6.0350  -12.6973  -40.9504 H         1 UNK         0.0600 
    179 H179        2.9806  -11.0101  -41.6893 H         1 UNK         0.3000 
    180 H180       -0.1438  -10.4416  -40.2893 H         1 UNK         0.0600 
    181 H181        1.8364   -8.1715  -40.8657 H         1 UNK         0.0600 
    182 H182        0.9166   -8.3673  -39.3786 H         1 UNK         0.0600 
    183 H183        0.0766   -8.0434  -40.8857 H         1 UNK         0.0600 
    184 H184        0.9149   -9.5141  -42.7369 H         1 UNK         0.3000 
    185 H185        0.1368  -10.5365  -44.6204 H         1 UNK         0.0600 
    186 H186        2.5856  -10.9530  -44.5693 H         1 UNK         0.0600 
    187 H187        2.3339  -12.6885  -44.4501 H         1 UNK         0.0600 
    188 H188        1.8931  -11.8289  -45.9247 H         1 UNK         0.0600 
    189 H189       -0.5504  -13.3034  -44.0471 H         1 UNK         0.3000 
    190 H190       -2.3143  -18.8016  -46.1757 H         1 UNK         0.3000 
    191 H191       -4.6269  -18.0714  -47.5870 H         1 UNK         0.0600 
    192 H192       -4.2657  -18.3664  -44.5535 H         1 UNK         0.0600 
    193 H193       -3.7518  -16.9701  -45.4904 H         1 UNK         0.0600 
    194 H194       -5.4572  -17.3644  -45.3692 H         1 UNK         0.0600 
    195 H195       -3.9273  -21.1505  -46.0517 H         1 UNK         0.3000 
    196 H196       -6.7197  -21.9810  -45.7712 H         1 UNK         0.0600 
    197 H197       -4.9533  -22.7529  -44.1745 H         1 UNK         0.0600 
    198 H198       -4.1483  -23.6146  -45.4837 H         1 UNK         0.0600 
    199 H199       -5.7629  -24.0838  -44.9882 H         1 UNK         0.0600 
    200 H200       -7.2073  -21.3845  -47.9901 H         1 UNK         0.3000 
    201 H201       -7.8888  -21.8643  -50.0535 H         1 UNK         0.0600 
    202 H202       -8.5448  -24.2083  -50.5246 H         1 UNK         0.0600 
    203 H203       -8.9526  -23.7841  -48.8704 H         1 UNK         0.0600 
    204 H204       -7.5433  -24.7899  -49.2014 H         1 UNK         0.0600 
    205 H205       -5.4051  -20.9799  -50.1918 H         1 UNK         0.3000 
    206 H206       -3.6374  -20.7179  -51.5203 H         1 UNK         0.0600 
    207 H207       -4.9301  -22.7260  -53.4485 H         1 UNK         0.0600 
    208 H208       -3.7323  -21.5099  -53.8424 H         1 UNK         0.0600 
    209 H209       -5.3544  -21.0272  -53.3646 H         1 UNK         0.0600 
    210 H210       -3.1880  -22.2807  -49.4089 H         1 UNK         0.3000 
    211 H211       -1.9211  -23.8144  -48.3965 H         1 UNK         0.0600 
    212 H212       -0.0511  -22.7284  -49.7147 H         1 UNK         0.0600 
    213 H213        0.2583  -24.4223  -49.3885 H         1 UNK         0.0600 
    214 H214       -0.2718  -23.9174  -50.9848 H         1 UNK         0.0600 
    215 H215       -4.2606  -24.8240  -49.2232 H         1 UNK         0.3000 
    216 H216       -5.5047  -26.5345  -49.8801 H         1 UNK         0.0600 
    217 H217       -4.7378  -28.8249  -49.3391 H         1 UNK         0.0600 
    218 H218       -3.0707  -28.2801  -49.2181 H         1 UNK         0.0600 
    219 H219       -4.2731  -27.7152  -48.0592 H         1 UNK         0.0600 
    220 H220       -4.7765  -25.1721  -51.9153 H         1 UNK         0.3000 
    221 H221       -4.6611  -24.9638  -54.0694 H         1 UNK         0.0600 
    222 H222       -4.8961  -27.9993  -54.3610 H         1 UNK         0.0600 
    223 H223       -5.2315  -26.7966  -55.5950 H         1 UNK         0.0600 
    224 H224       -6.2525  -26.8874  -54.1701 H         1 UNK         0.0600 
    225 H225       -2.0698  -26.2578  -52.4619 H         1 UNK         0.3000 
    226 H226       -0.3818  -27.0802  -54.6140 H         1 UNK         0.0600 
    227 H227       -0.0643  -27.7508  -52.2120 H         1 UNK         0.0600 
    228 H228        1.3938  -27.0816  -52.9300 H         1 UNK         0.0600 
    229 H229        0.4344  -26.1010  -51.8349 H         1 UNK         0.0600 
    230 H230       -1.1538  -23.8609  -53.3729 H         1 UNK         0.3000 
    231 H231        1.1524  -22.5540  -54.5989 H         1 UNK         0.0600 
    232 H232        0.0795  -20.4943  -53.8617 H         1 UNK         0.0600 
    233 H233       -0.0258  -21.6622  -52.5531 H         1 UNK         0.0600 
    234 H234       -1.4383  -21.3164  -53.5494 H         1 UNK         0.0600 
    235 H235       -1.8001  -23.7986  -55.7769 H         1 UNK         0.3000 
    236 H236       -2.9024  -23.7968  -57.6852 H         1 UNK         0.0600 
    237 H237       -0.6693  -24.5715  -58.4779 H         1 UNK         0.0600 
    238 H238       -1.5516  -23.7411  -59.7485 H         1 UNK         0.0600 
    239 H239       -0.2390  -22.9187  -58.9153 H         1 UNK         0.0600 
    240 H240       -3.5180  -21.5339  -56.2773 H         1 UNK         0.3000 
    241 H241       -3.4963  -19.1678  -57.9007 H         1 UNK         0.0600 
    242 H242       -6.7332  -21.1951  -59.2538 H         1 UNK         0.3800 
    243 H243       -5.5244  -21.9892  -58.2809 H         1 UNK         0.3800 
    244 H244       -5.2676  -19.8322  -55.5038 H         1 UNK         0.0800 
    245 H245       -5.1226  -18.2556  -56.2397 H         1 UNK         0.0800 
    246 H246       -4.6839  -17.2782  -53.9193 H         1 UNK         0.0800 
    247 H247       -4.6967  -18.8329  -53.1250 H         1 UNK         0.0800 
@<TRIPOS>BOND
     1    1    2 1    
     2    1  127 1    
     3    1  128 1    
     4    1  129 1    
     5    2    3 2    
     6    2    4 am   BACKBONE|DICT|INTERRES
     7    4    5 1    
     8    4  130 1    
     9    5    6 1    
    10    5   65 1    
    11    5  131 1    
    12    6    7 1    
    13    6  132 1    
    14    6  133 1    
    15    7    8 1    
    16    8    9 1    
    17    8  134 1    
    18    8  135 1    
    19    9   10 ar   
    20    9   14 ar   
    21   10   11 ar   
    22   10  136 1    
    23   11   12 ar   
    24   11  126 1    
    25   12   13 ar   
    26   12  137 1    
    27   13   14 ar   
    28   13   15 1    
    29   14  138 1    
    30   15   16 1    
    31   15  139 1    
    32   15  140 1    
    33   16   17 1    
    34   17   18 1    
    35   17  141 1    
    36   17  142 1    
    37   18   19 1    
    38   18   67 1    
    39   18  143 1    
    40   19   20 am   BACKBONE|DICT|INTERRES
    41   19  144 1    
    42   20   21 2    
    43   20   22 1    
    44   22   23 1    
    45   22   24 1    
    46   22  145 1    
    47   23  146 1    
    48   23  147 1    
    49   23  148 1    
    50   24   25 am   BACKBONE|DICT|INTERRES
    51   24  149 1    
    52   25   26 2    
    53   25   27 1    
    54   27   28 1    
    55   27   29 1    
    56   27  150 1    
    57   28  151 1    
    58   28  152 1    
    59   28  153 1    
    60   29   30 am   BACKBONE|DICT|INTERRES
    61   29  154 1    
    62   30   31 2    
    63   30   32 1    
    64   32   33 1    
    65   32   34 1    
    66   32  155 1    
    67   33  156 1    
    68   33  157 1    
    69   33  158 1    
    70   34   35 am   BACKBONE|DICT|INTERRES
    71   34  159 1    
    72   35   36 2    
    73   35   37 1    
    74   37   38 1    
    75   37   39 1    
    76   37  160 1    
    77   38  161 1    
    78   38  162 1    
    79   38  163 1    
    80   39   40 am   BACKBONE|DICT|INTERRES
    81   39  164 1    
    82   40   41 2    
    83   40   42 1    
    84   42   43 1    
    85   42   44 1    
    86   42  165 1    
    87   43  166 1    
    88   43  167 1    
    89   43  168 1    
    90   44   45 am   BACKBONE|DICT|INTERRES
    91   44  169 1    
    92   45   46 2    
    93   45   47 1    
    94   47   48 1    
    95   47   49 1    
    96   47  170 1    
    97   48  171 1    
    98   48  172 1    
    99   48  173 1    
   100   49   50 am   BACKBONE|DICT|INTERRES
   101   49  174 1    
   102   50   51 2    
   103   50   52 1    
   104   52   53 1    
   105   52   54 1    
   106   52  175 1    
   107   53  176 1    
   108   53  177 1    
   109   53  178 1    
   110   54   55 am   BACKBONE|DICT|INTERRES
   111   54  179 1    
   112   55   56 2    
   113   55   57 1    
   114   57   58 1    
   115   57   59 1    
   116   57  180 1    
   117   58  181 1    
   118   58  182 1    
   119   58  183 1    
   120   59   60 am   BACKBONE|DICT|INTERRES
   121   59  184 1    
   122   60   61 2    
   123   60   62 1    
   124   62   63 1    
   125   62   64 1    
   126   62  185 1    
   127   63  186 1    
   128   63  187 1    
   129   63  188 1    
   130   64   65 am   BACKBONE|DICT|INTERRES
   131   64  189 1    
   132   65   66 2    
   133   67   68 2    
   134   67   69 am   BACKBONE|DICT|INTERRES
   135   69   70 1    
   136   69  190 1    
   137   70   71 1    
   138   70   72 1    
   139   70  191 1    
   140   71  192 1    
   141   71  193 1    
   142   71  194 1    
   143   72   73 2    
   144   72   74 am   BACKBONE|DICT|INTERRES
   145   74   75 1    
   146   74  195 1    
   147   75   76 1    
   148   75   77 1    
   149   75  196 1    
   150   76  197 1    
   151   76  198 1    
   152   76  199 1    
   153   77   78 2    
   154   77   79 am   BACKBONE|DICT|INTERRES
   155   79   80 1    
   156   79  200 1    
   157   80   81 1    
   158   80   82 1    
   159   80  201 1    
   160   81  202 1    
   161   81  203 1    
   162   81  204 1    
   163   82   83 2    
   164   82   84 am   BACKBONE|DICT|INTERRES
   165   84   85 1    
   166   84  205 1    
   167   85   86 1    
   168   85   87 1    
   169   85  206 1    
   170   86  207 1    
   171   86  208 1    
   172   86  209 1    
   173   87   88 2    
   174   87   89 am   BACKBONE|DICT|INTERRES
   175   89   90 1    
   176   89  210 1    
   177   90   91 1    
   178   90   92 1    
   179   90  211 1    
   180   91  212 1    
   181   91  213 1    
   182   91  214 1    
   183   92   93 2    
   184   92   94 am   BACKBONE|DICT|INTERRES
   185   94   95 1    
   186   94  215 1    
   187   95   96 1    
   188   95   97 1    
   189   95  216 1    
   190   96  217 1    
   191   96  218 1    
   192   96  219 1    
   193   97   98 2    
   194   97   99 am   BACKBONE|DICT|INTERRES
   195   99  100 1    
   196   99  220 1    
   197  100  101 1    
   198  100  102 1    
   199  100  221 1    
   200  101  222 1    
   201  101  223 1    
   202  101  224 1    
   203  102  103 2    
   204  102  104 am   BACKBONE|DICT|INTERRES
   205  104  105 1    
   206  104  225 1    
   207  105  106 1    
   208  105  107 1    
   209  105  226 1    
   210  106  227 1    
   211  106  228 1    
   212  106  229 1    
   213  107  108 2    
   214  107  109 am   BACKBONE|DICT|INTERRES
   215  109  110 1    
   216  109  230 1    
   217  110  111 1    
   218  110  112 1    
   219  110  231 1    
   220  111  232 1    
   221  111  233 1    
   222  111  234 1    
   223  112  113 2    
   224  112  114 am   BACKBONE|DICT|INTERRES
   225  114  115 1    
   226  114  235 1    
   227  115  116 1    
   228  115  117 1    
   229  115  236 1    
   230  116  237 1    
   231  116  238 1    
   232  116  239 1    
   233  117  118 2    
   234  117  119 am   BACKBONE|DICT|INTERRES
   235  119  120 1    
   236  119  240 1    
   237  120  121 1    
   238  120  124 1    
   239  120  241 1    
   240  121  122 am   BACKBONE|DICT|INTERRES
   241  121  123 2    
   242  122  242 1    
   243  122  243 1    
   244  124  125 1    
   245  124  244 1    
   246  124  245 1    
   247  125  126 1    
   248  126  246 1    
   249  126  247 1    
@<TRIPOS>SUBSTRUCTURE
     1 UNK         1 GROUP             0       ****    0 ROOT    
