@<TRIPOS>MOLECULE
3R540
247   249    1
SMALL
USER_CHARGES


@<TRIPOS>ATOM
      1 CA          6.6588  -20.1770  -49.0672 C.3       0 UNK        -0.1800 
      2 C           5.4388  -19.3080  -48.8050 C.2       0 UNK         0.5000 
      3 O           4.3701  -19.8266  -48.4899 O.2       0 UNK        -0.5000 
      4 N           5.5868  -17.9814  -48.9071 N.am      1 UNK        -0.5000 
      5 CA          4.5032  -16.9975  -48.7474 C.3       1 UNK         0.1400 
      6 C6          4.8386  -15.6558  -49.4572 C.3       23 UNK        -0.0398 
      7 S7          3.4318  -14.9692  -50.4087 S.3       23 UNK        -0.2404 
      8 C8          3.9074  -15.2890  -52.1462 C.3       23 UNK        -0.0205 
      9 C9          3.2820  -16.5641  -52.7016 C.ar      23 UNK        -0.0193 
     10 C10         2.3493  -16.5059  -53.7441 C.ar      23 UNK        -0.1150 
     11 C11         1.7808  -17.6764  -54.2611 C.ar      23 UNK        -0.0193 
     12 C12         2.1334  -18.9109  -53.7057 C.ar      23 UNK        -0.1150 
     13 C13         3.0401  -18.9791  -52.6462 C.ar      23 UNK        -0.0193 
     14 C14         3.6415  -17.8080  -52.1803 C.ar      23 UNK        -0.1150 
     15 C15         3.3359  -20.3075  -51.9657 C.3       23 UNK        -0.0205 
     16 S16         1.9099  -20.9365  -51.0110 S.3       23 UNK        -0.2404 
     17 C17         1.2812  -19.4555  -50.1313 C.3       23 UNK        -0.0398 
     18 CA          0.9351  -19.6514  -48.6334 C.3       11 UNK         0.1400 
     19 N           0.5410  -18.3674  -48.0507 N.am      11 UNK        -0.5000 
     20 C           0.5765  -18.0702  -46.7499 C.2       10 UNK         0.5000 
     21 O           1.1356  -18.7652  -45.8991 O.2       10 UNK        -0.5000 
     22 CA         -0.1550  -16.7894  -46.3293 C.3       10 UNK         0.1400 
     23 CB         -1.6134  -17.0982  -45.9394 C.3       10 UNK        -0.1800 
     24 N           0.5662  -16.1813  -45.2175 N.am      10 UNK        -0.5000 
     25 C           0.4007  -14.9302  -44.7815 C.2       9 UNK         0.5000 
     26 O          -0.4705  -14.1636  -45.2011 O.2       9 UNK        -0.5000 
     27 CA          1.3667  -14.4393  -43.6949 C.3       9 UNK         0.1400 
     28 CB          2.5622  -13.6891  -44.3100 C.3       9 UNK        -0.1800 
     29 N           0.6095  -13.5649  -42.8100 N.am      9 UNK        -0.5000 
     30 C           0.9681  -13.1487  -41.5908 C.2       8 UNK         0.5000 
     31 O           2.0550  -13.3967  -41.0681 O.2       8 UNK        -0.5000 
     32 CA         -0.0972  -12.3519  -40.8093 C.3       8 UNK         0.1400 
     33 CB         -0.0546  -10.8647  -41.1929 C.3       8 UNK        -0.1800 
     34 N          -1.4528  -12.8725  -41.0245 N.am      8 UNK        -0.5000 
     35 C          -1.8608  -14.0856  -40.6250 C.2       7 UNK         0.5000 
     36 O          -1.1569  -14.8322  -39.9419 O.2       7 UNK        -0.5000 
     37 CA         -3.2640  -14.5511  -41.0753 C.3       7 UNK         0.1400 
     38 CB         -3.6870  -13.9571  -42.4339 C.3       7 UNK        -0.1800 
     39 N          -3.2802  -16.0084  -41.1867 N.am      7 UNK        -0.5000 
     40 C          -3.6328  -16.8680  -40.2211 C.2       6 UNK         0.5000 
     41 O          -4.1693  -16.5375  -39.1626 O.2       6 UNK        -0.5000 
     42 CA         -3.2995  -18.3512  -40.4823 C.3       6 UNK         0.1400 
     43 CB         -4.4708  -19.0574  -41.1822 C.3       6 UNK        -0.1800 
     44 N          -2.0950  -18.4993  -41.3023 N.am      6 UNK        -0.5000 
     45 C          -0.8434  -18.2803  -40.8820 C.2       5 UNK         0.5000 
     46 O          -0.5427  -18.1140  -39.6988 O.2       5 UNK        -0.5000 
     47 CA          0.2427  -18.2366  -41.9796 C.3       5 UNK         0.1400 
     48 CB          1.5684  -17.6440  -41.4701 C.3       5 UNK        -0.1800 
     49 N           0.5168  -19.5401  -42.5836 N.am      5 UNK        -0.5000 
     50 C          -0.3162  -20.2484  -43.3582 C.2       4 UNK         0.5000 
     51 O          -1.4574  -19.8857  -43.6473 O.2       4 UNK        -0.5000 
     52 CA          0.2530  -21.5541  -43.9314 C.3       4 UNK         0.1400 
     53 CB         -0.6889  -22.2326  -44.9413 C.3       4 UNK        -0.1800 
     54 N           1.5341  -21.2677  -44.5718 N.am      4 UNK        -0.5000 
     55 C           2.6279  -22.0319  -44.4815 C.2       3 UNK         0.5000 
     56 O           2.6680  -23.0901  -43.8522 O.2       3 UNK        -0.5000 
     57 CA          3.8972  -21.5516  -45.2141 C.3       3 UNK         0.1400 
     58 CB          4.0487  -22.3040  -46.5454 C.3       3 UNK        -0.1800 
     59 N           3.9568  -20.1061  -45.4626 N.am      3 UNK        -0.5000 
     60 C           4.0745  -19.1696  -44.5061 C.2       2 UNK         0.5000 
     61 O           4.1070  -19.4403  -43.3051 O.2       2 UNK        -0.5000 
     62 CA          4.1781  -17.6938  -44.9509 C.3       2 UNK         0.1400 
     63 CB          5.1363  -16.8769  -44.0662 C.3       2 UNK        -0.1800 
     64 N           4.5974  -17.5831  -46.3473 N.am      2 UNK        -0.5000 
     65 C           4.0259  -16.8155  -47.2846 C.2       1 UNK         0.5000 
     66 O           3.1344  -16.0048  -47.0400 O.2       1 UNK        -0.5000 
     67 C          -0.2271  -20.6471  -48.4539 C.2       11 UNK         0.5000 
     68 O          -1.3808  -20.2247  -48.3504 O.2       11 UNK        -0.5000 
     69 N           0.0586  -21.9538  -48.5195 N.am      12 UNK        -0.5000 
     70 CA         -0.9585  -23.0107  -48.5880 C.3       12 UNK         0.1400 
     71 CB         -0.2689  -24.3820  -48.5734 C.3       12 UNK        -0.1800 
     72 C          -1.8902  -22.8857  -49.8129 C.2       12 UNK         0.5000 
     73 O          -3.0431  -23.3133  -49.7425 O.2       12 UNK        -0.5000 
     74 N          -1.3777  -22.2675  -50.8869 N.am      13 UNK        -0.5000 
     75 CA         -2.1045  -21.9052  -52.1022 C.3       13 UNK         0.1400 
     76 CB         -1.1051  -21.8340  -53.2671 C.3       13 UNK        -0.1800 
     77 C          -2.8963  -20.5839  -51.9870 C.2       13 UNK         0.5000 
     78 O          -3.5604  -20.2103  -52.9544 O.2       13 UNK        -0.5000 
     79 N          -2.8230  -19.8969  -50.8386 N.am      14 UNK        -0.5000 
     80 CA         -3.6262  -18.7160  -50.5124 C.3       14 UNK         0.1400 
     81 CB         -2.6941  -17.5587  -50.1125 C.3       14 UNK        -0.1800 
     82 C          -4.6028  -19.0096  -49.3597 C.2       14 UNK         0.5000 
     83 O          -5.7264  -18.5087  -49.3717 O.2       14 UNK        -0.5000 
     84 N          -4.1515  -19.8004  -48.3772 N.am      15 UNK        -0.5000 
     85 CA         -4.8300  -20.0733  -47.1096 C.3       15 UNK         0.1400 
     86 CB         -3.7845  -20.6223  -46.1242 C.3       15 UNK        -0.1800 
     87 C          -6.0372  -21.0300  -47.1925 C.2       15 UNK         0.5000 
     88 O          -6.6557  -21.2789  -46.1572 O.2       15 UNK        -0.5000 
     89 N          -6.3349  -21.5765  -48.3818 N.am      16 UNK        -0.5000 
     90 CA         -7.3545  -22.6015  -48.6519 C.3       16 UNK         0.1400 
     91 CB         -8.7642  -22.1580  -48.2050 C.3       16 UNK        -0.1800 
     92 C          -6.9579  -23.9973  -48.1265 C.2       16 UNK         0.5000 
     93 O          -7.8219  -24.8652  -47.9917 O.2       16 UNK        -0.5000 
     94 N          -5.6601  -24.1994  -47.8555 N.am      17 UNK        -0.5000 
     95 CA         -5.0940  -25.4720  -47.4128 C.3       17 UNK         0.1400 
     96 CB         -3.7950  -25.2139  -46.6333 C.3       17 UNK        -0.1800 
     97 C          -4.8557  -26.4078  -48.6089 C.2       17 UNK         0.5000 
     98 O          -5.3031  -27.5549  -48.5839 O.2       17 UNK        -0.5000 
     99 N          -4.1836  -25.8842  -49.6413 N.am      18 UNK        -0.5000 
    100 CA        -3.9683  -26.5456  -50.9271 C.3       18 UNK         0.1400 
    101 CB        -2.4834  -26.4411  -51.3115 C.3       18 UNK        -0.1800 
    102 C         -4.8499  -25.9109  -52.0148 C.2       18 UNK         0.5000 
    103 O         -5.3674  -26.6306  -52.8696 O.2       18 UNK        -0.5000 
    104 N         -5.0221  -24.5848  -51.9551 N.am      19 UNK        -0.5000 
    105 CA        -5.8392  -23.7769  -52.8554 C.3       19 UNK         0.1400 
    106 CB        -5.1582  -23.6464  -54.2345 C.3       19 UNK        -0.1800 
    107 C         -6.0441  -22.3990  -52.2102 C.2       19 UNK         0.5000 
    108 O         -5.4416  -22.1162  -51.1722 O.2       19 UNK        -0.5000 
    109 N         -6.8760  -21.5613  -52.8352 N.am      20 UNK        -0.5000 
    110 CA        -7.0811  -20.1592  -52.4546 C.3       20 UNK         0.1400 
    111 CB        -8.5455  -19.9718  -52.0235 C.3       20 UNK        -0.1800 
    112 C         -6.6949  -19.1934  -53.5948 C.2       20 UNK         0.5000 
    113 O         -6.9477  -17.9926  -53.4863 O.2       20 UNK        -0.5000 
    114 N         -6.0936  -19.7257  -54.6696 N.am      21 UNK        -0.5000 
    115 CA        -5.7320  -19.0212  -55.9020 C.3       21 UNK         0.1400 
    116 CB        -5.1499  -20.0364  -56.8978 C.3       21 UNK        -0.1800 
    117 C         -4.7574  -17.8446  -55.7062 C.2       21 UNK         0.5000 
    118 O         -4.8607  -16.8518  -56.4282 O.2       21 UNK        -0.5000 
    119 N         -3.8489  -17.9672  -54.7325 N.am      22 UNK        -0.5000 
    120 CA        -2.8970  -16.9155  -54.3408 C.3       22 UNK         0.1400 
    121 C         -3.4778  -15.9001  -53.3111 C.2       22 UNK         0.5000 
    122 N         -4.7329  -16.0065  -52.8871 N.am      22 UNK        -0.7600 
    123 O         -2.7779  -14.9816  -52.8950 O.2       22 UNK        -0.5000 
    124 C124       -1.5477  -17.5116  -53.8620 C.3       23 UNK        -0.0398 
    125 S125       -0.7385  -18.5292  -55.1421 S.3       23 UNK        -0.2404 
    126 C126        0.8068  -17.6055  -55.4332 C.3       23 UNK        -0.0205 
    127 H127        7.5176  -19.5849  -49.3839 H         1 UNK         0.0600 
    128 H128        6.4381  -20.9029  -49.8497 H         1 UNK         0.0600 
    129 H129        6.9322  -20.7211  -48.1634 H         1 UNK         0.0600 
    130 H130        6.4971  -17.6034  -49.1304 H         1 UNK         0.3000 
    131 H131        3.6366  -17.4245  -49.2507 H         1 UNK         0.0600 
    132 H132        5.1730  -14.9016  -48.7424 H         1 UNK         0.0800 
    133 H133        5.6795  -15.7823  -50.1393 H         1 UNK         0.0800 
    134 H134        4.9916  -15.3368  -52.2515 H         1 UNK         0.0800 
    135 H135        3.5913  -14.4310  -52.7413 H         1 UNK         0.0800 
    136 H136        2.0750  -15.5479  -54.1631 H         1 UNK         0.1150 
    137 H137        1.6829  -19.8191  -54.0807 H         1 UNK         0.1150 
    138 H138        4.3672  -17.8620  -51.3849 H         1 UNK         0.1150 
    139 H139        3.6121  -21.0466  -52.7188 H         1 UNK         0.0800 
    140 H140        4.1938  -20.2177  -51.3000 H         1 UNK         0.0800 
    141 H141        0.4178  -19.0793  -50.6841 H         1 UNK         0.0800 
    142 H142        2.0319  -18.6727  -50.1955 H         1 UNK         0.0800 
    143 H143        1.8083  -20.0359  -48.1044 H         1 UNK         0.0600 
    144 H144        0.0417  -17.7453  -48.6676 H         1 UNK         0.3000 
    145 H145       -0.1444  -16.0937  -47.1712 H         1 UNK         0.0600 
    146 H146       -2.1841  -16.1861  -45.7672 H         1 UNK         0.0600 
    147 H147       -2.1243  -17.6523  -46.7276 H         1 UNK         0.0600 
    148 H148       -1.6653  -17.6983  -45.0322 H         1 UNK         0.0600 
    149 H149        1.3117  -16.7589  -44.8562 H         1 UNK         0.3000 
    150 H150        1.7297  -15.2937  -43.1231 H         1 UNK         0.0600 
    151 H151        3.1196  -14.3337  -44.9891 H         1 UNK         0.0600 
    152 H152        3.2610  -13.3514  -43.5450 H         1 UNK         0.0600 
    153 H153        2.2381  -12.8159  -44.8774 H         1 UNK         0.0600 
    154 H154       -0.3022  -13.3139  -43.1709 H         1 UNK         0.3000 
    155 H155        0.1364  -12.4364  -39.7458 H         1 UNK         0.0600 
    156 H156       -0.3025  -10.7109  -42.2439 H         1 UNK         0.0600 
    157 H157        0.9396  -10.4480  -41.0260 H         1 UNK         0.0600 
    158 H158       -0.7546  -10.2826  -40.5934 H         1 UNK         0.0600 
    159 H159       -2.0796  -12.2991  -41.5701 H         1 UNK         0.3000 
    160 H160       -3.9799  -14.2265  -40.3177 H         1 UNK         0.0600 
    161 H161       -2.9525  -14.1642  -43.2139 H         1 UNK         0.0600 
    162 H162       -3.8187  -12.8762  -42.3753 H         1 UNK         0.0600 
    163 H163       -4.6409  -14.3718  -42.7606 H         1 UNK         0.0600 
    164 H164       -2.8240  -16.3924  -42.0000 H         1 UNK         0.3000 
    165 H165       -3.1299  -18.8351  -39.5182 H         1 UNK         0.0600 
    166 H166       -4.2615  -20.1176  -41.3267 H         1 UNK         0.0600 
    167 H167       -5.3824  -18.9835  -40.5879 H         1 UNK         0.0600 
    168 H168       -4.6787  -18.6213  -42.1602 H         1 UNK         0.0600 
    169 H169       -2.2218  -18.7719  -42.2732 H         1 UNK         0.3000 
    170 H170       -0.1289  -17.5765  -42.7656 H         1 UNK         0.0600 
    171 H171        1.4131  -16.6584  -41.0283 H         1 UNK         0.0600 
    172 H172        2.0258  -18.2769  -40.7086 H         1 UNK         0.0600 
    173 H173        2.2877  -17.5279  -42.2799 H         1 UNK         0.0600 
    174 H174        1.4378  -19.9194  -42.4140 H         1 UNK         0.3000 
    175 H175        0.3939  -22.2289  -43.0849 H         1 UNK         0.0600 
    176 H176       -0.9196  -21.5646  -45.7697 H         1 UNK         0.0600 
    177 H177       -0.2465  -23.1404  -45.3512 H         1 UNK         0.0600 
    178 H178       -1.6330  -22.5109  -44.4718 H         1 UNK         0.0600 
    179 H179        1.5776  -20.3857  -45.0800 H         1 UNK         0.3000 
    180 H180        4.7485  -21.8131  -44.5823 H         1 UNK         0.0600 
    181 H181        3.2530  -22.0466  -47.2452 H         1 UNK         0.0600 
    182 H182        4.0154  -23.3837  -46.3938 H         1 UNK         0.0600 
    183 H183        5.0025  -22.0765  -47.0207 H         1 UNK         0.0600 
    184 H184        3.8985  -19.8196  -46.4332 H         1 UNK         0.3000 
    185 H185        3.1779  -17.2778  -44.8319 H         1 UNK         0.0600 
    186 H186        4.8151  -16.8830  -43.0239 H         1 UNK         0.0600 
    187 H187        6.1509  -17.2750  -44.1023 H         1 UNK         0.0600 
    188 H188        5.1737  -15.8351  -44.3846 H         1 UNK         0.0600 
    189 H189        5.3294  -18.2143  -46.6407 H         1 UNK         0.3000 
    190 H190        1.0192  -22.2430  -48.6388 H         1 UNK         0.3000 
    191 H191       -1.5839  -22.9282  -47.6982 H         1 UNK         0.0600 
    192 H192       -1.0001  -25.1906  -48.6127 H         1 UNK         0.0600 
    193 H193        0.3161  -24.5186  -47.6637 H         1 UNK         0.0600 
    194 H194        0.4003  -24.5046  -49.4259 H         1 UNK         0.0600 
    195 H195       -0.4113  -21.9743  -50.8482 H         1 UNK         0.3000 
    196 H196       -2.8238  -22.6950  -52.3195 H         1 UNK         0.0600 
    197 H197       -0.3759  -21.0363  -53.1217 H         1 UNK         0.0600 
    198 H198       -0.5608  -22.7716  -53.3802 H         1 UNK         0.0600 
    199 H199       -1.6155  -21.6402  -54.2116 H         1 UNK         0.0600 
    200 H200       -2.2599  -20.2703  -50.0842 H         1 UNK         0.3000 
    201 H201       -4.2164  -18.4011  -51.3747 H         1 UNK         0.0600 
    202 H202       -2.1459  -17.7785  -49.1974 H         1 UNK         0.0600 
    203 H203       -3.2655  -16.6461  -49.9384 H         1 UNK         0.0600 
    204 H204       -1.9640  -17.3369  -50.8882 H         1 UNK         0.0600 
    205 H205       -3.1835  -20.1073  -48.4190 H         1 UNK         0.3000 
    206 H206       -5.2013  -19.1250  -46.7163 H         1 UNK         0.0600 
    207 H207       -2.9458  -19.9353  -46.0123 H         1 UNK         0.0600 
    208 H208       -4.2096  -20.7688  -45.1305 H         1 UNK         0.0600 
    209 H209       -3.3877  -21.5819  -46.4569 H         1 UNK         0.0600 
    210 H210       -5.7572  -21.3361  -49.1801 H         1 UNK         0.3000 
    211 H211       -7.4092  -22.7065  -49.7326 H         1 UNK         0.0600 
    212 H212       -9.5264  -22.8220  -48.6141 H         1 UNK         0.0600 
    213 H213       -8.9913  -21.1513  -48.5556 H         1 UNK         0.0600 
    214 H214       -8.8760  -22.1724  -47.1209 H         1 UNK         0.0600 
    215 H215       -5.0128  -23.4461  -48.0380 H         1 UNK         0.3000 
    216 H216       -5.7981  -25.9596  -46.7350 H         1 UNK         0.0600 
    217 H217       -3.0445  -24.7217  -47.2488 H         1 UNK         0.0600 
    218 H218       -3.3632  -26.1492  -46.2752 H         1 UNK         0.0600 
    219 H219       -3.9770  -24.5842  -45.7621 H         1 UNK         0.0600 
    220 H220       -3.8480  -24.9265  -49.5716 H         1 UNK         0.3000 
    221 H221       -4.2266  -27.6046  -50.8614 H         1 UNK         0.0600 
    222 H222       -1.8464  -26.8844  -50.5462 H         1 UNK         0.0600 
    223 H223       -2.1700  -25.4062  -51.4505 H         1 UNK         0.0600 
    224 H224       -2.2864  -26.9693  -52.2452 H         1 UNK         0.0600 
    225 H225       -4.5953  -24.0477  -51.2067 H         1 UNK         0.3000 
    226 H226       -6.8162  -24.2512  -52.9670 H         1 UNK         0.0600 
    227 H227       -4.2034  -23.1247  -54.1684 H         1 UNK         0.0600 
    228 H228       -4.9722  -24.6212  -54.6847 H         1 UNK         0.0600 
    229 H229       -5.7843  -23.0927  -54.9345 H         1 UNK         0.0600 
    230 H230       -7.3702  -21.8751  -53.6591 H         1 UNK         0.3000 
    231 H231       -6.4456  -19.8936  -51.6094 H         1 UNK         0.0600 
    232 H232       -9.2356  -20.1794  -52.8418 H         1 UNK         0.0600 
    233 H233       -8.7288  -18.9508  -51.6863 H         1 UNK         0.0600 
    234 H234       -8.7968  -20.6339  -51.1947 H         1 UNK         0.0600 
    235 H235       -5.8366  -20.6992  -54.6258 H         1 UNK         0.3000 
    236 H236       -6.6521  -18.6143  -56.3261 H         1 UNK         0.0600 
    237 H237       -5.8677  -20.8248  -57.1249 H         1 UNK         0.0600 
    238 H238       -4.8891  -19.5542  -57.8408 H         1 UNK         0.0600 
    239 H239       -4.2456  -20.5059  -56.5079 H         1 UNK         0.0600 
    240 H240       -3.8292  -18.8189  -54.1757 H         1 UNK         0.3000 
    241 H241       -2.6720  -16.3161  -55.2249 H         1 UNK         0.0600 
    242 H242       -5.0869  -15.3267  -52.2338 H         1 UNK         0.3800 
    243 H243       -5.3521  -16.7284  -53.2374 H         1 UNK         0.3800 
    244 H244       -1.6964  -18.1406  -52.9872 H         1 UNK         0.0800 
    245 H245       -0.8643  -16.7198  -53.5511 H         1 UNK         0.0800 
    246 H246        0.5609  -16.5708  -55.6772 H         1 UNK         0.0800 
    247 H247        1.2983  -18.0199  -56.3142 H         1 UNK         0.0800 
@<TRIPOS>BOND
     1    1    2 1    
     2    1  127 1    
     3    1  128 1    
     4    1  129 1    
     5    2    3 2    
     6    2    4 am   BACKBONE|DICT|INTERRES
     7    4    5 1    
     8    4  130 1    
     9    5    6 1    
    10    5   65 1    
    11    5  131 1    
    12    6    7 1    
    13    6  132 1    
    14    6  133 1    
    15    7    8 1    
    16    8    9 1    
    17    8  134 1    
    18    8  135 1    
    19    9   10 ar   
    20    9   14 ar   
    21   10   11 ar   
    22   10  136 1    
    23   11   12 ar   
    24   11  126 1    
    25   12   13 ar   
    26   12  137 1    
    27   13   14 ar   
    28   13   15 1    
    29   14  138 1    
    30   15   16 1    
    31   15  139 1    
    32   15  140 1    
    33   16   17 1    
    34   17   18 1    
    35   17  141 1    
    36   17  142 1    
    37   18   19 1    
    38   18   67 1    
    39   18  143 1    
    40   19   20 am   BACKBONE|DICT|INTERRES
    41   19  144 1    
    42   20   21 2    
    43   20   22 1    
    44   22   23 1    
    45   22   24 1    
    46   22  145 1    
    47   23  146 1    
    48   23  147 1    
    49   23  148 1    
    50   24   25 am   BACKBONE|DICT|INTERRES
    51   24  149 1    
    52   25   26 2    
    53   25   27 1    
    54   27   28 1    
    55   27   29 1    
    56   27  150 1    
    57   28  151 1    
    58   28  152 1    
    59   28  153 1    
    60   29   30 am   BACKBONE|DICT|INTERRES
    61   29  154 1    
    62   30   31 2    
    63   30   32 1    
    64   32   33 1    
    65   32   34 1    
    66   32  155 1    
    67   33  156 1    
    68   33  157 1    
    69   33  158 1    
    70   34   35 am   BACKBONE|DICT|INTERRES
    71   34  159 1    
    72   35   36 2    
    73   35   37 1    
    74   37   38 1    
    75   37   39 1    
    76   37  160 1    
    77   38  161 1    
    78   38  162 1    
    79   38  163 1    
    80   39   40 am   BACKBONE|DICT|INTERRES
    81   39  164 1    
    82   40   41 2    
    83   40   42 1    
    84   42   43 1    
    85   42   44 1    
    86   42  165 1    
    87   43  166 1    
    88   43  167 1    
    89   43  168 1    
    90   44   45 am   BACKBONE|DICT|INTERRES
    91   44  169 1    
    92   45   46 2    
    93   45   47 1    
    94   47   48 1    
    95   47   49 1    
    96   47  170 1    
    97   48  171 1    
    98   48  172 1    
    99   48  173 1    
   100   49   50 am   BACKBONE|DICT|INTERRES
   101   49  174 1    
   102   50   51 2    
   103   50   52 1    
   104   52   53 1    
   105   52   54 1    
   106   52  175 1    
   107   53  176 1    
   108   53  177 1    
   109   53  178 1    
   110   54   55 am   BACKBONE|DICT|INTERRES
   111   54  179 1    
   112   55   56 2    
   113   55   57 1    
   114   57   58 1    
   115   57   59 1    
   116   57  180 1    
   117   58  181 1    
   118   58  182 1    
   119   58  183 1    
   120   59   60 am   BACKBONE|DICT|INTERRES
   121   59  184 1    
   122   60   61 2    
   123   60   62 1    
   124   62   63 1    
   125   62   64 1    
   126   62  185 1    
   127   63  186 1    
   128   63  187 1    
   129   63  188 1    
   130   64   65 am   BACKBONE|DICT|INTERRES
   131   64  189 1    
   132   65   66 2    
   133   67   68 2    
   134   67   69 am   BACKBONE|DICT|INTERRES
   135   69   70 1    
   136   69  190 1    
   137   70   71 1    
   138   70   72 1    
   139   70  191 1    
   140   71  192 1    
   141   71  193 1    
   142   71  194 1    
   143   72   73 2    
   144   72   74 am   BACKBONE|DICT|INTERRES
   145   74   75 1    
   146   74  195 1    
   147   75   76 1    
   148   75   77 1    
   149   75  196 1    
   150   76  197 1    
   151   76  198 1    
   152   76  199 1    
   153   77   78 2    
   154   77   79 am   BACKBONE|DICT|INTERRES
   155   79   80 1    
   156   79  200 1    
   157   80   81 1    
   158   80   82 1    
   159   80  201 1    
   160   81  202 1    
   161   81  203 1    
   162   81  204 1    
   163   82   83 2    
   164   82   84 am   BACKBONE|DICT|INTERRES
   165   84   85 1    
   166   84  205 1    
   167   85   86 1    
   168   85   87 1    
   169   85  206 1    
   170   86  207 1    
   171   86  208 1    
   172   86  209 1    
   173   87   88 2    
   174   87   89 am   BACKBONE|DICT|INTERRES
   175   89   90 1    
   176   89  210 1    
   177   90   91 1    
   178   90   92 1    
   179   90  211 1    
   180   91  212 1    
   181   91  213 1    
   182   91  214 1    
   183   92   93 2    
   184   92   94 am   BACKBONE|DICT|INTERRES
   185   94   95 1    
   186   94  215 1    
   187   95   96 1    
   188   95   97 1    
   189   95  216 1    
   190   96  217 1    
   191   96  218 1    
   192   96  219 1    
   193   97   98 2    
   194   97   99 am   BACKBONE|DICT|INTERRES
   195   99  100 1    
   196   99  220 1    
   197  100  101 1    
   198  100  102 1    
   199  100  221 1    
   200  101  222 1    
   201  101  223 1    
   202  101  224 1    
   203  102  103 2    
   204  102  104 am   BACKBONE|DICT|INTERRES
   205  104  105 1    
   206  104  225 1    
   207  105  106 1    
   208  105  107 1    
   209  105  226 1    
   210  106  227 1    
   211  106  228 1    
   212  106  229 1    
   213  107  108 2    
   214  107  109 am   BACKBONE|DICT|INTERRES
   215  109  110 1    
   216  109  230 1    
   217  110  111 1    
   218  110  112 1    
   219  110  231 1    
   220  111  232 1    
   221  111  233 1    
   222  111  234 1    
   223  112  113 2    
   224  112  114 am   BACKBONE|DICT|INTERRES
   225  114  115 1    
   226  114  235 1    
   227  115  116 1    
   228  115  117 1    
   229  115  236 1    
   230  116  237 1    
   231  116  238 1    
   232  116  239 1    
   233  117  118 2    
   234  117  119 am   BACKBONE|DICT|INTERRES
   235  119  120 1    
   236  119  240 1    
   237  120  121 1    
   238  120  124 1    
   239  120  241 1    
   240  121  122 am   BACKBONE|DICT|INTERRES
   241  121  123 2    
   242  122  242 1    
   243  122  243 1    
   244  124  125 1    
   245  124  244 1    
   246  124  245 1    
   247  125  126 1    
   248  126  246 1    
   249  126  247 1    
@<TRIPOS>SUBSTRUCTURE
     1 UNK         1 GROUP             0       ****    0 ROOT    
