@<TRIPOS>MOLECULE
3R540
247   249    1
SMALL
USER_CHARGES


@<TRIPOS>ATOM
      1 CA         -3.7073  -19.1595  -49.0671 C.3       0 UNK        -0.1800 
      2 C          -4.1218  -17.7384  -48.7286 C.2       0 UNK         0.5000 
      3 O          -5.1936  -17.5340  -48.1596 O.2       0 UNK        -0.5000 
      4 N          -3.2769  -16.7601  -49.0789 N.am      1 UNK        -0.5000 
      5 CA         -3.5115  -15.3287  -48.8623 C.3       1 UNK         0.1400 
      6 C6         -2.5101  -14.4413  -49.6467 C.3       23 UNK        -0.0398 
      7 S7         -0.7456  -14.8061  -49.3113 S.3       23 UNK        -0.2404 
      8 C8         -0.1330  -15.3090  -50.9524 C.3       23 UNK        -0.0205 
      9 C9         -0.5521  -16.7268  -51.3118 C.ar      23 UNK        -0.0193 
     10 C10        -1.7295  -16.9603  -52.0249 C.ar      23 UNK        -0.1150 
     11 C11        -2.1322  -18.2623  -52.3388 C.ar      23 UNK        -0.0193 
     12 C12        -1.3164  -19.3362  -51.9683 C.ar      23 UNK        -0.1150 
     13 C13        -0.1197  -19.1166  -51.2780 C.ar      23 UNK        -0.0193 
     14 C14         0.2511  -17.8092  -50.9471 C.ar      23 UNK        -0.1150 
     15 C15         0.7860  -20.2898  -50.9215 C.3       23 UNK        -0.0205 
     16 S16         1.2484  -20.3242  -49.1581 S.3       23 UNK        -0.2404 
     17 C17        -0.3607  -20.6512  -48.3654 C.3       23 UNK        -0.0398 
     18 CA         -0.3329  -21.9002  -47.4515 C.3       11 UNK         0.1400 
     19 N           0.6521  -21.7984  -46.3760 N.am      11 UNK        -0.5000 
     20 C           1.6153  -22.7044  -46.1632 C.2       10 UNK         0.5000 
     21 O           1.6862  -23.7870  -46.7450 O.2       10 UNK        -0.5000 
     22 CA          2.7213  -22.3299  -45.1650 C.3       10 UNK         0.1400 
     23 CB          3.7637  -21.4305  -45.8472 C.3       10 UNK        -0.1800 
     24 N           2.2208  -21.6786  -43.9562 N.am      10 UNK        -0.5000 
     25 C           1.5764  -22.3212  -42.9732 C.2       9 UNK         0.5000 
     26 O           1.3046  -23.5216  -43.0059 O.2       9 UNK        -0.5000 
     27 CA          1.1832  -21.4913  -41.7367 C.3       9 UNK         0.1400 
     28 CB          2.3869  -21.3128  -40.7989 C.3       9 UNK        -0.1800 
     29 N           0.6350  -20.1794  -42.0765 N.am      9 UNK        -0.5000 
     30 C          -0.5380  -19.9913  -42.6949 C.2       8 UNK         0.5000 
     31 O          -1.2900  -20.9066  -43.0267 O.2       8 UNK        -0.5000 
     32 CA         -0.9095  -18.5395  -43.0501 C.3       8 UNK         0.1400 
     33 CB         -1.4126  -17.7733  -41.8185 C.3       8 UNK        -0.1800 
     34 N           0.2059  -17.8202  -43.6607 N.am      8 UNK        -0.5000 
     35 C           0.7715  -18.1620  -44.8262 C.2       7 UNK         0.5000 
     36 O           0.3623  -19.0796  -45.5366 O.2       7 UNK        -0.5000 
     37 CA          2.0211  -17.3712  -45.2462 C.3       7 UNK         0.1400 
     38 CB          1.6238  -16.0812  -45.9815 C.3       7 UNK        -0.1800 
     39 N           2.8817  -17.0515  -44.1037 N.am      7 UNK        -0.5000 
     40 C           3.5771  -17.9620  -43.4055 C.2       6 UNK         0.5000 
     41 O           3.5791  -19.1633  -43.6642 O.2       6 UNK        -0.5000 
     42 CA          4.3644  -17.4553  -42.1842 C.3       6 UNK         0.1400 
     43 CB          5.6726  -16.7786  -42.6202 C.3       6 UNK        -0.1800 
     44 N           3.5858  -16.5288  -41.3645 N.am      6 UNK        -0.5000 
     45 C           2.4697  -16.8544  -40.6964 C.2       5 UNK         0.5000 
     46 O           2.0053  -17.9932  -40.6512 O.2       5 UNK        -0.5000 
     47 CA          1.7150  -15.6961  -40.0147 C.3       5 UNK         0.1400 
     48 CB          2.2353  -15.4792  -38.5862 C.3       5 UNK        -0.1800 
     49 N           1.7955  -14.4345  -40.7602 N.am      5 UNK        -0.5000 
     50 C           1.3520  -14.2678  -42.0125 C.2       4 UNK         0.5000 
     51 O           0.8170  -15.1652  -42.6731 O.2       4 UNK        -0.5000 
     52 CA          1.5916  -12.8941  -42.6530 C.3       4 UNK         0.1400 
     53 CB          3.0731  -12.7020  -43.0209 C.3       4 UNK        -0.1800 
     54 N           0.7813  -12.8377  -43.8583 N.am      4 UNK        -0.5000 
     55 C           0.2280  -11.7564  -44.4102 C.2       3 UNK         0.5000 
     56 O           0.4313  -10.6059  -44.0203 O.2       3 UNK        -0.5000 
     57 CA         -0.7268  -12.0080  -45.5958 C.3       3 UNK         0.1400 
     58 CB         -0.0322  -11.6790  -46.9264 C.3       3 UNK        -0.1800 
     59 N          -1.2409  -13.3806  -45.6676 N.am      3 UNK        -0.5000 
     60 C          -2.0821  -13.9468  -44.7880 C.2       2 UNK         0.5000 
     61 O          -2.4976  -13.3758  -43.7787 O.2       2 UNK        -0.5000 
     62 CA         -2.5302  -15.3902  -45.1123 C.3       2 UNK         0.1400 
     63 CB         -3.7753  -15.8324  -44.3168 C.3       2 UNK        -0.1800 
     64 N          -2.7285  -15.6177  -46.5497 N.am      2 UNK        -0.5000 
     65 C          -3.5492  -14.9385  -47.3697 C.2       1 UNK         0.5000 
     66 O          -4.3011  -14.0333  -47.0055 O.2       1 UNK        -0.5000 
     67 C          -1.7252  -22.1996  -46.8827 C.2       11 UNK         0.5000 
     68 O          -2.2782  -23.2546  -47.1873 O.2       11 UNK        -0.5000 
     69 N          -2.2865  -21.2792  -46.0829 N.am      12 UNK        -0.5000 
     70 CA         -3.6852  -21.3353  -45.6343 C.3       12 UNK         0.1400 
     71 CB         -4.0642  -20.0458  -44.8916 C.3       12 UNK        -0.1800 
     72 C          -4.0131  -22.5878  -44.8027 C.2       12 UNK         0.5000 
     73 O          -4.9929  -23.2750  -45.0962 O.2       12 UNK        -0.5000 
     74 N          -3.1407  -22.9019  -43.8378 N.am      13 UNK        -0.5000 
     75 CA         -3.2083  -24.0978  -42.9954 C.3       13 UNK         0.1400 
     76 CB         -2.2491  -23.9205  -41.8089 C.3       13 UNK        -0.1800 
     77 C          -2.9076  -25.4134  -43.7461 C.2       13 UNK         0.5000 
     78 O          -3.2085  -26.4847  -43.2192 O.2       13 UNK        -0.5000 
     79 N          -2.3464  -25.3212  -44.9590 N.am      14 UNK        -0.5000 
     80 CA         -2.0355  -26.4409  -45.8484 C.3       14 UNK         0.1400 
     81 CB         -0.6278  -26.2309  -46.4327 C.3       14 UNK        -0.1800 
     82 C          -3.1062  -26.6019  -46.9488 C.2       14 UNK         0.5000 
     83 O          -2.7885  -27.0643  -48.0458 O.2       14 UNK        -0.5000 
     84 N          -4.3554  -26.2223  -46.6340 N.am      15 UNK        -0.5000 
     85 CA         -5.5413  -26.2515  -47.4970 C.3       15 UNK         0.1400 
     86 CB         -5.9247  -27.6995  -47.8688 C.3       15 UNK        -0.1800 
     87 C          -5.3841  -25.3266  -48.7196 C.2       15 UNK         0.5000 
     88 O          -5.5277  -25.7628  -49.8631 O.2       15 UNK        -0.5000 
     89 N          -5.0484  -24.0617  -48.4372 N.am      16 UNK        -0.5000 
     90 CA         -4.8146  -22.9371  -49.3531 C.3       16 UNK         0.1400 
     91 CB         -6.0441  -22.6513  -50.2362 C.3       16 UNK        -0.1800 
     92 C          -3.5325  -23.0314  -50.2024 C.2       16 UNK         0.5000 
     93 O          -2.9578  -21.9857  -50.4994 O.2       16 UNK        -0.5000 
     94 N          -3.1014  -24.2494  -50.5661 N.am      17 UNK        -0.5000 
     95 CA         -1.9018  -24.5700  -51.3510 C.3       17 UNK         0.1400 
     96 CB         -0.6362  -24.3433  -50.5017 C.3       17 UNK        -0.1800 
     97 C          -1.8700  -23.8048  -52.6914 C.2       17 UNK         0.5000 
     98 O          -0.9332  -23.0499  -52.9612 O.2       17 UNK        -0.5000 
     99 N          -2.9529  -23.9681  -53.4642 N.am      18 UNK        -0.5000 
    100 CA        -3.2670  -23.2102  -54.6743 C.3       18 UNK         0.1400 
    101 CB        -4.5867  -23.7384  -55.2596 C.3       18 UNK        -0.1800 
    102 C         -2.1442  -23.2518  -55.7418 C.2       18 UNK         0.5000 
    103 O         -1.7547  -24.3501  -56.1409 O.2       18 UNK        -0.5000 
    104 N         -1.6307  -22.1135  -56.2291 N.am      19 UNK        -0.5000 
    105 CA        -1.9188  -20.7429  -55.8161 C.3       19 UNK         0.1400 
    106 CB        -3.2552  -20.2709  -56.4237 C.3       19 UNK        -0.1800 
    107 C         -0.7707  -19.8349  -56.2749 C.2       19 UNK         0.5000 
    108 O         -0.4244  -19.8562  -57.4578 O.2       19 UNK        -0.5000 
    109 N         -0.2195  -19.0416  -55.3468 N.am      20 UNK        -0.5000 
    110 CA         0.7663  -17.9963  -55.6432 C.3       20 UNK         0.1400 
    111 CB         1.6856  -17.8140  -54.4266 C.3       20 UNK        -0.1800 
    112 C          0.0946  -16.6575  -56.0111 C.2       20 UNK         0.5000 
    113 O          0.7020  -15.8430  -56.7068 O.2       20 UNK        -0.5000 
    114 N         -1.1433  -16.4613  -55.5430 N.am      21 UNK        -0.5000 
    115 CA        -1.9964  -15.3081  -55.8027 C.3       21 UNK         0.1400 
    116 CB        -1.6341  -14.1466  -54.8524 C.3       21 UNK        -0.1800 
    117 C         -3.4525  -15.7934  -55.7076 C.2       21 UNK         0.5000 
    118 O         -3.8452  -16.6363  -56.5139 O.2       21 UNK        -0.5000 
    119 N         -4.2132  -15.2993  -54.7208 N.am      22 UNK        -0.5000 
    120 CA        -5.6111  -15.6795  -54.4228 C.3       22 UNK         0.1400 
    121 C         -6.6490  -15.2702  -55.5158 C.2       22 UNK         0.5000 
    122 N         -6.3316  -14.3483  -56.4167 N.am      22 UNK        -0.7600 
    123 O         -7.7729  -15.7655  -55.5328 O.2       22 UNK        -0.5000 
    124 C124       -5.7673  -17.1651  -53.9754 C.3       23 UNK        -0.0398 
    125 S125       -4.8310  -17.5470  -52.4540 S.3       23 UNK        -0.2404 
    126 C126       -3.4257  -18.5079  -53.1068 C.3       23 UNK        -0.0205 
    127 H127       -2.7456  -19.1828  -49.5753 H         1 UNK         0.0600 
    128 H128       -4.4455  -19.6204  -49.7234 H         1 UNK         0.0600 
    129 H129       -3.6278  -19.7565  -48.1613 H         1 UNK         0.0600 
    130 H130       -2.4207  -16.9902  -49.5652 H         1 UNK         0.3000 
    131 H131       -4.5061  -15.1126  -49.2588 H         1 UNK         0.0600 
    132 H132       -2.7060  -14.5391  -50.7136 H         1 UNK         0.0800 
    133 H133       -2.6849  -13.3861  -49.4285 H         1 UNK         0.0800 
    134 H134       -0.4734  -14.6015  -51.7093 H         1 UNK         0.0800 
    135 H135        0.9559  -15.2421  -50.9509 H         1 UNK         0.0800 
    136 H136       -2.3474  -16.1277  -52.3246 H         1 UNK         0.1150 
    137 H137       -1.6123  -20.3475  -52.2129 H         1 UNK         0.1150 
    138 H138        1.1732  -17.6339  -50.4107 H         1 UNK         0.1150 
    139 H139        1.6947  -20.2197  -51.5203 H         1 UNK         0.0800 
    140 H140        0.3168  -21.2381  -51.1867 H         1 UNK         0.0800 
    141 H141       -1.1097  -20.7870  -49.1447 H         1 UNK         0.0800 
    142 H142       -0.6552  -19.7561  -47.8173 H         1 UNK         0.0800 
    143 H143       -0.0832  -22.7452  -48.0941 H         1 UNK         0.0600 
    144 H144        0.6712  -20.9162  -45.8720 H         1 UNK         0.3000 
    145 H145        3.2247  -23.2528  -44.8687 H         1 UNK         0.0600 
    146 H146        4.6076  -21.2327  -45.1862 H         1 UNK         0.0600 
    147 H147        4.1599  -21.9031  -46.7469 H         1 UNK         0.0600 
    148 H148        3.3352  -20.4720  -46.1429 H         1 UNK         0.0600 
    149 H149        2.4695  -20.7009  -43.8318 H         1 UNK         0.3000 
    150 H150        0.4139  -22.0463  -41.1957 H         1 UNK         0.0600 
    151 H151        2.8119  -22.2774  -40.5187 H         1 UNK         0.0600 
    152 H152        2.0966  -20.8050  -39.8790 H         1 UNK         0.0600 
    153 H153        3.1784  -20.7266  -41.2674 H         1 UNK         0.0600 
    154 H154        1.1836  -19.3705  -41.8003 H         1 UNK         0.3000 
    155 H155       -1.7167  -18.5651  -43.7831 H         1 UNK         0.0600 
    156 H156       -2.3163  -18.2344  -41.4183 H         1 UNK         0.0600 
    157 H157       -1.6539  -16.7395  -42.0654 H         1 UNK         0.0600 
    158 H158       -0.6717  -17.7596  -41.0199 H         1 UNK         0.0600 
    159 H159        0.5725  -17.0183  -43.1561 H         1 UNK         0.3000 
    160 H160        2.5910  -17.9947  -45.9384 H         1 UNK         0.0600 
    161 H161        1.0368  -15.4173  -45.3484 H         1 UNK         0.0600 
    162 H162        1.0238  -16.3064  -46.8645 H         1 UNK         0.0600 
    163 H163        2.5028  -15.5323  -46.3193 H         1 UNK         0.0600 
    164 H164        2.8851  -16.0929  -43.7906 H         1 UNK         0.3000 
    165 H165        4.6164  -18.3212  -41.5680 H         1 UNK         0.0600 
    166 H166        6.2740  -16.4918  -41.7574 H         1 UNK         0.0600 
    167 H167        6.2775  -17.4544  -43.2263 H         1 UNK         0.0600 
    168 H168        5.4874  -15.8821  -43.2132 H         1 UNK         0.0600 
    169 H169        3.8941  -15.5685  -41.3421 H         1 UNK         0.3000 
    170 H170        0.6624  -15.9791  -39.9549 H         1 UNK         0.0600 
    171 H171        2.1680  -16.3986  -38.0029 H         1 UNK         0.0600 
    172 H172        3.2789  -15.1623  -38.5805 H         1 UNK         0.0600 
    173 H173        1.6507  -14.7216  -38.0640 H         1 UNK         0.0600 
    174 H174        2.2269  -13.6560  -40.2829 H         1 UNK         0.3000 
    175 H175        1.2716  -12.1206  -41.9519 H         1 UNK         0.0600 
    176 H176        3.4216  -13.4763  -43.7057 H         1 UNK         0.0600 
    177 H177        3.2366  -11.7366  -43.5002 H         1 UNK         0.0600 
    178 H178        3.7083  -12.7333  -42.1351 H         1 UNK         0.0600 
    179 H179        0.4959  -13.7485  -44.1923 H         1 UNK         0.3000 
    180 H180       -1.5786  -11.3355  -45.4766 H         1 UNK         0.0600 
    181 H181        0.8154  -12.3404  -47.1113 H         1 UNK         0.0600 
    182 H182        0.3428  -10.6547  -46.9303 H         1 UNK         0.0600 
    183 H183       -0.7212  -11.7747  -47.7659 H         1 UNK         0.0600 
    184 H184       -0.9707  -13.9148  -46.4808 H         1 UNK         0.3000 
    185 H185       -1.7033  -16.0333  -44.8106 H         1 UNK         0.0600 
    186 H186       -3.5992  -15.7700  -43.2426 H         1 UNK         0.0600 
    187 H187       -4.6411  -15.2091  -44.5419 H         1 UNK         0.0600 
    188 H188       -4.0398  -16.8652  -44.5411 H         1 UNK         0.0600 
    189 H189       -2.1578  -16.3387  -46.9672 H         1 UNK         0.3000 
    190 H190       -1.7455  -20.4716  -45.8065 H         1 UNK         0.3000 
    191 H191       -4.3052  -21.3804  -46.5300 H         1 UNK         0.0600 
    192 H192       -3.5716  -19.9710  -43.9235 H         1 UNK         0.0600 
    193 H193       -3.8089  -19.1613  -45.4755 H         1 UNK         0.0600 
    194 H194       -5.1384  -20.0117  -44.7064 H         1 UNK         0.0600 
    195 H195       -2.3741  -22.2572  -43.6507 H         1 UNK         0.3000 
    196 H196       -4.2239  -24.1750  -42.6023 H         1 UNK         0.0600 
    197 H197       -2.3100  -24.7667  -41.1235 H         1 UNK         0.0600 
    198 H198       -2.4860  -23.0217  -41.2393 H         1 UNK         0.0600 
    199 H199       -1.2150  -23.8416  -42.1430 H         1 UNK         0.0600 
    200 H200       -2.1980  -24.4013  -45.3559 H         1 UNK         0.3000 
    201 H201       -2.0216  -27.3742  -45.2826 H         1 UNK         0.0600 
    202 H202       -0.3125  -27.0922  -47.0224 H         1 UNK         0.0600 
    203 H203        0.1113  -26.0909  -45.6437 H         1 UNK         0.0600 
    204 H204       -0.5897  -25.3570  -47.0832 H         1 UNK         0.0600 
    205 H205       -4.4964  -25.8208  -45.7175 H         1 UNK         0.3000 
    206 H206       -6.3608  -25.8400  -46.9058 H         1 UNK         0.0600 
    207 H207       -6.0519  -28.3143  -46.9778 H         1 UNK         0.0600 
    208 H208       -6.8677  -27.7224  -48.4161 H         1 UNK         0.0600 
    209 H209       -5.1724  -28.1743  -48.4991 H         1 UNK         0.0600 
    210 H210       -4.8703  -23.8506  -47.4636 H         1 UNK         0.3000 
    211 H211       -4.6796  -22.0696  -48.7081 H         1 UNK         0.0600 
    212 H212       -6.9418  -22.5180  -49.6326 H         1 UNK         0.0600 
    213 H213       -5.9011  -21.7360  -50.8122 H         1 UNK         0.0600 
    214 H214       -6.2323  -23.4543  -50.9491 H         1 UNK         0.0600 
    215 H215       -3.6830  -25.0358  -50.2979 H         1 UNK         0.3000 
    216 H216       -1.9562  -25.6327  -51.5909 H         1 UNK         0.0600 
    217 H217        0.2550  -24.6861  -51.0281 H         1 UNK         0.0600 
    218 H218       -0.4951  -23.2879  -50.2733 H         1 UNK         0.0600 
    219 H219       -0.6907  -24.8876  -49.5587 H         1 UNK         0.0600 
    220 H220       -3.6638  -24.6117  -53.1495 H         1 UNK         0.3000 
    221 H221       -3.4539  -22.1953  -54.3326 H         1 UNK         0.0600 
    222 H222       -4.5117  -24.7913  -55.5346 H         1 UNK         0.0600 
    223 H223       -5.4057  -23.6348  -54.5474 H         1 UNK         0.0600 
    224 H224       -4.8663  -23.1854  -56.1571 H         1 UNK         0.0600 
    225 H225       -0.9074  -22.1748  -56.9331 H         1 UNK         0.3000 
    226 H226       -1.9621  -20.6888  -54.7276 H         1 UNK         0.0600 
    227 H227       -4.1137  -20.7876  -55.9987 H         1 UNK         0.0600 
    228 H228       -3.4113  -19.2071  -56.2541 H         1 UNK         0.0600 
    229 H229       -3.2771  -20.4267  -57.5030 H         1 UNK         0.0600 
    230 H230       -0.5064  -19.1228  -54.3818 H         1 UNK         0.3000 
    231 H231        1.3851  -18.3053  -56.4885 H         1 UNK         0.0600 
    232 H232        2.4876  -17.1088  -54.6479 H         1 UNK         0.0600 
    233 H233        2.1508  -18.7554  -54.1339 H         1 UNK         0.0600 
    234 H234        1.1405  -17.4257  -53.5676 H         1 UNK         0.0600 
    235 H235       -1.5757  -17.2056  -55.0191 H         1 UNK         0.3000 
    236 H236       -1.8443  -14.9750  -56.8314 H         1 UNK         0.0600 
    237 H237       -0.6041  -13.8246  -55.0070 H         1 UNK         0.0600 
    238 H238       -2.2679  -13.2774  -55.0323 H         1 UNK         0.0600 
    239 H239       -1.7334  -14.4255  -53.8044 H         1 UNK         0.0600 
    240 H240       -3.8148  -14.6007  -54.1109 H         1 UNK         0.3000 
    241 H241       -5.8902  -15.0671  -53.5647 H         1 UNK         0.0600 
    242 H242       -7.0101  -14.0806  -57.1126 H         1 UNK         0.3800 
    243 H243       -5.4210  -13.9179  -56.4131 H         1 UNK         0.3800 
    244 H244       -6.8121  -17.3854  -53.7514 H         1 UNK         0.0800 
    245 H245       -5.4895  -17.8490  -54.7781 H         1 UNK         0.0800 
    246 H246       -3.2526  -18.2471  -54.1478 H         1 UNK         0.0800 
    247 H247       -3.6948  -19.5653  -53.0872 H         1 UNK         0.0800 
@<TRIPOS>BOND
     1    1    2 1    
     2    1  127 1    
     3    1  128 1    
     4    1  129 1    
     5    2    3 2    
     6    2    4 am   BACKBONE|DICT|INTERRES
     7    4    5 1    
     8    4  130 1    
     9    5    6 1    
    10    5   65 1    
    11    5  131 1    
    12    6    7 1    
    13    6  132 1    
    14    6  133 1    
    15    7    8 1    
    16    8    9 1    
    17    8  134 1    
    18    8  135 1    
    19    9   10 ar   
    20    9   14 ar   
    21   10   11 ar   
    22   10  136 1    
    23   11   12 ar   
    24   11  126 1    
    25   12   13 ar   
    26   12  137 1    
    27   13   14 ar   
    28   13   15 1    
    29   14  138 1    
    30   15   16 1    
    31   15  139 1    
    32   15  140 1    
    33   16   17 1    
    34   17   18 1    
    35   17  141 1    
    36   17  142 1    
    37   18   19 1    
    38   18   67 1    
    39   18  143 1    
    40   19   20 am   BACKBONE|DICT|INTERRES
    41   19  144 1    
    42   20   21 2    
    43   20   22 1    
    44   22   23 1    
    45   22   24 1    
    46   22  145 1    
    47   23  146 1    
    48   23  147 1    
    49   23  148 1    
    50   24   25 am   BACKBONE|DICT|INTERRES
    51   24  149 1    
    52   25   26 2    
    53   25   27 1    
    54   27   28 1    
    55   27   29 1    
    56   27  150 1    
    57   28  151 1    
    58   28  152 1    
    59   28  153 1    
    60   29   30 am   BACKBONE|DICT|INTERRES
    61   29  154 1    
    62   30   31 2    
    63   30   32 1    
    64   32   33 1    
    65   32   34 1    
    66   32  155 1    
    67   33  156 1    
    68   33  157 1    
    69   33  158 1    
    70   34   35 am   BACKBONE|DICT|INTERRES
    71   34  159 1    
    72   35   36 2    
    73   35   37 1    
    74   37   38 1    
    75   37   39 1    
    76   37  160 1    
    77   38  161 1    
    78   38  162 1    
    79   38  163 1    
    80   39   40 am   BACKBONE|DICT|INTERRES
    81   39  164 1    
    82   40   41 2    
    83   40   42 1    
    84   42   43 1    
    85   42   44 1    
    86   42  165 1    
    87   43  166 1    
    88   43  167 1    
    89   43  168 1    
    90   44   45 am   BACKBONE|DICT|INTERRES
    91   44  169 1    
    92   45   46 2    
    93   45   47 1    
    94   47   48 1    
    95   47   49 1    
    96   47  170 1    
    97   48  171 1    
    98   48  172 1    
    99   48  173 1    
   100   49   50 am   BACKBONE|DICT|INTERRES
   101   49  174 1    
   102   50   51 2    
   103   50   52 1    
   104   52   53 1    
   105   52   54 1    
   106   52  175 1    
   107   53  176 1    
   108   53  177 1    
   109   53  178 1    
   110   54   55 am   BACKBONE|DICT|INTERRES
   111   54  179 1    
   112   55   56 2    
   113   55   57 1    
   114   57   58 1    
   115   57   59 1    
   116   57  180 1    
   117   58  181 1    
   118   58  182 1    
   119   58  183 1    
   120   59   60 am   BACKBONE|DICT|INTERRES
   121   59  184 1    
   122   60   61 2    
   123   60   62 1    
   124   62   63 1    
   125   62   64 1    
   126   62  185 1    
   127   63  186 1    
   128   63  187 1    
   129   63  188 1    
   130   64   65 am   BACKBONE|DICT|INTERRES
   131   64  189 1    
   132   65   66 2    
   133   67   68 2    
   134   67   69 am   BACKBONE|DICT|INTERRES
   135   69   70 1    
   136   69  190 1    
   137   70   71 1    
   138   70   72 1    
   139   70  191 1    
   140   71  192 1    
   141   71  193 1    
   142   71  194 1    
   143   72   73 2    
   144   72   74 am   BACKBONE|DICT|INTERRES
   145   74   75 1    
   146   74  195 1    
   147   75   76 1    
   148   75   77 1    
   149   75  196 1    
   150   76  197 1    
   151   76  198 1    
   152   76  199 1    
   153   77   78 2    
   154   77   79 am   BACKBONE|DICT|INTERRES
   155   79   80 1    
   156   79  200 1    
   157   80   81 1    
   158   80   82 1    
   159   80  201 1    
   160   81  202 1    
   161   81  203 1    
   162   81  204 1    
   163   82   83 2    
   164   82   84 am   BACKBONE|DICT|INTERRES
   165   84   85 1    
   166   84  205 1    
   167   85   86 1    
   168   85   87 1    
   169   85  206 1    
   170   86  207 1    
   171   86  208 1    
   172   86  209 1    
   173   87   88 2    
   174   87   89 am   BACKBONE|DICT|INTERRES
   175   89   90 1    
   176   89  210 1    
   177   90   91 1    
   178   90   92 1    
   179   90  211 1    
   180   91  212 1    
   181   91  213 1    
   182   91  214 1    
   183   92   93 2    
   184   92   94 am   BACKBONE|DICT|INTERRES
   185   94   95 1    
   186   94  215 1    
   187   95   96 1    
   188   95   97 1    
   189   95  216 1    
   190   96  217 1    
   191   96  218 1    
   192   96  219 1    
   193   97   98 2    
   194   97   99 am   BACKBONE|DICT|INTERRES
   195   99  100 1    
   196   99  220 1    
   197  100  101 1    
   198  100  102 1    
   199  100  221 1    
   200  101  222 1    
   201  101  223 1    
   202  101  224 1    
   203  102  103 2    
   204  102  104 am   BACKBONE|DICT|INTERRES
   205  104  105 1    
   206  104  225 1    
   207  105  106 1    
   208  105  107 1    
   209  105  226 1    
   210  106  227 1    
   211  106  228 1    
   212  106  229 1    
   213  107  108 2    
   214  107  109 am   BACKBONE|DICT|INTERRES
   215  109  110 1    
   216  109  230 1    
   217  110  111 1    
   218  110  112 1    
   219  110  231 1    
   220  111  232 1    
   221  111  233 1    
   222  111  234 1    
   223  112  113 2    
   224  112  114 am   BACKBONE|DICT|INTERRES
   225  114  115 1    
   226  114  235 1    
   227  115  116 1    
   228  115  117 1    
   229  115  236 1    
   230  116  237 1    
   231  116  238 1    
   232  116  239 1    
   233  117  118 2    
   234  117  119 am   BACKBONE|DICT|INTERRES
   235  119  120 1    
   236  119  240 1    
   237  120  121 1    
   238  120  124 1    
   239  120  241 1    
   240  121  122 am   BACKBONE|DICT|INTERRES
   241  121  123 2    
   242  122  242 1    
   243  122  243 1    
   244  124  125 1    
   245  124  244 1    
   246  124  245 1    
   247  125  126 1    
   248  126  246 1    
   249  126  247 1    
@<TRIPOS>SUBSTRUCTURE
     1 UNK         1 GROUP             0       ****    0 ROOT    
