@<TRIPOS>MOLECULE
3R540
247   249    1
SMALL
USER_CHARGES


@<TRIPOS>ATOM
      1 CA          1.8219  -10.2128  -45.0416 C.3       0 UNK        -0.1800 
      2 C           1.9545  -11.1380  -46.2412 C.2       0 UNK         0.5000 
      3 O           1.1705  -11.0375  -47.1855 O.2       0 UNK        -0.5000 
      4 N           2.9513  -12.0327  -46.2203 N.am      1 UNK        -0.5000 
      5 CA          3.1973  -13.0475  -47.2547 C.3       1 UNK         0.1400 
      6 C6          4.2963  -14.0458  -46.8140 C.3       23 UNK        -0.0398 
      7 S7          4.1431  -15.6541  -47.6567 S.3       23 UNK        -0.2404 
      8 C8          3.0694  -16.5463  -46.4930 C.3       23 UNK        -0.0205 
      9 C9          2.3899  -17.7156  -47.1818 C.ar      23 UNK        -0.0193 
     10 C10         1.1111  -17.5663  -47.7274 C.ar      23 UNK        -0.1150 
     11 C11         0.4912  -18.6347  -48.3811 C.ar      23 UNK        -0.0193 
     12 C12         1.1546  -19.8616  -48.4740 C.ar      23 UNK        -0.1150 
     13 C13         2.4407  -20.0166  -47.9477 C.ar      23 UNK        -0.0193 
     14 C14         3.0523  -18.9398  -47.3012 C.ar      23 UNK        -0.1150 
     15 C15         3.1883  -21.3272  -48.1335 C.3       23 UNK        -0.0205 
     16 S16         3.4545  -22.2049  -46.5605 S.3       23 UNK        -0.2404 
     17 C17         3.5454  -23.9263  -47.1638 C.3       23 UNK        -0.0398 
     18 CA          2.2957  -24.7901  -46.8610 C.3       11 UNK         0.1400 
     19 N           2.2035  -25.1749  -45.4515 N.am      11 UNK        -0.5000 
     20 C           1.4356  -26.1691  -44.9906 C.2       10 UNK         0.5000 
     21 O           0.6604  -26.8051  -45.7041 O.2       10 UNK        -0.5000 
     22 CA          1.5240  -26.5159  -43.4931 C.3       10 UNK         0.1400 
     23 CB          2.7625  -27.3816  -43.1938 C.3       10 UNK        -0.1800 
     24 N           1.4378  -25.3602  -42.5932 N.am      10 UNK        -0.5000 
     25 C           2.3040  -24.3521  -42.4283 C.2       9 UNK         0.5000 
     26 O           3.3773  -24.2466  -43.0271 O.2       9 UNK        -0.5000 
     27 CA          1.8879  -23.2884  -41.3972 C.3       9 UNK         0.1400 
     28 CB          2.5356  -23.5825  -40.0353 C.3       9 UNK        -0.1800 
     29 N           2.2224  -21.9219  -41.7965 N.am      9 UNK        -0.5000 
     30 C           1.8161  -21.3095  -42.9165 C.2       8 UNK         0.5000 
     31 O           1.1675  -21.8572  -43.8131 O.2       8 UNK        -0.5000 
     32 CA          2.1981  -19.8183  -43.0248 C.3       8 UNK         0.1400 
     33 CB          3.5811  -19.6446  -43.6675 C.3       8 UNK        -0.1800 
     34 N           1.2196  -19.0211  -43.7658 N.am      8 UNK        -0.5000 
     35 C          -0.0624  -18.8624  -43.4108 C.2       7 UNK         0.5000 
     36 O          -0.5643  -19.3618  -42.4008 O.2       7 UNK        -0.5000 
     37 CA         -0.8974  -17.9451  -44.3237 C.3       7 UNK         0.1400 
     38 CB         -2.4161  -18.1447  -44.1433 C.3       7 UNK        -0.1800 
     39 N          -0.5494  -16.5292  -44.1639 N.am      7 UNK        -0.5000 
     40 C          -0.5513  -15.7911  -43.0434 C.2       6 UNK         0.5000 
     41 O          -0.8237  -16.2273  -41.9250 O.2       6 UNK        -0.5000 
     42 CA         -0.2358  -14.2878  -43.1906 C.3       6 UNK         0.1400 
     43 CB          1.2840  -14.0281  -43.2392 C.3       6 UNK        -0.1800 
     44 N          -0.9419  -13.6279  -44.2996 N.am      6 UNK        -0.5000 
     45 C          -0.7532  -13.7858  -45.6161 C.2       5 UNK         0.5000 
     46 O           0.0881  -14.5539  -46.0870 O.2       5 UNK        -0.5000 
     47 CA         -1.6714  -12.9777  -46.5554 C.3       5 UNK         0.1400 
     48 CB         -2.0031  -11.5699  -46.0245 C.3       5 UNK        -0.1800 
     49 N          -1.0450  -12.8528  -47.8678 N.am      5 UNK        -0.5000 
     50 C          -1.2026  -13.7175  -48.8778 C.2       4 UNK         0.5000 
     51 O          -2.0021  -14.6539  -48.8434 O.2       4 UNK        -0.5000 
     52 CA         -0.3028  -13.5275  -50.1181 C.3       4 UNK         0.1400 
     53 CB         -0.9984  -13.9545  -51.4277 C.3       4 UNK        -0.1800 
     54 N           0.2784  -12.1834  -50.2311 N.am      4 UNK        -0.5000 
     55 C          -0.3637  -11.0203  -50.4313 C.2       3 UNK         0.5000 
     56 O          -1.5761  -10.9368  -50.6302 O.2       3 UNK        -0.5000 
     57 CA          0.4786   -9.7273  -50.3740 C.3       3 UNK         0.1400 
     58 CB         -0.1807   -8.6773  -49.4621 C.3       3 UNK        -0.1800 
     59 N           1.8306   -9.9823  -49.8748 N.am      3 UNK        -0.5000 
     60 C           2.9442  -10.0257  -50.6186 C.2       2 UNK         0.5000 
     61 O           2.9701   -9.7824  -51.8253 O.2       2 UNK        -0.5000 
     62 CA          4.2516  -10.4311  -49.9021 C.3       2 UNK         0.1400 
     63 CB          5.0733   -9.1841  -49.5418 C.3       2 UNK        -0.1800 
     64 N           4.0423  -11.2269  -48.6881 N.am      2 UNK        -0.5000 
     65 C           3.4805  -12.4444  -48.6512 C.2       1 UNK         0.5000 
     66 O           3.1180  -13.0484  -49.6608 O.2       1 UNK        -0.5000 
     67 C           0.9782  -24.1885  -47.3981 C.2       11 UNK         0.5000 
     68 O           0.5754  -24.5245  -48.5112 O.2       11 UNK        -0.5000 
     69 N           0.3006  -23.3593  -46.5880 N.am      12 UNK        -0.5000 
     70 CA         -1.0023  -22.7799  -46.9228 C.3       12 UNK         0.1400 
     71 CB         -1.3411  -21.6559  -45.9339 C.3       12 UNK        -0.1800 
     72 C          -2.1214  -23.8367  -46.9579 C.2       12 UNK         0.5000 
     73 O          -3.0276  -23.7344  -47.7849 O.2       12 UNK        -0.5000 
     74 N          -2.0175  -24.8531  -46.0893 N.am      13 UNK        -0.5000 
     75 CA         -2.9192  -26.0039  -46.0535 C.3       13 UNK         0.1400 
     76 CB         -2.7369  -26.7717  -44.7355 C.3       13 UNK        -0.1800 
     77 C          -2.7173  -26.9241  -47.2698 C.2       13 UNK         0.5000 
     78 O          -3.7013  -27.3403  -47.8800 O.2       13 UNK        -0.5000 
     79 N          -1.4526  -27.1767  -47.6386 N.am      14 UNK        -0.5000 
     80 CA         -1.0622  -27.9276  -48.8360 C.3       14 UNK         0.1400 
     81 CB          0.4547  -28.1677  -48.8172 C.3       14 UNK        -0.1800 
     82 C          -1.4898  -27.2346  -50.1451 C.2       14 UNK         0.5000 
     83 O          -1.8804  -27.9134  -51.0950 O.2       14 UNK        -0.5000 
     84 N          -1.4542  -25.8951  -50.1518 N.am      15 UNK        -0.5000 
     85 CA         -1.9600  -25.0365  -51.2253 C.3       15 UNK         0.1400 
     86 CB         -1.3424  -23.6380  -51.0626 C.3       15 UNK        -0.1800 
     87 C          -3.5023  -24.9476  -51.2756 C.2       15 UNK         0.5000 
     88 O          -4.0358  -24.3725  -52.2241 O.2       15 UNK        -0.5000 
     89 N          -4.1867  -25.5030  -50.2636 N.am      16 UNK        -0.5000 
     90 CA         -5.6383  -25.5163  -50.0633 C.3       16 UNK         0.1400 
     91 CB         -6.3436  -26.3645  -51.1419 C.3       16 UNK        -0.1800 
     92 C          -6.2407  -24.1090  -49.8666 C.2       16 UNK         0.5000 
     93 O          -7.3645  -23.8479  -50.3015 O.2       16 UNK        -0.5000 
     94 N          -5.4790  -23.2461  -49.1766 N.am      17 UNK        -0.5000 
     95 CA         -5.8184  -21.9091  -48.6899 C.3       17 UNK         0.1400 
     96 CB         -6.6577  -22.0263  -47.4006 C.3       17 UNK        -0.1800 
     97 C          -6.4575  -21.0022  -49.7609 C.2       17 UNK         0.5000 
     98 O          -5.7430  -20.4591  -50.6061 O.2       17 UNK        -0.5000 
     99 N          -7.7892  -20.8632  -49.7154 N.am      18 UNK        -0.5000 
    100 CA        -8.6030  -20.0576  -50.6259 C.3       18 UNK         0.1400 
    101 CB       -10.0670  -20.1083  -50.1653 C.3       18 UNK        -0.1800 
    102 C         -8.4893  -20.4667  -52.1068 C.2       18 UNK         0.5000 
    103 O         -8.6671  -19.6115  -52.9738 O.2       18 UNK        -0.5000 
    104 N         -8.1410  -21.7333  -52.3802 N.am      19 UNK        -0.5000 
    105 CA        -7.8677  -22.2441  -53.7275 C.3       19 UNK         0.1400 
    106 CB        -7.7006  -23.7672  -53.6640 C.3       19 UNK        -0.1800 
    107 C         -6.6270  -21.6017  -54.3825 C.2       19 UNK         0.5000 
    108 O         -6.5774  -21.4941  -55.6081 O.2       19 UNK        -0.5000 
    109 N         -5.6689  -21.1641  -53.5553 N.am      20 UNK        -0.5000 
    110 CA        -4.4708  -20.4259  -53.9556 C.3       20 UNK         0.1400 
    111 CB        -3.2680  -21.0192  -53.2050 C.3       20 UNK        -0.1800 
    112 C         -4.6058  -18.9153  -53.6747 C.2       20 UNK         0.5000 
    113 O         -3.6303  -18.1837  -53.8473 O.2       20 UNK        -0.5000 
    114 N         -5.7954  -18.4786  -53.2296 N.am      21 UNK        -0.5000 
    115 CA        -6.1451  -17.1249  -52.7863 C.3       21 UNK         0.1400 
    116 CB        -6.1048  -16.1326  -53.9674 C.3       21 UNK        -0.1800 
    117 C         -5.3222  -16.6521  -51.5668 C.2       21 UNK         0.5000 
    118 O         -5.0437  -15.4587  -51.4396 O.2       21 UNK        -0.5000 
    119 N         -4.9458  -17.5982  -50.6956 N.am      22 UNK        -0.5000 
    120 CA        -4.1936  -17.3542  -49.4594 C.3       22 UNK         0.1400 
    121 C         -5.0322  -16.5699  -48.4125 C.2       22 UNK         0.5000 
    122 N         -4.4996  -15.4868  -47.8678 N.am      22 UNK        -0.7600 
    123 O         -6.1493  -16.9564  -48.0752 O.2       22 UNK        -0.5000 
    124 C124       -3.6607  -18.6884  -48.8809 C.3       23 UNK        -0.0398 
    125 S125       -2.2092  -18.4912  -47.8000 S.3       23 UNK        -0.2404 
    126 C126       -0.8723  -18.4531  -49.0287 C.3       23 UNK        -0.0205 
    127 H127        2.6739  -10.3003  -44.3673 H         1 UNK         0.0600 
    128 H128        1.7548   -9.1766  -45.3727 H         1 UNK         0.0600 
    129 H129        0.9185  -10.4533  -44.4817 H         1 UNK         0.0600 
    130 H130        3.5732  -12.0542  -45.4248 H         1 UNK         0.3000 
    131 H131        2.2601  -13.6004  -47.3476 H         1 UNK         0.0600 
    132 H132        5.2938  -13.6406  -46.9934 H         1 UNK         0.0800 
    133 H133        4.2402  -14.2257  -45.7392 H         1 UNK         0.0800 
    134 H134        2.3178  -15.8692  -46.0882 H         1 UNK         0.0800 
    135 H135        3.6607  -16.8952  -45.6453 H         1 UNK         0.0800 
    136 H136        0.6023  -16.6145  -47.6597 H         1 UNK         0.1150 
    137 H137        0.6813  -20.6878  -48.9857 H         1 UNK         0.1150 
    138 H138        4.0522  -19.0510  -46.9058 H         1 UNK         0.1150 
    139 H139        2.6370  -21.9665  -48.8247 H         1 UNK         0.0800 
    140 H140        4.1540  -21.1322  -48.6017 H         1 UNK         0.0800 
    141 H141        3.7417  -23.9284  -48.2371 H         1 UNK         0.0800 
    142 H142        4.4255  -24.3900  -46.7163 H         1 UNK         0.0800 
    143 H143        2.4409  -25.7221  -47.4119 H         1 UNK         0.0600 
    144 H144        2.7896  -24.6738  -44.7886 H         1 UNK         0.3000 
    145 H145        0.6467  -27.1242  -43.2670 H         1 UNK         0.0600 
    146 H146        2.7893  -27.6821  -42.1464 H         1 UNK         0.0600 
    147 H147        2.7516  -28.2929  -43.7930 H         1 UNK         0.0600 
    148 H148        3.6931  -26.8593  -43.4168 H         1 UNK         0.0600 
    149 H149        0.5859  -25.3254  -42.0506 H         1 UNK         0.3000 
    150 H150        0.8032  -23.3272  -41.2774 H         1 UNK         0.0600 
    151 H151        2.2852  -24.5869  -39.6909 H         1 UNK         0.0600 
    152 H152        2.1900  -22.8843  -39.2728 H         1 UNK         0.0600 
    153 H153        3.6232  -23.5153  -40.0857 H         1 UNK         0.0600 
    154 H154        2.7806  -21.3987  -41.1384 H         1 UNK         0.3000 
    155 H155        2.2419  -19.4073  -42.0140 H         1 UNK         0.0600 
    156 H156        3.8927  -18.6001  -43.6621 H         1 UNK         0.0600 
    157 H157        3.5867  -19.9914  -44.6988 H         1 UNK         0.0600 
    158 H158        4.3398  -20.2132  -43.1284 H         1 UNK         0.0600 
    159 H159        1.5423  -18.6018  -44.6247 H         1 UNK         0.3000 
    160 H160       -0.6483  -18.2132  -45.3505 H         1 UNK         0.0600 
    161 H161       -2.9783  -17.5343  -44.8503 H         1 UNK         0.0600 
    162 H162       -2.7463  -17.8822  -43.1379 H         1 UNK         0.0600 
    163 H163       -2.6937  -19.1844  -44.3202 H         1 UNK         0.0600 
    164 H164       -0.2925  -16.0378  -45.0167 H         1 UNK         0.3000 
    165 H165       -0.6109  -13.8047  -42.2868 H         1 UNK         0.0600 
    166 H166        1.7596  -14.5077  -44.0942 H         1 UNK         0.0600 
    167 H167        1.4995  -12.9610  -43.2917 H         1 UNK         0.0600 
    168 H168        1.7701  -14.4143  -42.3426 H         1 UNK         0.0600 
    169 H169       -1.6787  -13.0000  -44.0106 H         1 UNK         0.3000 
    170 H170       -2.6089  -13.5290  -46.6443 H         1 UNK         0.0600 
    171 H171       -2.6158  -11.6164  -45.1240 H         1 UNK         0.0600 
    172 H172       -1.1058  -11.0006  -45.7857 H         1 UNK         0.0600 
    173 H173       -2.5681  -10.9989  -46.7617 H         1 UNK         0.0600 
    174 H174       -0.3140  -12.1526  -47.9351 H         1 UNK         0.3000 
    175 H175        0.5424  -14.2006  -49.9677 H         1 UNK         0.0600 
    176 H176       -1.9129  -13.3884  -51.6057 H         1 UNK         0.0600 
    177 H177       -0.3425  -13.8161  -52.2870 H         1 UNK         0.0600 
    178 H178       -1.2737  -15.0095  -51.3975 H         1 UNK         0.0600 
    179 H179        1.2815  -12.1491  -50.0903 H         1 UNK         0.3000 
    180 H180        0.5156   -9.3225  -51.3871 H         1 UNK         0.0600 
    181 H181       -0.3033   -9.0490  -48.4440 H         1 UNK         0.0600 
    182 H182       -1.1684   -8.3986  -49.8312 H         1 UNK         0.0600 
    183 H183        0.4151   -7.7657  -49.4164 H         1 UNK         0.0600 
    184 H184        1.8859  -10.2290  -48.8919 H         1 UNK         0.3000 
    185 H185        4.8331  -11.0353  -50.6015 H         1 UNK         0.0600 
    186 H186        5.2757   -8.5798  -50.4271 H         1 UNK         0.0600 
    187 H187        4.5492   -8.5508  -48.8249 H         1 UNK         0.0600 
    188 H188        6.0364   -9.4567  -49.1097 H         1 UNK         0.0600 
    189 H189        4.2885  -10.7881  -47.8126 H         1 UNK         0.3000 
    190 H190        0.7086  -23.0906  -45.6995 H         1 UNK         0.3000 
    191 H191       -0.9325  -22.3389  -47.9190 H         1 UNK         0.0600 
    192 H192       -2.3002  -21.1971  -46.1770 H         1 UNK         0.0600 
    193 H193       -0.5875  -20.8683  -45.9641 H         1 UNK         0.0600 
    194 H194       -1.4013  -22.0228  -44.9087 H         1 UNK         0.0600 
    195 H195       -1.2206  -24.8761  -45.4712 H         1 UNK         0.3000 
    196 H196       -3.9454  -25.6310  -46.0850 H         1 UNK         0.0600 
    197 H197       -3.4377  -27.6052  -44.6732 H         1 UNK         0.0600 
    198 H198       -2.9217  -26.1278  -43.8756 H         1 UNK         0.0600 
    199 H199       -1.7328  -27.1833  -44.6368 H         1 UNK         0.0600 
    200 H200       -0.6960  -26.8469  -47.0453 H         1 UNK         0.3000 
    201 H201       -1.5612  -28.8980  -48.7968 H         1 UNK         0.0600 
    202 H202        0.7576  -28.7078  -47.9199 H         1 UNK         0.0600 
    203 H203        1.0108  -27.2307  -48.8472 H         1 UNK         0.0600 
    204 H204        0.7665  -28.7624  -49.6766 H         1 UNK         0.0600 
    205 H205       -1.0335  -25.4210  -49.3592 H         1 UNK         0.3000 
    206 H206       -1.6259  -25.4475  -52.1800 H         1 UNK         0.0600 
    207 H207       -0.2539  -23.6866  -51.0303 H         1 UNK         0.0600 
    208 H208       -1.6082  -22.9925  -51.8983 H         1 UNK         0.0600 
    209 H209       -1.6844  -23.1507  -50.1495 H         1 UNK         0.0600 
    210 H210       -3.6555  -25.9562  -49.5305 H         1 UNK         0.3000 
    211 H211       -5.8001  -26.0237  -49.1115 H         1 UNK         0.0600 
    212 H212       -6.1758  -25.9786  -52.1456 H         1 UNK         0.0600 
    213 H213       -7.4211  -26.4002  -50.9777 H         1 UNK         0.0600 
    214 H214       -5.9818  -27.3924  -51.1219 H         1 UNK         0.0600 
    215 H215       -4.5624  -23.5706  -48.8764 H         1 UNK         0.3000 
    216 H216       -4.8692  -21.4468  -48.4200 H         1 UNK         0.0600 
    217 H217       -7.5802  -22.5864  -47.5581 H         1 UNK         0.0600 
    218 H218       -6.9230  -21.0426  -47.0105 H         1 UNK         0.0600 
    219 H219       -6.0942  -22.5382  -46.6201 H         1 UNK         0.0600 
    220 H220       -8.2920  -21.3821  -49.0104 H         1 UNK         0.3000 
    221 H221       -8.2544  -19.0257  -50.5471 H         1 UNK         0.0600 
    222 H222      -10.4606  -21.1253  -50.1903 H         1 UNK         0.0600 
    223 H223      -10.1746  -19.7302  -49.1485 H         1 UNK         0.0600 
    224 H224      -10.7008  -19.4947  -50.8071 H         1 UNK         0.0600 
    225 H225       -7.9888  -22.3777  -51.6098 H         1 UNK         0.3000 
    226 H226       -8.7327  -22.0182  -54.3545 H         1 UNK         0.0600 
    227 H227       -8.5592  -24.2460  -53.1929 H         1 UNK         0.0600 
    228 H228       -7.5937  -24.1918  -54.6629 H         1 UNK         0.0600 
    229 H229       -6.8098  -24.0352  -53.0972 H         1 UNK         0.0600 
    230 H230       -5.7991  -21.2731  -52.5556 H         1 UNK         0.3000 
    231 H231       -4.2927  -20.5395  -55.0266 H         1 UNK         0.0600 
    232 H232       -3.3887  -20.9430  -52.1235 H         1 UNK         0.0600 
    233 H233       -2.3406  -20.5111  -53.4716 H         1 UNK         0.0600 
    234 H234       -3.1415  -22.0719  -53.4561 H         1 UNK         0.0600 
    235 H235       -6.5425  -19.1572  -53.1573 H         1 UNK         0.3000 
    236 H236       -7.1791  -17.1796  -52.4433 H         1 UNK         0.0600 
    237 H237       -6.7008  -16.4936  -54.8055 H         1 UNK         0.0600 
    238 H238       -6.5101  -15.1627  -53.6772 H         1 UNK         0.0600 
    239 H239       -5.0879  -15.9673  -54.3243 H         1 UNK         0.0600 
    240 H240       -5.2378  -18.5567  -50.8558 H         1 UNK         0.3000 
    241 H241       -3.3347  -16.7451  -49.7458 H         1 UNK         0.0600 
    242 H242       -3.5815  -15.1625  -48.1729 H         1 UNK         0.3800 
    243 H243       -5.0229  -14.9643  -47.1851 H         1 UNK         0.3800 
    244 H244       -4.4395  -19.1949  -48.3110 H         1 UNK         0.0800 
    245 H245       -3.3879  -19.3741  -49.6845 H         1 UNK         0.0800 
    246 H246       -0.9018  -17.5012  -49.5614 H         1 UNK         0.0800 
    247 H247       -1.0360  -19.2309  -49.7762 H         1 UNK         0.0800 
@<TRIPOS>BOND
     1    1    2 1    
     2    1  127 1    
     3    1  128 1    
     4    1  129 1    
     5    2    3 2    
     6    2    4 am   BACKBONE|DICT|INTERRES
     7    4    5 1    
     8    4  130 1    
     9    5    6 1    
    10    5   65 1    
    11    5  131 1    
    12    6    7 1    
    13    6  132 1    
    14    6  133 1    
    15    7    8 1    
    16    8    9 1    
    17    8  134 1    
    18    8  135 1    
    19    9   10 ar   
    20    9   14 ar   
    21   10   11 ar   
    22   10  136 1    
    23   11   12 ar   
    24   11  126 1    
    25   12   13 ar   
    26   12  137 1    
    27   13   14 ar   
    28   13   15 1    
    29   14  138 1    
    30   15   16 1    
    31   15  139 1    
    32   15  140 1    
    33   16   17 1    
    34   17   18 1    
    35   17  141 1    
    36   17  142 1    
    37   18   19 1    
    38   18   67 1    
    39   18  143 1    
    40   19   20 am   BACKBONE|DICT|INTERRES
    41   19  144 1    
    42   20   21 2    
    43   20   22 1    
    44   22   23 1    
    45   22   24 1    
    46   22  145 1    
    47   23  146 1    
    48   23  147 1    
    49   23  148 1    
    50   24   25 am   BACKBONE|DICT|INTERRES
    51   24  149 1    
    52   25   26 2    
    53   25   27 1    
    54   27   28 1    
    55   27   29 1    
    56   27  150 1    
    57   28  151 1    
    58   28  152 1    
    59   28  153 1    
    60   29   30 am   BACKBONE|DICT|INTERRES
    61   29  154 1    
    62   30   31 2    
    63   30   32 1    
    64   32   33 1    
    65   32   34 1    
    66   32  155 1    
    67   33  156 1    
    68   33  157 1    
    69   33  158 1    
    70   34   35 am   BACKBONE|DICT|INTERRES
    71   34  159 1    
    72   35   36 2    
    73   35   37 1    
    74   37   38 1    
    75   37   39 1    
    76   37  160 1    
    77   38  161 1    
    78   38  162 1    
    79   38  163 1    
    80   39   40 am   BACKBONE|DICT|INTERRES
    81   39  164 1    
    82   40   41 2    
    83   40   42 1    
    84   42   43 1    
    85   42   44 1    
    86   42  165 1    
    87   43  166 1    
    88   43  167 1    
    89   43  168 1    
    90   44   45 am   BACKBONE|DICT|INTERRES
    91   44  169 1    
    92   45   46 2    
    93   45   47 1    
    94   47   48 1    
    95   47   49 1    
    96   47  170 1    
    97   48  171 1    
    98   48  172 1    
    99   48  173 1    
   100   49   50 am   BACKBONE|DICT|INTERRES
   101   49  174 1    
   102   50   51 2    
   103   50   52 1    
   104   52   53 1    
   105   52   54 1    
   106   52  175 1    
   107   53  176 1    
   108   53  177 1    
   109   53  178 1    
   110   54   55 am   BACKBONE|DICT|INTERRES
   111   54  179 1    
   112   55   56 2    
   113   55   57 1    
   114   57   58 1    
   115   57   59 1    
   116   57  180 1    
   117   58  181 1    
   118   58  182 1    
   119   58  183 1    
   120   59   60 am   BACKBONE|DICT|INTERRES
   121   59  184 1    
   122   60   61 2    
   123   60   62 1    
   124   62   63 1    
   125   62   64 1    
   126   62  185 1    
   127   63  186 1    
   128   63  187 1    
   129   63  188 1    
   130   64   65 am   BACKBONE|DICT|INTERRES
   131   64  189 1    
   132   65   66 2    
   133   67   68 2    
   134   67   69 am   BACKBONE|DICT|INTERRES
   135   69   70 1    
   136   69  190 1    
   137   70   71 1    
   138   70   72 1    
   139   70  191 1    
   140   71  192 1    
   141   71  193 1    
   142   71  194 1    
   143   72   73 2    
   144   72   74 am   BACKBONE|DICT|INTERRES
   145   74   75 1    
   146   74  195 1    
   147   75   76 1    
   148   75   77 1    
   149   75  196 1    
   150   76  197 1    
   151   76  198 1    
   152   76  199 1    
   153   77   78 2    
   154   77   79 am   BACKBONE|DICT|INTERRES
   155   79   80 1    
   156   79  200 1    
   157   80   81 1    
   158   80   82 1    
   159   80  201 1    
   160   81  202 1    
   161   81  203 1    
   162   81  204 1    
   163   82   83 2    
   164   82   84 am   BACKBONE|DICT|INTERRES
   165   84   85 1    
   166   84  205 1    
   167   85   86 1    
   168   85   87 1    
   169   85  206 1    
   170   86  207 1    
   171   86  208 1    
   172   86  209 1    
   173   87   88 2    
   174   87   89 am   BACKBONE|DICT|INTERRES
   175   89   90 1    
   176   89  210 1    
   177   90   91 1    
   178   90   92 1    
   179   90  211 1    
   180   91  212 1    
   181   91  213 1    
   182   91  214 1    
   183   92   93 2    
   184   92   94 am   BACKBONE|DICT|INTERRES
   185   94   95 1    
   186   94  215 1    
   187   95   96 1    
   188   95   97 1    
   189   95  216 1    
   190   96  217 1    
   191   96  218 1    
   192   96  219 1    
   193   97   98 2    
   194   97   99 am   BACKBONE|DICT|INTERRES
   195   99  100 1    
   196   99  220 1    
   197  100  101 1    
   198  100  102 1    
   199  100  221 1    
   200  101  222 1    
   201  101  223 1    
   202  101  224 1    
   203  102  103 2    
   204  102  104 am   BACKBONE|DICT|INTERRES
   205  104  105 1    
   206  104  225 1    
   207  105  106 1    
   208  105  107 1    
   209  105  226 1    
   210  106  227 1    
   211  106  228 1    
   212  106  229 1    
   213  107  108 2    
   214  107  109 am   BACKBONE|DICT|INTERRES
   215  109  110 1    
   216  109  230 1    
   217  110  111 1    
   218  110  112 1    
   219  110  231 1    
   220  111  232 1    
   221  111  233 1    
   222  111  234 1    
   223  112  113 2    
   224  112  114 am   BACKBONE|DICT|INTERRES
   225  114  115 1    
   226  114  235 1    
   227  115  116 1    
   228  115  117 1    
   229  115  236 1    
   230  116  237 1    
   231  116  238 1    
   232  116  239 1    
   233  117  118 2    
   234  117  119 am   BACKBONE|DICT|INTERRES
   235  119  120 1    
   236  119  240 1    
   237  120  121 1    
   238  120  124 1    
   239  120  241 1    
   240  121  122 am   BACKBONE|DICT|INTERRES
   241  121  123 2    
   242  122  242 1    
   243  122  243 1    
   244  124  125 1    
   245  124  244 1    
   246  124  245 1    
   247  125  126 1    
   248  126  246 1    
   249  126  247 1    
@<TRIPOS>SUBSTRUCTURE
     1 UNK         1 GROUP             0       ****    0 ROOT    
