@<TRIPOS>MOLECULE
3R540
247   249    1
SMALL
USER_CHARGES


@<TRIPOS>ATOM
      1 CA          1.9212  -13.9289  -50.2446 C.3       0 UNK        -0.1800 
      2 C           1.4744  -14.0978  -48.8004 C.2       0 UNK         0.5000 
      3 O           2.1843  -14.7142  -48.0051 O.2       0 UNK        -0.5000 
      4 N           0.3048  -13.5492  -48.4493 N.am      1 UNK        -0.5000 
      5 CA         -0.3439  -13.6756  -47.1373 C.3       1 UNK         0.1400 
      6 C6         -1.8858  -13.5093  -47.2181 C.3       23 UNK        -0.0398 
      7 S7         -2.6950  -14.4940  -48.5265 S.3       23 UNK        -0.2404 
      8 C8         -2.5843  -16.1922  -47.8812 C.3       23 UNK        -0.0205 
      9 C9         -1.7119  -17.0536  -48.7809 C.ar      23 UNK        -0.0193 
     10 C10        -2.2646  -17.6670  -49.9085 C.ar      23 UNK        -0.1150 
     11 C11        -1.4665  -18.4341  -50.7614 C.ar      23 UNK        -0.0193 
     12 C12        -0.1066  -18.5856  -50.4828 C.ar      23 UNK        -0.1150 
     13 C13         0.4549  -17.9886  -49.3518 C.ar      23 UNK        -0.0193 
     14 C14        -0.3540  -17.2294  -48.5010 C.ar      23 UNK        -0.1150 
     15 C15         1.9388  -18.1539  -49.0600 C.3       23 UNK        -0.0205 
     16 S16         2.3703  -19.8659  -48.6139 S.3       23 UNK        -0.2404 
     17 C17         1.4598  -20.0705  -47.0483 C.3       23 UNK        -0.0398 
     18 CA          0.6686  -21.3965  -46.9670 C.3       11 UNK         0.1400 
     19 N           0.3329  -21.7060  -45.5776 N.am      11 UNK        -0.5000 
     20 C          -0.1952  -22.8541  -45.1376 C.2       10 UNK         0.5000 
     21 O          -0.4191  -23.8271  -45.8552 O.2       10 UNK        -0.5000 
     22 CA         -0.5807  -22.8977  -43.6496 C.3       10 UNK         0.1400 
     23 CB          0.6355  -23.2483  -42.7800 C.3       10 UNK        -0.1800 
     24 N          -1.1603  -21.6295  -43.2033 N.am      10 UNK        -0.5000 
     25 C          -2.3650  -21.1789  -43.5813 C.2       9 UNK         0.5000 
     26 O          -3.1271  -21.8044  -44.3178 O.2       9 UNK        -0.5000 
     27 CA         -2.7662  -19.7772  -43.0873 C.3       9 UNK         0.1400 
     28 CB         -3.2907  -19.8377  -41.6451 C.3       9 UNK        -0.1800 
     29 N          -1.6659  -18.8147  -43.1667 N.am      9 UNK        -0.5000 
     30 C          -1.1308  -18.3768  -44.3145 C.2       8 UNK         0.5000 
     31 O          -1.5176  -18.7277  -45.4278 O.2       8 UNK        -0.5000 
     32 CA          0.0673  -17.4174  -44.2027 C.3       8 UNK         0.1400 
     33 CB         -0.4127  -15.9693  -44.0321 C.3       8 UNK        -0.1800 
     34 N           1.0041  -17.7378  -43.1232 N.am      8 UNK        -0.5000 
     35 C           1.6307  -18.9069  -42.9389 C.2       7 UNK         0.5000 
     36 O           1.4202  -19.9084  -43.6243 O.2       7 UNK        -0.5000 
     37 CA          2.7027  -18.9301  -41.8306 C.3       7 UNK         0.1400 
     38 CB          3.2359  -20.3463  -41.5508 C.3       7 UNK        -0.1800 
     39 N           3.8244  -18.0633  -42.1944 N.am      7 UNK        -0.5000 
     40 C           3.8284  -16.7297  -42.0864 C.2       6 UNK         0.5000 
     41 O           2.9009  -16.0853  -41.5897 O.2       6 UNK        -0.5000 
     42 CA          5.0291  -16.0039  -42.7101 C.3       6 UNK         0.1400 
     43 CB          4.7840  -15.7842  -44.2126 C.3       6 UNK        -0.1800 
     44 N           5.2361  -14.7054  -42.0762 N.am      6 UNK        -0.5000 
     45 C           6.0082  -14.4947  -41.0047 C.2       5 UNK         0.5000 
     46 O           6.6455  -15.3857  -40.4407 O.2       5 UNK        -0.5000 
     47 CA          6.1030  -13.0553  -40.4747 C.3       5 UNK         0.1400 
     48 CB          7.1003  -12.2322  -41.3071 C.3       5 UNK        -0.1800 
     49 N           4.8069  -12.3737  -40.4568 N.am      5 UNK        -0.5000 
     50 C           4.3768  -11.5971  -39.4512 C.2       4 UNK         0.5000 
     51 O           5.0200  -11.4039  -38.4181 O.2       4 UNK        -0.5000 
     52 CA          3.0128  -10.8917  -39.6120 C.3       4 UNK         0.1400 
     53 CB          3.2165   -9.4093  -39.9622 C.3       4 UNK        -0.1800 
     54 N           2.1522  -11.4952  -40.6275 N.am      4 UNK        -0.5000 
     55 C           1.5457  -12.6833  -40.5167 C.2       3 UNK         0.5000 
     56 O           1.5685  -13.3637  -39.4906 O.2       3 UNK        -0.5000 
     57 CA          0.7894  -13.2043  -41.7569 C.3       3 UNK         0.1400 
     58 CB         -0.7266  -13.0505  -41.5573 C.3       3 UNK        -0.1800 
     59 N           1.1511  -12.5858  -43.0395 N.am      3 UNK        -0.5000 
     60 C           2.3680  -12.5142  -43.5949 C.2       2 UNK         0.5000 
     61 O           3.4005  -12.8572  -43.0178 O.2       2 UNK        -0.5000 
     62 CA          2.4304  -11.9729  -45.0382 C.3       2 UNK         0.1400 
     63 CB          3.8691  -11.9136  -45.5826 C.3       2 UNK        -0.1800 
     64 N           1.6190  -12.7726  -45.9575 N.am      2 UNK        -0.5000 
     65 C           0.2868  -12.7366  -46.0806 C.2       1 UNK         0.5000 
     66 O          -0.4266  -12.0013  -45.3949 O.2       1 UNK        -0.5000 
     67 C          -0.5816  -21.4191  -47.8779 C.2       11 UNK         0.5000 
     68 O          -0.5392  -22.0200  -48.9524 O.2       11 UNK        -0.5000 
     69 N          -1.6929  -20.8360  -47.4028 N.am      12 UNK        -0.5000 
     70 CA         -2.9983  -20.8956  -48.0596 C.3       12 UNK         0.1400 
     71 CB         -3.9776  -19.9382  -47.3672 C.3       12 UNK        -0.1800 
     72 C          -3.5756  -22.3205  -48.0942 C.2       12 UNK         0.5000 
     73 O          -4.0695  -22.7437  -49.1399 O.2       12 UNK        -0.5000 
     74 N          -3.4870  -23.0465  -46.9695 N.am      13 UNK        -0.5000 
     75 CA         -3.9374  -24.4351  -46.8340 C.3       13 UNK         0.1400 
     76 CB         -3.8352  -24.8807  -45.3687 C.3       13 UNK        -0.1800 
     77 C          -3.1807  -25.4095  -47.7551 C.2       13 UNK         0.5000 
     78 O          -3.8046  -26.2976  -48.3356 O.2       13 UNK        -0.5000 
     79 N          -1.8696  -25.1906  -47.9289 N.am      14 UNK        -0.5000 
     80 CA         -1.0136  -25.9139  -48.8743 C.3       14 UNK         0.1400 
     81 CB          0.4522  -25.5213  -48.6361 C.3       14 UNK        -0.1800 
     82 C          -1.4056  -25.6896  -50.3499 C.2       14 UNK         0.5000 
     83 O          -1.1666  -26.5667  -51.1798 O.2       14 UNK        -0.5000 
     84 N          -2.0420  -24.5470  -50.6386 N.am      15 UNK        -0.5000 
     85 CA         -2.6476  -24.2043  -51.9250 C.3       15 UNK         0.1400 
     86 CB         -2.4084  -22.7092  -52.1981 C.3       15 UNK        -0.1800 
     87 C          -4.1489  -24.5686  -51.9751 C.2       15 UNK         0.5000 
     88 O          -4.8793  -24.0053  -52.7908 O.2       15 UNK        -0.5000 
     89 N          -4.5935  -25.4822  -51.0973 N.am      16 UNK        -0.5000 
     90 CA         -5.9560  -26.0115  -50.9706 C.3       16 UNK         0.1400 
     91 CB         -6.3308  -26.8453  -52.2139 C.3       16 UNK        -0.1800 
     92 C          -6.9940  -24.9243  -50.6239 C.2       16 UNK         0.5000 
     93 O          -8.0835  -24.9042  -51.1960 O.2       16 UNK        -0.5000 
     94 N          -6.6153  -24.0306  -49.6984 N.am      17 UNK        -0.5000 
     95 CA         -7.3278  -22.8136  -49.2905 C.3       17 UNK         0.1400 
     96 CB         -8.7203  -23.1274  -48.7036 C.3       17 UNK        -0.1800 
     97 C          -7.3491  -21.7682  -50.4243 C.2       17 UNK         0.5000 
     98 O          -8.3737  -21.1283  -50.6665 O.2       17 UNK        -0.5000 
     99 N          -6.1949  -21.6326  -51.0953 N.am      18 UNK        -0.5000 
    100 CA        -5.9162  -20.7575  -52.2386 C.3       18 UNK         0.1400 
    101 CB        -5.9475  -19.2772  -51.8036 C.3       18 UNK        -0.1800 
    102 C         -6.8038  -21.0432  -53.4715 C.2       18 UNK         0.5000 
    103 O         -7.1687  -20.1182  -54.2000 O.2       18 UNK        -0.5000 
    104 N         -7.1324  -22.3213  -53.6932 N.am      19 UNK        -0.5000 
    105 CA        -7.9832  -22.7918  -54.7823 C.3       19 UNK         0.1400 
    106 CB        -8.7172  -24.0655  -54.3332 C.3       19 UNK        -0.1800 
    107 C         -7.1424  -23.0220  -56.0482 C.2       19 UNK         0.5000 
    108 O         -6.6801  -24.1388  -56.2878 O.2       19 UNK        -0.5000 
    109 N         -6.9243  -21.9427  -56.8125 N.am      20 UNK        -0.5000 
    110 CA        -6.2107  -21.8422  -58.0972 C.3       20 UNK         0.1400 
    111 CB        -6.8550  -22.7400  -59.1703 C.3       20 UNK        -0.1800 
    112 C         -4.6876  -22.0757  -58.0241 C.2       20 UNK         0.5000 
    113 O         -3.9415  -21.3981  -58.7326 O.2       20 UNK        -0.5000 
    114 N         -4.2399  -22.9784  -57.1421 N.am      21 UNK        -0.5000 
    115 CA        -2.8381  -23.3216  -56.8762 C.3       21 UNK         0.1400 
    116 CB        -2.8008  -24.5009  -55.8932 C.3       21 UNK        -0.1800 
    117 C         -1.9858  -22.1475  -56.3494 C.2       21 UNK         0.5000 
    118 O         -0.7583  -22.2059  -56.4264 O.2       21 UNK        -0.5000 
    119 N         -2.6520  -21.0991  -55.8501 N.am      22 UNK        -0.5000 
    120 CA        -2.0600  -19.7993  -55.5059 C.3       22 UNK         0.1400 
    121 C         -1.5809  -18.9653  -56.7353 C.2       22 UNK         0.5000 
    122 N         -1.9980  -19.2746  -57.9589 N.am      22 UNK        -0.7600 
    123 O         -0.8057  -18.0263  -56.5804 O.2       22 UNK        -0.5000 
    124 C124       -3.0294  -18.9870  -54.6062 C.3       23 UNK        -0.0398 
    125 S125       -2.1729  -17.9461  -53.3806 S.3       23 UNK        -0.2404 
    126 C126       -2.0743  -19.1003  -51.9809 C.3       23 UNK        -0.0205 
    127 H127        2.8847  -13.4207  -50.2829 H         1 UNK         0.0600 
    128 H128        1.2045  -13.3475  -50.8251 H         1 UNK         0.0600 
    129 H129        2.0290  -14.9054  -50.7169 H         1 UNK         0.0600 
    130 H130       -0.2277  -13.0439  -49.1431 H         1 UNK         0.3000 
    131 H131       -0.1562  -14.6860  -46.7745 H         1 UNK         0.0600 
    132 H132       -2.1403  -12.4651  -47.4083 H         1 UNK         0.0800 
    133 H133       -2.3483  -13.7603  -46.2618 H         1 UNK         0.0800 
    134 H134       -2.2037  -16.2017  -46.8601 H         1 UNK         0.0800 
    135 H135       -3.5909  -16.6088  -47.8315 H         1 UNK         0.0800 
    136 H136       -3.3143  -17.5357  -50.1305 H         1 UNK         0.1150 
    137 H137        0.5161  -19.1751  -51.1409 H         1 UNK         0.1150 
    138 H138        0.0790  -16.7673  -47.6270 H         1 UNK         0.1150 
    139 H139        2.5091  -17.8629  -49.9431 H         1 UNK         0.0800 
    140 H140        2.2560  -17.4844  -48.2588 H         1 UNK         0.0800 
    141 H141        0.8023  -19.2212  -46.8664 H         1 UNK         0.0800 
    142 H142        2.2073  -20.0377  -46.2544 H         1 UNK         0.0800 
    143 H143        1.3262  -22.1994  -47.3074 H         1 UNK         0.0600 
    144 H144        0.5347  -20.9826  -44.8922 H         1 UNK         0.3000 
    145 H145       -1.3291  -23.6811  -43.5157 H         1 UNK         0.0600 
    146 H146        0.3689  -23.2896  -41.7239 H         1 UNK         0.0600 
    147 H147        1.0374  -24.2249  -43.0526 H         1 UNK         0.0600 
    148 H148        1.4396  -22.5219  -42.8967 H         1 UNK         0.0600 
    149 H149       -0.5663  -21.0278  -42.6519 H         1 UNK         0.3000 
    150 H150       -3.5750  -19.4199  -43.7285 H         1 UNK         0.0600 
    151 H151       -4.1226  -20.5384  -41.5620 H         1 UNK         0.0600 
    152 H152       -3.6542  -18.8636  -41.3171 H         1 UNK         0.0600 
    153 H153       -2.5181  -20.1607  -40.9463 H         1 UNK         0.0600 
    154 H154       -1.2814  -18.4808  -42.2954 H         1 UNK         0.3000 
    155 H155        0.6212  -17.4812  -45.1410 H         1 UNK         0.0600 
    156 H156       -0.8765  -15.8165  -43.0573 H         1 UNK         0.0600 
    157 H157        0.4171  -15.2688  -44.1247 H         1 UNK         0.0600 
    158 H158       -1.1515  -15.7032  -44.7874 H         1 UNK         0.0600 
    159 H159        1.2949  -16.9672  -42.5312 H         1 UNK         0.3000 
    160 H160        2.2417  -18.5600  -40.9123 H         1 UNK         0.0600 
    161 H161        3.6982  -20.7888  -42.4343 H         1 UNK         0.0600 
    162 H162        2.4305  -21.0088  -41.2323 H         1 UNK         0.0600 
    163 H163        3.9791  -20.3366  -40.7534 H         1 UNK         0.0600 
    164 H164        4.6030  -18.5171  -42.6502 H         1 UNK         0.3000 
    165 H165        5.9223  -16.6208  -42.5895 H         1 UNK         0.0600 
    166 H166        5.6086  -15.2387  -44.6718 H         1 UNK         0.0600 
    167 H167        4.6909  -16.7351  -44.7385 H         1 UNK         0.0600 
    168 H168        3.8680  -15.2209  -44.3951 H         1 UNK         0.0600 
    169 H169        4.6706  -13.9464  -42.4501 H         1 UNK         0.3000 
    170 H170        6.4963  -13.1320  -39.4588 H         1 UNK         0.0600 
    171 H171        6.7515  -12.0968  -42.3318 H         1 UNK         0.0600 
    172 H172        7.2538  -11.2444  -40.8726 H         1 UNK         0.0600 
    173 H173        8.0734  -12.7230  -41.3514 H         1 UNK         0.0600 
    174 H174        4.2105  -12.5018  -41.2684 H         1 UNK         0.3000 
    175 H175        2.4991  -10.9484  -38.6501 H         1 UNK         0.0600 
    176 H176        2.2646   -8.8801  -40.0104 H         1 UNK         0.0600 
    177 H177        3.7184   -9.2887  -40.9232 H         1 UNK         0.0600 
    178 H178        3.8263   -8.9091  -39.2087 H         1 UNK         0.0600 
    179 H179        2.0784  -11.0079  -41.5080 H         1 UNK         0.3000 
    180 H180        1.0143  -14.2679  -41.8402 H         1 UNK         0.0600 
    181 H181       -1.0126  -12.0019  -41.4663 H         1 UNK         0.0600 
    182 H182       -1.0573  -13.5617  -40.6522 H         1 UNK         0.0600 
    183 H183       -1.2838  -13.4761  -42.3917 H         1 UNK         0.0600 
    184 H184        0.3757  -12.2719  -43.6151 H         1 UNK         0.3000 
    185 H185        2.0389  -10.9539  -45.0189 H         1 UNK         0.0600 
    186 H186        3.8943  -11.4778  -46.5815 H         1 UNK         0.0600 
    187 H187        4.5057  -11.2984  -44.9452 H         1 UNK         0.0600 
    188 H188        4.3195  -12.9054  -45.6393 H         1 UNK         0.0600 
    189 H189        2.1176  -13.4300  -46.5506 H         1 UNK         0.3000 
    190 H190       -1.6424  -20.2999  -46.5413 H         1 UNK         0.3000 
    191 H191       -2.8693  -20.5630  -49.0914 H         1 UNK         0.0600 
    192 H192       -3.5918  -18.9207  -47.3623 H         1 UNK         0.0600 
    193 H193       -4.9385  -19.9215  -47.8831 H         1 UNK         0.0600 
    194 H194       -4.1619  -20.2253  -46.3317 H         1 UNK         0.0600 
    195 H195       -3.1161  -22.6081  -46.1319 H         1 UNK         0.3000 
    196 H196       -4.9910  -24.4657  -47.1187 H         1 UNK         0.0600 
    197 H197       -4.2093  -25.8975  -45.2436 H         1 UNK         0.0600 
    198 H198       -4.4251  -24.2356  -44.7176 H         1 UNK         0.0600 
    199 H199       -2.8053  -24.8654  -45.0140 H         1 UNK         0.0600 
    200 H200       -1.4157  -24.4829  -47.3569 H         1 UNK         0.3000 
    201 H201       -1.1178  -26.9809  -48.6672 H         1 UNK         0.0600 
    202 H202        0.7605  -25.7494  -47.6157 H         1 UNK         0.0600 
    203 H203        0.6161  -24.4568  -48.8046 H         1 UNK         0.0600 
    204 H204        1.1176  -26.0666  -49.3065 H         1 UNK         0.0600 
    205 H205       -2.2034  -23.8867  -49.8884 H         1 UNK         0.3000 
    206 H206       -2.1598  -24.7689  -52.7217 H         1 UNK         0.0600 
    207 H207       -2.8866  -22.0815  -51.4465 H         1 UNK         0.0600 
    208 H208       -1.3430  -22.4786  -52.1933 H         1 UNK         0.0600 
    209 H209       -2.7967  -22.4143  -53.1732 H         1 UNK         0.0600 
    210 H210       -3.9364  -25.8436  -50.4165 H         1 UNK         0.3000 
    211 H211       -5.9419  -26.6911  -50.1175 H         1 UNK         0.0600 
    212 H212       -6.3596  -26.2379  -53.1182 H         1 UNK         0.0600 
    213 H213       -7.3117  -27.3075  -52.0972 H         1 UNK         0.0600 
    214 H214       -5.6128  -27.6489  -52.3768 H         1 UNK         0.0600 
    215 H215       -5.6633  -24.0923  -49.3577 H         1 UNK         0.3000 
    216 H216       -6.7369  -22.3724  -48.4868 H         1 UNK         0.0600 
    217 H217       -9.1610  -22.2356  -48.2568 H         1 UNK         0.0600 
    218 H218       -8.6574  -23.8845  -47.9221 H         1 UNK         0.0600 
    219 H219       -9.4158  -23.4842  -49.4633 H         1 UNK         0.0600 
    220 H220       -5.4232  -22.2150  -50.7940 H         1 UNK         0.3000 
    221 H221       -4.8980  -20.9930  -52.5456 H         1 UNK         0.0600 
    222 H222       -6.9598  -18.9489  -51.5660 H         1 UNK         0.0600 
    223 H223       -5.5709  -18.6268  -52.5937 H         1 UNK         0.0600 
    224 H224       -5.3289  -19.1094  -50.9220 H         1 UNK         0.0600 
    225 H225       -6.6938  -23.0355  -53.1214 H         1 UNK         0.3000 
    226 H226       -8.7432  -22.0401  -55.0065 H         1 UNK         0.0600 
    227 H227       -9.3576  -23.8660  -53.4738 H         1 UNK         0.0600 
    228 H228       -9.3526  -24.4529  -55.1304 H         1 UNK         0.0600 
    229 H229       -8.0217  -24.8562  -54.0528 H         1 UNK         0.0600 
    230 H230       -7.2872  -21.0639  -56.4648 H         1 UNK         0.3000 
    231 H231       -6.3436  -20.8084  -58.4199 H         1 UNK         0.0600 
    232 H232       -6.7423  -23.7996  -58.9394 H         1 UNK         0.0600 
    233 H233       -6.3950  -22.5707  -60.1447 H         1 UNK         0.0600 
    234 H234       -7.9195  -22.5298  -59.2734 H         1 UNK         0.0600 
    235 H235       -4.9442  -23.5104  -56.6370 H         1 UNK         0.3000 
    236 H236       -2.3918  -23.6446  -57.8187 H         1 UNK         0.0600 
    237 H237       -3.2977  -25.3772  -56.3099 H         1 UNK         0.0600 
    238 H238       -1.7754  -24.7890  -55.6578 H         1 UNK         0.0600 
    239 H239       -3.2977  -24.2507  -54.9570 H         1 UNK         0.0600 
    240 H240       -3.6590  -21.1492  -55.8494 H         1 UNK         0.3000 
    241 H241       -1.1630  -20.0228  -54.9250 H         1 UNK         0.0600 
    242 H242       -2.6350  -20.0469  -58.1261 H         1 UNK         0.3800 
    243 H243       -1.6718  -18.7282  -58.7401 H         1 UNK         0.3800 
    244 H244       -3.6913  -18.3570  -55.2035 H         1 UNK         0.0800 
    245 H245       -3.6942  -19.6554  -54.0608 H         1 UNK         0.0800 
    246 H246       -3.0663  -19.4748  -51.7322 H         1 UNK         0.0800 
    247 H247       -1.4784  -19.9660  -52.2722 H         1 UNK         0.0800 
@<TRIPOS>BOND
     1    1    2 1    
     2    1  127 1    
     3    1  128 1    
     4    1  129 1    
     5    2    3 2    
     6    2    4 am   BACKBONE|DICT|INTERRES
     7    4    5 1    
     8    4  130 1    
     9    5    6 1    
    10    5   65 1    
    11    5  131 1    
    12    6    7 1    
    13    6  132 1    
    14    6  133 1    
    15    7    8 1    
    16    8    9 1    
    17    8  134 1    
    18    8  135 1    
    19    9   10 ar   
    20    9   14 ar   
    21   10   11 ar   
    22   10  136 1    
    23   11   12 ar   
    24   11  126 1    
    25   12   13 ar   
    26   12  137 1    
    27   13   14 ar   
    28   13   15 1    
    29   14  138 1    
    30   15   16 1    
    31   15  139 1    
    32   15  140 1    
    33   16   17 1    
    34   17   18 1    
    35   17  141 1    
    36   17  142 1    
    37   18   19 1    
    38   18   67 1    
    39   18  143 1    
    40   19   20 am   BACKBONE|DICT|INTERRES
    41   19  144 1    
    42   20   21 2    
    43   20   22 1    
    44   22   23 1    
    45   22   24 1    
    46   22  145 1    
    47   23  146 1    
    48   23  147 1    
    49   23  148 1    
    50   24   25 am   BACKBONE|DICT|INTERRES
    51   24  149 1    
    52   25   26 2    
    53   25   27 1    
    54   27   28 1    
    55   27   29 1    
    56   27  150 1    
    57   28  151 1    
    58   28  152 1    
    59   28  153 1    
    60   29   30 am   BACKBONE|DICT|INTERRES
    61   29  154 1    
    62   30   31 2    
    63   30   32 1    
    64   32   33 1    
    65   32   34 1    
    66   32  155 1    
    67   33  156 1    
    68   33  157 1    
    69   33  158 1    
    70   34   35 am   BACKBONE|DICT|INTERRES
    71   34  159 1    
    72   35   36 2    
    73   35   37 1    
    74   37   38 1    
    75   37   39 1    
    76   37  160 1    
    77   38  161 1    
    78   38  162 1    
    79   38  163 1    
    80   39   40 am   BACKBONE|DICT|INTERRES
    81   39  164 1    
    82   40   41 2    
    83   40   42 1    
    84   42   43 1    
    85   42   44 1    
    86   42  165 1    
    87   43  166 1    
    88   43  167 1    
    89   43  168 1    
    90   44   45 am   BACKBONE|DICT|INTERRES
    91   44  169 1    
    92   45   46 2    
    93   45   47 1    
    94   47   48 1    
    95   47   49 1    
    96   47  170 1    
    97   48  171 1    
    98   48  172 1    
    99   48  173 1    
   100   49   50 am   BACKBONE|DICT|INTERRES
   101   49  174 1    
   102   50   51 2    
   103   50   52 1    
   104   52   53 1    
   105   52   54 1    
   106   52  175 1    
   107   53  176 1    
   108   53  177 1    
   109   53  178 1    
   110   54   55 am   BACKBONE|DICT|INTERRES
   111   54  179 1    
   112   55   56 2    
   113   55   57 1    
   114   57   58 1    
   115   57   59 1    
   116   57  180 1    
   117   58  181 1    
   118   58  182 1    
   119   58  183 1    
   120   59   60 am   BACKBONE|DICT|INTERRES
   121   59  184 1    
   122   60   61 2    
   123   60   62 1    
   124   62   63 1    
   125   62   64 1    
   126   62  185 1    
   127   63  186 1    
   128   63  187 1    
   129   63  188 1    
   130   64   65 am   BACKBONE|DICT|INTERRES
   131   64  189 1    
   132   65   66 2    
   133   67   68 2    
   134   67   69 am   BACKBONE|DICT|INTERRES
   135   69   70 1    
   136   69  190 1    
   137   70   71 1    
   138   70   72 1    
   139   70  191 1    
   140   71  192 1    
   141   71  193 1    
   142   71  194 1    
   143   72   73 2    
   144   72   74 am   BACKBONE|DICT|INTERRES
   145   74   75 1    
   146   74  195 1    
   147   75   76 1    
   148   75   77 1    
   149   75  196 1    
   150   76  197 1    
   151   76  198 1    
   152   76  199 1    
   153   77   78 2    
   154   77   79 am   BACKBONE|DICT|INTERRES
   155   79   80 1    
   156   79  200 1    
   157   80   81 1    
   158   80   82 1    
   159   80  201 1    
   160   81  202 1    
   161   81  203 1    
   162   81  204 1    
   163   82   83 2    
   164   82   84 am   BACKBONE|DICT|INTERRES
   165   84   85 1    
   166   84  205 1    
   167   85   86 1    
   168   85   87 1    
   169   85  206 1    
   170   86  207 1    
   171   86  208 1    
   172   86  209 1    
   173   87   88 2    
   174   87   89 am   BACKBONE|DICT|INTERRES
   175   89   90 1    
   176   89  210 1    
   177   90   91 1    
   178   90   92 1    
   179   90  211 1    
   180   91  212 1    
   181   91  213 1    
   182   91  214 1    
   183   92   93 2    
   184   92   94 am   BACKBONE|DICT|INTERRES
   185   94   95 1    
   186   94  215 1    
   187   95   96 1    
   188   95   97 1    
   189   95  216 1    
   190   96  217 1    
   191   96  218 1    
   192   96  219 1    
   193   97   98 2    
   194   97   99 am   BACKBONE|DICT|INTERRES
   195   99  100 1    
   196   99  220 1    
   197  100  101 1    
   198  100  102 1    
   199  100  221 1    
   200  101  222 1    
   201  101  223 1    
   202  101  224 1    
   203  102  103 2    
   204  102  104 am   BACKBONE|DICT|INTERRES
   205  104  105 1    
   206  104  225 1    
   207  105  106 1    
   208  105  107 1    
   209  105  226 1    
   210  106  227 1    
   211  106  228 1    
   212  106  229 1    
   213  107  108 2    
   214  107  109 am   BACKBONE|DICT|INTERRES
   215  109  110 1    
   216  109  230 1    
   217  110  111 1    
   218  110  112 1    
   219  110  231 1    
   220  111  232 1    
   221  111  233 1    
   222  111  234 1    
   223  112  113 2    
   224  112  114 am   BACKBONE|DICT|INTERRES
   225  114  115 1    
   226  114  235 1    
   227  115  116 1    
   228  115  117 1    
   229  115  236 1    
   230  116  237 1    
   231  116  238 1    
   232  116  239 1    
   233  117  118 2    
   234  117  119 am   BACKBONE|DICT|INTERRES
   235  119  120 1    
   236  119  240 1    
   237  120  121 1    
   238  120  124 1    
   239  120  241 1    
   240  121  122 am   BACKBONE|DICT|INTERRES
   241  121  123 2    
   242  122  242 1    
   243  122  243 1    
   244  124  125 1    
   245  124  244 1    
   246  124  245 1    
   247  125  126 1    
   248  126  246 1    
   249  126  247 1    
@<TRIPOS>SUBSTRUCTURE
     1 UNK         1 GROUP             0       ****    0 ROOT    
