@<TRIPOS>MOLECULE
3R540
247   249    1
SMALL
USER_CHARGES


@<TRIPOS>ATOM
      1 CA         -6.9899  -17.3959  -43.1272 C.3       0 UNK        -0.1800 
      2 C          -6.0023  -16.2430  -43.0214 C.2       0 UNK         0.5000 
      3 O          -5.5721  -15.8971  -41.9217 O.2       0 UNK        -0.5000 
      4 N          -5.6109  -15.6663  -44.1623 N.am      1 UNK        -0.5000 
      5 CA         -4.6515  -14.5627  -44.3282 C.3       1 UNK         0.1400 
      6 C6         -4.9336  -13.7476  -45.6282 C.3       23 UNK        -0.0398 
      7 S7         -5.4540  -14.7482  -47.0754 S.3       23 UNK        -0.2404 
      8 C8         -4.7484  -13.8393  -48.4839 C.3       23 UNK        -0.0205 
      9 C9         -3.5812  -14.5888  -49.1074 C.ar      23 UNK        -0.0193 
     10 C10        -3.7552  -15.3224  -50.2860 C.ar      23 UNK        -0.1150 
     11 C11        -2.6722  -15.9788  -50.8798 C.ar      23 UNK        -0.0193 
     12 C12        -1.4105  -15.8968  -50.2852 C.ar      23 UNK        -0.1150 
     13 C13        -1.2272  -15.1773  -49.1016 C.ar      23 UNK        -0.0193 
     14 C14        -2.3179  -14.5287  -48.5167 C.ar      23 UNK        -0.1150 
     15 C15         0.1499  -15.0962  -48.4609 C.3       23 UNK        -0.0205 
     16 S16         0.6987  -16.6940  -47.7871 S.3       23 UNK        -0.2404 
     17 C17        -0.6330  -17.0932  -46.6055 C.3       23 UNK        -0.0398 
     18 CA         -1.6079  -18.1460  -47.1771 C.3       11 UNK         0.1400 
     19 N          -0.9192  -19.4008  -47.4884 N.am      11 UNK        -0.5000 
     20 C          -1.4424  -20.3942  -48.2125 C.2       10 UNK         0.5000 
     21 O          -2.5815  -20.3749  -48.6694 O.2       10 UNK        -0.5000 
     22 CA         -0.5774  -21.6484  -48.3895 C.3       10 UNK         0.1400 
     23 CB          0.4919  -21.4457  -49.4738 C.3       10 UNK        -0.1800 
     24 N           0.0474  -22.0355  -47.1270 N.am      10 UNK        -0.5000 
     25 C          -0.6240  -22.5558  -46.0902 C.2       9 UNK         0.5000 
     26 O          -1.8273  -22.8194  -46.1181 O.2       9 UNK        -0.5000 
     27 CA          0.1769  -22.7804  -44.7940 C.3       9 UNK         0.1400 
     28 CB          0.9241  -24.1208  -44.8469 C.3       9 UNK        -0.1800 
     29 N           1.1272  -21.6992  -44.5140 N.am      9 UNK        -0.5000 
     30 C           0.7636  -20.4494  -44.1935 C.2       8 UNK         0.5000 
     31 O          -0.4054  -20.0860  -44.0966 O.2       8 UNK        -0.5000 
     32 CA          1.8791  -19.4129  -43.9812 C.3       8 UNK         0.1400 
     33 CB          2.3956  -19.4588  -42.5363 C.3       8 UNK        -0.1800 
     34 N           3.0101  -19.5053  -44.9052 N.am      8 UNK        -0.5000 
     35 C           2.9428  -19.5077  -46.2425 C.2       7 UNK         0.5000 
     36 O           1.8939  -19.6592  -46.8691 O.2       7 UNK        -0.5000 
     37 CA          4.2699  -19.2689  -46.9954 C.3       7 UNK         0.1400 
     38 CB          4.0727  -19.1883  -48.5207 C.3       7 UNK        -0.1800 
     39 N           4.9372  -18.0429  -46.5444 N.am      7 UNK        -0.5000 
     40 C           5.6446  -17.9047  -45.4141 C.2       6 UNK         0.5000 
     41 O           5.8364  -18.8281  -44.6213 O.2       6 UNK        -0.5000 
     42 CA          6.2169  -16.5086  -45.0975 C.3       6 UNK         0.1400 
     43 CB          7.6977  -16.4348  -45.5008 C.3       6 UNK        -0.1800 
     44 N           5.4949  -15.4045  -45.7371 N.am      6 UNK        -0.5000 
     45 C           4.2576  -15.0063  -45.4123 C.2       5 UNK         0.5000 
     46 O           3.5680  -15.5480  -44.5463 O.2       5 UNK        -0.5000 
     47 CA          3.7118  -13.7993  -46.1905 C.3       5 UNK         0.1400 
     48 CB          3.5787  -14.1100  -47.6943 C.3       5 UNK        -0.1800 
     49 N           2.4245  -13.3900  -45.6295 N.am      5 UNK        -0.5000 
     50 C           1.8958  -12.1652  -45.7440 C.2       4 UNK         0.5000 
     51 O           2.4134  -11.2673  -46.4103 O.2       4 UNK        -0.5000 
     52 CA          0.5838  -11.8617  -44.9898 C.3       4 UNK         0.1400 
     53 CB         -0.6098  -11.8102  -45.9525 C.3       4 UNK        -0.1800 
     54 N           0.2724  -12.7825  -43.8937 N.am      4 UNK        -0.5000 
     55 C           0.9289  -12.8082  -42.7249 C.2       3 UNK         0.5000 
     56 O           1.9236  -12.1189  -42.4949 O.2       3 UNK        -0.5000 
     57 CA          0.3764  -13.7121  -41.6043 C.3       3 UNK         0.1400 
     58 CB         -0.1714  -12.8598  -40.4478 C.3       3 UNK        -0.1800 
     59 N          -0.6777  -14.6309  -42.0361 N.am      3 UNK        -0.5000 
     60 C          -0.4648  -15.7764  -42.6939 C.2       2 UNK         0.5000 
     61 O           0.6418  -16.1512  -43.0743 O.2       2 UNK        -0.5000 
     62 CA         -1.6955  -16.6608  -42.9566 C.3       2 UNK         0.1400 
     63 CB         -1.9219  -17.5990  -41.7621 C.3       2 UNK        -0.1800 
     64 N          -2.9406  -15.9353  -43.2156 N.am      2 UNK        -0.5000 
     65 C          -3.1773  -15.0181  -44.1644 C.2       1 UNK         0.5000 
     66 O          -2.2904  -14.5319  -44.8659 O.2       1 UNK        -0.5000 
     67 C          -2.8493  -18.3550  -46.2772 C.2       11 UNK         0.5000 
     68 O          -3.8385  -17.6430  -46.4338 O.2       11 UNK        -0.5000 
     69 N          -2.8137  -19.3639  -45.3945 N.am      12 UNK        -0.5000 
     70 CA         -3.9621  -19.8394  -44.6171 C.3       12 UNK         0.1400 
     71 CB         -3.4572  -20.7362  -43.4741 C.3       12 UNK        -0.1800 
     72 C          -4.9874  -20.6301  -45.4561 C.2       12 UNK         0.5000 
     73 O          -6.1031  -20.8480  -44.9828 O.2       12 UNK        -0.5000 
     74 N          -4.5808  -21.0775  -46.6540 N.am      13 UNK        -0.5000 
     75 CA         -5.2885  -21.9746  -47.5701 C.3       13 UNK         0.1400 
     76 CB         -6.5654  -21.3105  -48.1242 C.3       13 UNK        -0.1800 
     77 C          -5.5418  -23.3690  -46.9616 C.2       13 UNK         0.5000 
     78 O          -6.5728  -23.9849  -47.2425 O.2       13 UNK        -0.5000 
     79 N          -4.5901  -23.8540  -46.1492 N.am      14 UNK        -0.5000 
     80 CA         -4.6331  -25.1589  -45.4897 C.3       14 UNK         0.1400 
     81 CB         -3.4446  -25.2803  -44.5226 C.3       14 UNK        -0.1800 
     82 C          -4.6211  -26.2875  -46.5333 C.2       14 UNK         0.5000 
     83 O          -3.6617  -26.3903  -47.2972 O.2       14 UNK        -0.5000 
     84 N          -5.7169  -27.0565  -46.5988 N.am      15 UNK        -0.5000 
     85 CA         -5.9975  -28.0889  -47.6072 C.3       15 UNK         0.1400 
     86 CB         -5.0520  -29.2956  -47.4280 C.3       15 UNK        -0.1800 
     87 C          -6.0071  -27.5439  -49.0564 C.2       15 UNK         0.5000 
     88 O          -5.6647  -28.2722  -49.9892 O.2       15 UNK        -0.5000 
     89 N          -6.3918  -26.2659  -49.2100 N.am      16 UNK        -0.5000 
     90 CA         -6.4345  -25.4892  -50.4538 C.3       16 UNK         0.1400 
     91 CB         -7.4588  -26.0787  -51.4461 C.3       16 UNK        -0.1800 
     92 C          -5.0451  -25.2531  -51.0877 C.2       16 UNK         0.5000 
     93 O          -4.9451  -25.0901  -52.3049 O.2       16 UNK        -0.5000 
     94 N          -3.9944  -25.1938  -50.2543 N.am      17 UNK        -0.5000 
     95 CA         -2.6002  -24.9751  -50.6605 C.3       17 UNK         0.1400 
     96 CB         -1.6748  -25.2830  -49.4722 C.3       17 UNK        -0.1800 
     97 C          -2.2903  -23.5774  -51.2384 C.2       17 UNK         0.5000 
     98 O          -1.1726  -23.3647  -51.7061 O.2       17 UNK        -0.5000 
     99 N          -3.2612  -22.6514  -51.2184 N.am      18 UNK        -0.5000 
    100 CA        -3.1555  -21.2736  -51.7161 C.3       18 UNK         0.1400 
    101 CB        -4.4959  -20.5547  -51.5068 C.3       18 UNK        -0.1800 
    102 C         -2.6970  -21.1440  -53.1785 C.2       18 UNK         0.5000 
    103 O         -2.0625  -20.1463  -53.5214 O.2       18 UNK        -0.5000 
    104 N         -2.9574  -22.1748  -53.9933 N.am      19 UNK        -0.5000 
    105 CA        -2.4697  -22.3119  -55.3665 C.3       19 UNK         0.1400 
    106 CB        -3.0770  -23.5811  -55.9822 C.3       19 UNK        -0.1800 
    107 C         -0.9306  -22.3356  -55.4912 C.2       19 UNK         0.5000 
    108 O         -0.4133  -21.9868  -56.5520 O.2       19 UNK        -0.5000 
    109 N         -0.2179  -22.7116  -54.4185 N.am      20 UNK        -0.5000 
    110 CA         1.2444  -22.6785  -54.3587 C.3       20 UNK         0.1400 
    111 CB         1.7260  -23.5693  -53.2029 C.3       20 UNK        -0.1800 
    112 C          1.8078  -21.2519  -54.2029 C.2       20 UNK         0.5000 
    113 O          2.9517  -21.0172  -54.5946 O.2       20 UNK        -0.5000 
    114 N          1.0129  -20.3355  -53.6323 N.am      21 UNK        -0.5000 
    115 CA         1.4005  -18.9489  -53.3737 C.3       21 UNK         0.1400 
    116 CB         0.9823  -18.5644  -51.9454 C.3       21 UNK        -0.1800 
    117 C          0.7908  -17.9855  -54.4054 C.2       21 UNK         0.5000 
    118 O          1.5031  -17.1190  -54.9141 O.2       21 UNK        -0.5000 
    119 N         -0.5037  -18.1548  -54.6992 N.am      22 UNK        -0.5000 
    120 CA        -1.2846  -17.3098  -55.6191 C.3       22 UNK         0.1400 
    121 C         -1.4791  -17.9288  -57.0336 C.2       22 UNK         0.5000 
    122 N         -0.9602  -19.1125  -57.3304 N.am      22 UNK        -0.7600 
    123 O         -2.0980  -17.3108  -57.8958 O.2       22 UNK        -0.5000 
    124 C124       -2.6422  -16.9016  -54.9880 C.3       23 UNK        -0.0398 
    125 S125       -2.4280  -15.7302  -53.6057 S.3       23 UNK        -0.2404 
    126 C126       -2.8550  -16.7604  -52.1712 C.3       23 UNK        -0.0205 
    127 H127       -7.9223  -17.1390  -42.6248 H         1 UNK         0.0600 
    128 H128       -6.5793  -18.2874  -42.6529 H         1 UNK         0.0600 
    129 H129       -7.2168  -17.6403  -44.1655 H         1 UNK         0.0600 
    130 H130       -5.9569  -16.0313  -45.0402 H         1 UNK         0.3000 
    131 H131       -4.8118  -13.8719  -43.4978 H         1 UNK         0.0600 
    132 H132       -4.0901  -13.1085  -45.8931 H         1 UNK         0.0800 
    133 H133       -5.7533  -13.0565  -45.4285 H         1 UNK         0.0800 
    134 H134       -4.4316  -12.8404  -48.1817 H         1 UNK         0.0800 
    135 H135       -5.5344  -13.6900  -49.2257 H         1 UNK         0.0800 
    136 H136       -4.7309  -15.3727  -50.7485 H         1 UNK         0.1150 
    137 H137       -0.5684  -16.3945  -50.7419 H         1 UNK         0.1150 
    138 H138       -2.1936  -13.9763  -47.5983 H         1 UNK         0.1150 
    139 H139        0.8702  -14.7626  -49.2088 H         1 UNK         0.0800 
    140 H140        0.1724  -14.3534  -47.6647 H         1 UNK         0.0800 
    141 H141       -1.1604  -16.1776  -46.3473 H         1 UNK         0.0800 
    142 H142       -0.1677  -17.4570  -45.6898 H         1 UNK         0.0800 
    143 H143       -1.9928  -17.7579  -48.1221 H         1 UNK         0.0600 
    144 H144        0.0471  -19.4787  -47.1783 H         1 UNK         0.3000 
    145 H145       -1.2331  -22.4574  -48.7108 H         1 UNK         0.0600 
    146 H146        1.0665  -22.3578  -49.6349 H         1 UNK         0.0600 
    147 H147        0.0335  -21.1814  -50.4273 H         1 UNK         0.0600 
    148 H148        1.1886  -20.6490  -49.2153 H         1 UNK         0.0600 
    149 H149        1.0082  -21.7512  -46.9925 H         1 UNK         0.3000 
    150 H150       -0.5387  -22.8240  -43.9699 H         1 UNK         0.0600 
    151 H151        0.2345  -24.9440  -45.0391 H         1 UNK         0.0600 
    152 H152        1.4238  -24.3310  -43.9011 H         1 UNK         0.0600 
    153 H153        1.6774  -24.1325  -45.6355 H         1 UNK         0.0600 
    154 H154        2.1107  -21.9139  -44.5887 H         1 UNK         0.3000 
    155 H155        1.4324  -18.4314  -44.1434 H         1 UNK         0.0600 
    156 H156        2.9125  -20.3950  -42.3227 H         1 UNK         0.0600 
    157 H157        1.5743  -19.3635  -41.8246 H         1 UNK         0.0600 
    158 H158        3.0874  -18.6389  -42.3413 H         1 UNK         0.0600 
    159 H159        3.9313  -19.3780  -44.4993 H         1 UNK         0.3000 
    160 H160        4.9188  -20.1219  -46.7871 H         1 UNK         0.0600 
    161 H161        3.4084  -18.3684  -48.7982 H         1 UNK         0.0600 
    162 H162        3.6365  -20.1096  -48.9083 H         1 UNK         0.0600 
    163 H163        5.0223  -19.0403  -49.0351 H         1 UNK         0.0600 
    164 H164        4.7962  -17.2231  -47.1153 H         1 UNK         0.3000 
    165 H165        6.1526  -16.3709  -44.0160 H         1 UNK         0.0600 
    166 H166        8.1414  -15.4846  -45.2032 H         1 UNK         0.0600 
    167 H167        8.2744  -17.2254  -45.0185 H         1 UNK         0.0600 
    168 H168        7.8275  -16.5448  -46.5782 H         1 UNK         0.0600 
    169 H169        5.9954  -14.9040  -46.4575 H         1 UNK         0.3000 
    170 H170        4.4221  -12.9805  -46.0573 H         1 UNK         0.0600 
    171 H171        4.5577  -14.2391  -48.1561 H         1 UNK         0.0600 
    172 H172        3.0198  -15.0278  -47.8647 H         1 UNK         0.0600 
    173 H173        3.0770  -13.3058  -48.2322 H         1 UNK         0.0600 
    174 H174        1.9914  -14.0742  -45.0203 H         1 UNK         0.3000 
    175 H175        0.6977  -10.8637  -44.5609 H         1 UNK         0.0600 
    176 H176       -0.8258  -12.7946  -46.3577 H         1 UNK         0.0600 
    177 H177       -1.5086  -11.4534  -45.4492 H         1 UNK         0.0600 
    178 H178       -0.4169  -11.1402  -46.7913 H         1 UNK         0.0600 
    179 H179       -0.5261  -13.3924  -44.0232 H         1 UNK         0.3000 
    180 H180        1.2147  -14.2995  -41.2235 H         1 UNK         0.0600 
    181 H181       -0.5026  -13.4854  -39.6186 H         1 UNK         0.0600 
    182 H182       -1.0157  -12.2467  -40.7654 H         1 UNK         0.0600 
    183 H183        0.5939  -12.1874  -40.0577 H         1 UNK         0.0600 
    184 H184       -1.6240  -14.3951  -41.7753 H         1 UNK         0.3000 
    185 H185       -1.4896  -17.2748  -43.8316 H         1 UNK         0.0600 
    186 H186       -1.0891  -18.2950  -41.6511 H         1 UNK         0.0600 
    187 H187       -2.0181  -17.0453  -40.8272 H         1 UNK         0.0600 
    188 H188       -2.8294  -18.1880  -41.8856 H         1 UNK         0.0600 
    189 H189       -3.7361  -16.1995  -42.6448 H         1 UNK         0.3000 
    190 H190       -1.9360  -19.8513  -45.2382 H         1 UNK         0.3000 
    191 H191       -4.4703  -18.9754  -44.1848 H         1 UNK         0.0600 
    192 H192       -4.2791  -21.0487  -42.8288 H         1 UNK         0.0600 
    193 H193       -2.7317  -20.2239  -42.8461 H         1 UNK         0.0600 
    194 H194       -2.9797  -21.6394  -43.8557 H         1 UNK         0.0600 
    195 H195       -3.6559  -20.8070  -46.9673 H         1 UNK         0.3000 
    196 H196       -4.6140  -22.1379  -48.4111 H         1 UNK         0.0600 
    197 H197       -7.3307  -21.1989  -47.3558 H         1 UNK         0.0600 
    198 H198       -6.3513  -20.3214  -48.5290 H         1 UNK         0.0600 
    199 H199       -6.9966  -21.9050  -48.9304 H         1 UNK         0.0600 
    200 H200       -3.7270  -23.3287  -46.0403 H         1 UNK         0.3000 
    201 H201       -5.5549  -25.2127  -44.9071 H         1 UNK         0.0600 
    202 H202       -2.4904  -25.2484  -45.0499 H         1 UNK         0.0600 
    203 H203       -3.4841  -26.2222  -43.9744 H         1 UNK         0.0600 
    204 H204       -3.4478  -24.4739  -43.7890 H         1 UNK         0.0600 
    205 H205       -6.4701  -26.8705  -45.9507 H         1 UNK         0.3000 
    206 H206       -7.0130  -28.4366  -47.4128 H         1 UNK         0.0600 
    207 H207       -5.0701  -29.6616  -46.4015 H         1 UNK         0.0600 
    208 H208       -5.3486  -30.1248  -48.0712 H         1 UNK         0.0600 
    209 H209       -4.0207  -29.0431  -47.6761 H         1 UNK         0.0600 
    210 H210       -6.6266  -25.7395  -48.3743 H         1 UNK         0.3000 
    211 H211       -6.7970  -24.5005  -50.1688 H         1 UNK         0.0600 
    212 H212       -7.6133  -25.4087  -52.2927 H         1 UNK         0.0600 
    213 H213       -8.4287  -26.2260  -50.9710 H         1 UNK         0.0600 
    214 H214       -7.1316  -27.0381  -51.8473 H         1 UNK         0.0600 
    215 H215       -4.1406  -25.3987  -49.2734 H         1 UNK         0.3000 
    216 H216       -2.3712  -25.6899  -51.4533 H         1 UNK         0.0600 
    217 H217       -1.9326  -24.6888  -48.5950 H         1 UNK         0.0600 
    218 H218       -0.6301  -25.0805  -49.7124 H         1 UNK         0.0600 
    219 H219       -1.7384  -26.3343  -49.1918 H         1 UNK         0.0600 
    220 H220       -4.1549  -22.9216  -50.8397 H         1 UNK         0.3000 
    221 H221       -2.3935  -20.7669  -51.1257 H         1 UNK         0.0600 
    222 H222       -4.7516  -20.5023  -50.4491 H         1 UNK         0.0600 
    223 H223       -5.3101  -21.0596  -52.0280 H         1 UNK         0.0600 
    224 H224       -4.4533  -19.5296  -51.8763 H         1 UNK         0.0600 
    225 H225       -3.4741  -22.9576  -53.6177 H         1 UNK         0.3000 
    226 H226       -2.8272  -21.4490  -55.9321 H         1 UNK         0.0600 
    227 H227       -2.7762  -24.4758  -55.4353 H         1 UNK         0.0600 
    228 H228       -4.1663  -23.5378  -55.9821 H         1 UNK         0.0600 
    229 H229       -2.7580  -23.7054  -57.0179 H         1 UNK         0.0600 
    230 H230       -0.6970  -22.9774  -53.5626 H         1 UNK         0.3000 
    231 H231        1.6382  -23.0926  -55.2893 H         1 UNK         0.0600 
    232 H232        1.4236  -23.1708  -52.2338 H         1 UNK         0.0600 
    233 H233        2.8139  -23.6452  -53.1980 H         1 UNK         0.0600 
    234 H234        1.3289  -24.5808  -53.2891 H         1 UNK         0.0600 
    235 H235        0.0669  -20.5972  -53.3883 H         1 UNK         0.3000 
    236 H236        2.4859  -18.8429  -53.4313 H         1 UNK         0.0600 
    237 H237        1.5117  -19.1676  -51.2084 H         1 UNK         0.0600 
    238 H238        1.2240  -17.5216  -51.7375 H         1 UNK         0.0600 
    239 H239       -0.0871  -18.6997  -51.7822 H         1 UNK         0.0600 
    240 H240       -1.0278  -18.8987  -54.2427 H         1 UNK         0.3000 
    241 H241       -0.7320  -16.3872  -55.8057 H         1 UNK         0.0600 
    242 H242       -1.0911  -19.4890  -58.2558 H         1 UNK         0.3800 
    243 H243       -0.4486  -19.6507  -56.6483 H         1 UNK         0.3800 
    244 H244       -3.1964  -17.7823  -54.6591 H         1 UNK         0.0800 
    245 H245       -3.2789  -16.4012  -55.7196 H         1 UNK         0.0800 
    246 H246       -2.2294  -17.6536  -52.1596 H         1 UNK         0.0800 
    247 H247       -3.8863  -17.1034  -52.2641 H         1 UNK         0.0800 
@<TRIPOS>BOND
     1    1    2 1    
     2    1  127 1    
     3    1  128 1    
     4    1  129 1    
     5    2    3 2    
     6    2    4 am   BACKBONE|DICT|INTERRES
     7    4    5 1    
     8    4  130 1    
     9    5    6 1    
    10    5   65 1    
    11    5  131 1    
    12    6    7 1    
    13    6  132 1    
    14    6  133 1    
    15    7    8 1    
    16    8    9 1    
    17    8  134 1    
    18    8  135 1    
    19    9   10 ar   
    20    9   14 ar   
    21   10   11 ar   
    22   10  136 1    
    23   11   12 ar   
    24   11  126 1    
    25   12   13 ar   
    26   12  137 1    
    27   13   14 ar   
    28   13   15 1    
    29   14  138 1    
    30   15   16 1    
    31   15  139 1    
    32   15  140 1    
    33   16   17 1    
    34   17   18 1    
    35   17  141 1    
    36   17  142 1    
    37   18   19 1    
    38   18   67 1    
    39   18  143 1    
    40   19   20 am   BACKBONE|DICT|INTERRES
    41   19  144 1    
    42   20   21 2    
    43   20   22 1    
    44   22   23 1    
    45   22   24 1    
    46   22  145 1    
    47   23  146 1    
    48   23  147 1    
    49   23  148 1    
    50   24   25 am   BACKBONE|DICT|INTERRES
    51   24  149 1    
    52   25   26 2    
    53   25   27 1    
    54   27   28 1    
    55   27   29 1    
    56   27  150 1    
    57   28  151 1    
    58   28  152 1    
    59   28  153 1    
    60   29   30 am   BACKBONE|DICT|INTERRES
    61   29  154 1    
    62   30   31 2    
    63   30   32 1    
    64   32   33 1    
    65   32   34 1    
    66   32  155 1    
    67   33  156 1    
    68   33  157 1    
    69   33  158 1    
    70   34   35 am   BACKBONE|DICT|INTERRES
    71   34  159 1    
    72   35   36 2    
    73   35   37 1    
    74   37   38 1    
    75   37   39 1    
    76   37  160 1    
    77   38  161 1    
    78   38  162 1    
    79   38  163 1    
    80   39   40 am   BACKBONE|DICT|INTERRES
    81   39  164 1    
    82   40   41 2    
    83   40   42 1    
    84   42   43 1    
    85   42   44 1    
    86   42  165 1    
    87   43  166 1    
    88   43  167 1    
    89   43  168 1    
    90   44   45 am   BACKBONE|DICT|INTERRES
    91   44  169 1    
    92   45   46 2    
    93   45   47 1    
    94   47   48 1    
    95   47   49 1    
    96   47  170 1    
    97   48  171 1    
    98   48  172 1    
    99   48  173 1    
   100   49   50 am   BACKBONE|DICT|INTERRES
   101   49  174 1    
   102   50   51 2    
   103   50   52 1    
   104   52   53 1    
   105   52   54 1    
   106   52  175 1    
   107   53  176 1    
   108   53  177 1    
   109   53  178 1    
   110   54   55 am   BACKBONE|DICT|INTERRES
   111   54  179 1    
   112   55   56 2    
   113   55   57 1    
   114   57   58 1    
   115   57   59 1    
   116   57  180 1    
   117   58  181 1    
   118   58  182 1    
   119   58  183 1    
   120   59   60 am   BACKBONE|DICT|INTERRES
   121   59  184 1    
   122   60   61 2    
   123   60   62 1    
   124   62   63 1    
   125   62   64 1    
   126   62  185 1    
   127   63  186 1    
   128   63  187 1    
   129   63  188 1    
   130   64   65 am   BACKBONE|DICT|INTERRES
   131   64  189 1    
   132   65   66 2    
   133   67   68 2    
   134   67   69 am   BACKBONE|DICT|INTERRES
   135   69   70 1    
   136   69  190 1    
   137   70   71 1    
   138   70   72 1    
   139   70  191 1    
   140   71  192 1    
   141   71  193 1    
   142   71  194 1    
   143   72   73 2    
   144   72   74 am   BACKBONE|DICT|INTERRES
   145   74   75 1    
   146   74  195 1    
   147   75   76 1    
   148   75   77 1    
   149   75  196 1    
   150   76  197 1    
   151   76  198 1    
   152   76  199 1    
   153   77   78 2    
   154   77   79 am   BACKBONE|DICT|INTERRES
   155   79   80 1    
   156   79  200 1    
   157   80   81 1    
   158   80   82 1    
   159   80  201 1    
   160   81  202 1    
   161   81  203 1    
   162   81  204 1    
   163   82   83 2    
   164   82   84 am   BACKBONE|DICT|INTERRES
   165   84   85 1    
   166   84  205 1    
   167   85   86 1    
   168   85   87 1    
   169   85  206 1    
   170   86  207 1    
   171   86  208 1    
   172   86  209 1    
   173   87   88 2    
   174   87   89 am   BACKBONE|DICT|INTERRES
   175   89   90 1    
   176   89  210 1    
   177   90   91 1    
   178   90   92 1    
   179   90  211 1    
   180   91  212 1    
   181   91  213 1    
   182   91  214 1    
   183   92   93 2    
   184   92   94 am   BACKBONE|DICT|INTERRES
   185   94   95 1    
   186   94  215 1    
   187   95   96 1    
   188   95   97 1    
   189   95  216 1    
   190   96  217 1    
   191   96  218 1    
   192   96  219 1    
   193   97   98 2    
   194   97   99 am   BACKBONE|DICT|INTERRES
   195   99  100 1    
   196   99  220 1    
   197  100  101 1    
   198  100  102 1    
   199  100  221 1    
   200  101  222 1    
   201  101  223 1    
   202  101  224 1    
   203  102  103 2    
   204  102  104 am   BACKBONE|DICT|INTERRES
   205  104  105 1    
   206  104  225 1    
   207  105  106 1    
   208  105  107 1    
   209  105  226 1    
   210  106  227 1    
   211  106  228 1    
   212  106  229 1    
   213  107  108 2    
   214  107  109 am   BACKBONE|DICT|INTERRES
   215  109  110 1    
   216  109  230 1    
   217  110  111 1    
   218  110  112 1    
   219  110  231 1    
   220  111  232 1    
   221  111  233 1    
   222  111  234 1    
   223  112  113 2    
   224  112  114 am   BACKBONE|DICT|INTERRES
   225  114  115 1    
   226  114  235 1    
   227  115  116 1    
   228  115  117 1    
   229  115  236 1    
   230  116  237 1    
   231  116  238 1    
   232  116  239 1    
   233  117  118 2    
   234  117  119 am   BACKBONE|DICT|INTERRES
   235  119  120 1    
   236  119  240 1    
   237  120  121 1    
   238  120  124 1    
   239  120  241 1    
   240  121  122 am   BACKBONE|DICT|INTERRES
   241  121  123 2    
   242  122  242 1    
   243  122  243 1    
   244  124  125 1    
   245  124  244 1    
   246  124  245 1    
   247  125  126 1    
   248  126  246 1    
   249  126  247 1    
@<TRIPOS>SUBSTRUCTURE
     1 UNK         1 GROUP             0       ****    0 ROOT    
