@<TRIPOS>MOLECULE
3R540
247   249    1
SMALL
USER_CHARGES


@<TRIPOS>ATOM
      1 CA         -0.1964   -8.0875  -51.3678 C.3       0 UNK        -0.1800 
      2 C           0.2303   -9.5283  -51.1218 C.2       0 UNK         0.5000 
      3 O           0.6673  -10.1983  -52.0565 O.2       0 UNK        -0.5000 
      4 N           0.1130   -9.9873  -49.8681 N.am      1 UNK        -0.5000 
      5 CA          0.3951  -11.3437  -49.3868 C.3       1 UNK         0.1400 
      6 C6          1.8450  -11.8273  -49.6729 C.3       23 UNK        -0.0398 
      7 S7          2.4107  -13.0891  -48.4764 S.3       23 UNK        -0.2404 
      8 C8          3.4141  -14.1986  -49.5187 C.3       23 UNK        -0.0205 
      9 C9          2.6665  -15.4639  -49.9216 C.ar      23 UNK        -0.0193 
     10 C10         1.6537  -15.4123  -50.8802 C.ar      23 UNK        -0.1150 
     11 C11         0.9936  -16.5756  -51.2823 C.ar      23 UNK        -0.0193 
     12 C12         1.3534  -17.8035  -50.7172 C.ar      23 UNK        -0.1150 
     13 C13         2.3720  -17.8793  -49.7559 C.ar      23 UNK        -0.0193 
     14 C14         3.0176  -16.6997  -49.3685 C.ar      23 UNK        -0.1150 
     15 C15         2.8379  -19.1937  -49.1180 C.3       23 UNK        -0.0205 
     16 S16         2.0860  -20.7311  -49.7633 S.3       23 UNK        -0.2404 
     17 C17         0.4494  -20.7245  -48.9588 C.3       23 UNK        -0.0398 
     18 CA          0.1465  -22.0458  -48.2101 C.3       11 UNK         0.1400 
     19 N           1.1244  -22.3317  -47.1564 N.am      11 UNK        -0.5000 
     20 C           1.2076  -23.4806  -46.4678 C.2       10 UNK         0.5000 
     21 O           0.4708  -24.4475  -46.6565 O.2       10 UNK        -0.5000 
     22 CA          2.2548  -23.5241  -45.3362 C.3       10 UNK         0.1400 
     23 CB          3.6124  -23.9963  -45.8761 C.3       10 UNK        -0.1800 
     24 N           2.4161  -22.2222  -44.6818 N.am      10 UNK        -0.5000 
     25 C           1.4427  -21.5947  -44.0089 C.2       9 UNK         0.5000 
     26 O           0.3359  -22.0905  -43.7833 O.2       9 UNK        -0.5000 
     27 CA          1.7008  -20.1163  -43.6849 C.3       9 UNK         0.1400 
     28 CB          1.1579  -19.2768  -44.8470 C.3       9 UNK        -0.1800 
     29 N           1.0493  -19.6835  -42.4522 N.am      9 UNK        -0.5000 
     30 C           1.4358  -20.0449  -41.2212 C.2       8 UNK         0.5000 
     31 O           2.3787  -20.8080  -41.0035 O.2       8 UNK        -0.5000 
     32 CA          0.6733  -19.4408  -40.0227 C.3       8 UNK         0.1400 
     33 CB          1.5088  -18.3347  -39.3611 C.3       8 UNK        -0.1800 
     34 N          -0.6338  -18.8886  -40.3777 N.am      8 UNK        -0.5000 
     35 C          -1.7131  -19.6238  -40.6762 C.2       7 UNK         0.5000 
     36 O          -1.7386  -20.8525  -40.6021 O.2       7 UNK        -0.5000 
     37 CA         -2.9808  -18.8742  -41.1370 C.3       7 UNK         0.1400 
     38 CB         -4.0294  -18.8562  -40.0138 C.3       7 UNK        -0.1800 
     39 N          -2.7684  -17.4985  -41.5989 N.am      7 UNK        -0.5000 
     40 C          -1.9863  -17.1123  -42.6165 C.2       6 UNK         0.5000 
     41 O          -1.2736  -17.8840  -43.2572 O.2       6 UNK        -0.5000 
     42 CA         -1.9838  -15.6134  -42.9806 C.3       6 UNK         0.1400 
     43 CB         -3.0050  -14.7623  -42.1922 C.3       6 UNK        -0.1800 
     44 N          -0.6468  -15.0274  -42.8770 N.am      6 UNK        -0.5000 
     45 C           0.1442  -14.9860  -41.7931 C.2       5 UNK         0.5000 
     46 O          -0.1546  -15.4816  -40.7043 O.2       5 UNK        -0.5000 
     47 CA          1.4848  -14.2382  -41.9689 C.3       5 UNK         0.1400 
     48 CB          2.5082  -14.5243  -40.8490 C.3       5 UNK        -0.1800 
     49 N           2.0692  -14.4377  -43.3003 N.am      5 UNK        -0.5000 
     50 C           2.5047  -15.5937  -43.8198 C.2       4 UNK         0.5000 
     51 O           2.5817  -16.6488  -43.1901 O.2       4 UNK        -0.5000 
     52 CA          2.8996  -15.5605  -45.3104 C.3       4 UNK         0.1400 
     53 CB          4.1659  -16.3944  -45.5696 C.3       4 UNK        -0.1800 
     54 N           1.8292  -16.0289  -46.1983 N.am      4 UNK        -0.5000 
     55 C           0.6175  -15.4734  -46.3286 C.2       3 UNK         0.5000 
     56 O           0.2279  -14.5055  -45.6662 O.2       3 UNK        -0.5000 
     57 CA         -0.3164  -16.0793  -47.3901 C.3       3 UNK         0.1400 
     58 CB         -1.1271  -17.2612  -46.8310 C.3       3 UNK        -0.1800 
     59 N          -1.1990  -15.0095  -47.8292 N.am      3 UNK        -0.5000 
     60 C          -2.0009  -15.0047  -48.8996 C.2       2 UNK         0.5000 
     61 O          -2.1935  -15.9760  -49.6283 O.2       2 UNK        -0.5000 
     62 CA         -2.6630  -13.6524  -49.2263 C.3       2 UNK         0.1400 
     63 CB         -3.8943  -13.4163  -48.3377 C.3       2 UNK        -0.1800 
     64 N          -1.7107  -12.5513  -49.0515 N.am      2 UNK        -0.5000 
     65 C          -0.6783  -12.3362  -49.8787 C.2       1 UNK         0.5000 
     66 O          -0.5656  -12.8853  -50.9750 O.2       1 UNK        -0.5000 
     67 C          -1.3033  -22.0334  -47.6798 C.2       11 UNK         0.5000 
     68 O          -2.2175  -22.4517  -48.3925 O.2       11 UNK        -0.5000 
     69 N          -1.4815  -21.5550  -46.4402 N.am      12 UNK        -0.5000 
     70 CA         -2.7625  -21.5427  -45.7399 C.3       12 UNK         0.1400 
     71 CB         -2.7497  -20.4651  -44.6491 C.3       12 UNK        -0.1800 
     72 C          -3.0903  -22.9238  -45.1522 C.2       12 UNK         0.5000 
     73 O          -4.2317  -23.3700  -45.2652 O.2       12 UNK        -0.5000 
     74 N          -2.0792  -23.5922  -44.5750 N.am      13 UNK        -0.5000 
     75 CA         -2.1785  -24.9410  -44.0087 C.3       13 UNK         0.1400 
     76 CB         -0.8490  -25.3177  -43.3403 C.3       13 UNK        -0.1800 
     77 C          -2.5894  -26.0112  -45.0388 C.2       13 UNK         0.5000 
     78 O          -3.3150  -26.9427  -44.6881 O.2       13 UNK        -0.5000 
     79 N          -2.1783  -25.8308  -46.3016 N.am      14 UNK        -0.5000 
     80 CA         -2.5745  -26.6238  -47.4689 C.3       14 UNK         0.1400 
     81 CB         -1.5455  -26.3842  -48.5879 C.3       14 UNK        -0.1800 
     82 C          -4.0235  -26.3326  -47.9298 C.2       14 UNK         0.5000 
     83 O          -4.2546  -26.0490  -49.1074 O.2       14 UNK        -0.5000 
     84 N          -4.9731  -26.3745  -46.9820 N.am      15 UNK        -0.5000 
     85 CA         -6.4212  -26.1600  -47.1257 C.3       15 UNK         0.1400 
     86 CB         -7.0513  -27.3521  -47.8748 C.3       15 UNK        -0.1800 
     87 C          -6.8063  -24.8046  -47.7626 C.2       15 UNK         0.5000 
     88 O          -7.8777  -24.6904  -48.3598 O.2       15 UNK        -0.5000 
     89 N          -5.9018  -23.8194  -47.6630 N.am      16 UNK        -0.5000 
     90 CA         -5.8979  -22.5152  -48.3332 C.3       16 UNK         0.1400 
     91 CB         -7.0366  -21.6229  -47.8024 C.3       16 UNK        -0.1800 
     92 C          -5.8752  -22.5778  -49.8774 C.2       16 UNK         0.5000 
     93 O          -6.0243  -21.5383  -50.5199 O.2       16 UNK        -0.5000 
     94 N          -5.6627  -23.7652  -50.4627 N.am      17 UNK        -0.5000 
     95 CA         -5.6619  -23.9835  -51.9084 C.3       17 UNK         0.1400 
     96 CB         -5.7620  -25.4877  -52.2016 C.3       17 UNK        -0.1800 
     97 C          -4.4183  -23.3739  -52.5690 C.2       17 UNK         0.5000 
     98 O          -4.5325  -22.7130  -53.6010 O.2       17 UNK        -0.5000 
     99 N          -3.2585  -23.5622  -51.9265 N.am      18 UNK        -0.5000 
    100 CA        -1.9892  -22.9701  -52.3409 C.3       18 UNK         0.1400 
    101 CB        -0.8394  -23.6598  -51.5976 C.3       18 UNK        -0.1800 
    102 C         -1.9590  -21.4439  -52.1429 C.2       18 UNK         0.5000 
    103 O         -1.3585  -20.7494  -52.9600 O.2       18 UNK        -0.5000 
    104 N         -2.6359  -20.9448  -51.0979 N.am      19 UNK        -0.5000 
    105 CA        -2.8368  -19.5150  -50.8490 C.3       19 UNK         0.1400 
    106 CB        -3.4207  -19.3086  -49.4422 C.3       19 UNK        -0.1800 
    107 C         -3.7278  -18.8584  -51.9195 C.2       19 UNK         0.5000 
    108 O         -3.3924  -17.7832  -52.4152 O.2       19 UNK        -0.5000 
    109 N         -4.8304  -19.5321  -52.2778 N.am      20 UNK        -0.5000 
    110 CA        -5.7584  -19.1042  -53.3244 C.3       20 UNK         0.1400 
    111 CB        -7.0144  -19.9885  -53.2914 C.3       20 UNK        -0.1800 
    112 C         -5.1231  -19.1083  -54.7269 C.2       20 UNK         0.5000 
    113 O         -5.3410  -18.1668  -55.4907 O.2       20 UNK        -0.5000 
    114 N         -4.3497  -20.1581  -55.0376 N.am      21 UNK        -0.5000 
    115 CA        -3.6252  -20.3018  -56.2994 C.3       21 UNK         0.1400 
    116 CB        -3.1530  -21.7560  -56.4581 C.3       21 UNK        -0.1800 
    117 C         -2.4416  -19.3240  -56.4096 C.2       21 UNK         0.5000 
    118 O         -2.3399  -18.6004  -57.4011 O.2       21 UNK        -0.5000 
    119 N         -1.5742  -19.3264  -55.3888 N.am      22 UNK        -0.5000 
    120 CA        -0.3450  -18.5251  -55.2850 C.3       22 UNK         0.1400 
    121 C          0.7200  -18.8118  -56.3925 C.2       22 UNK         0.5000 
    122 N          0.7478  -20.0061  -56.9727 N.am      22 UNK        -0.7600 
    123 O          1.5412  -17.9623  -56.7269 O.2       22 UNK        -0.5000 
    124 C124       -0.6474  -17.0172  -55.0550 C.3       23 UNK        -0.0398 
    125 S125        0.6093  -16.2264  -53.9932 S.3       23 UNK        -0.2404 
    126 C126       -0.0975  -16.5060  -52.3392 C.3       23 UNK        -0.0205 
    127 H127        0.6435   -7.5076  -51.7504 H         1 UNK         0.0600 
    128 H128       -0.5535   -7.6071  -50.4565 H         1 UNK         0.0600 
    129 H129       -0.9983   -8.0548  -52.1054 H         1 UNK         0.0600 
    130 H130       -0.2613   -9.3626  -49.1672 H         1 UNK         0.3000 
    131 H131        0.2946  -11.2695  -48.3023 H         1 UNK         0.0600 
    132 H132        2.5354  -10.9871  -49.5894 H         1 UNK         0.0800 
    133 H133        1.9490  -12.1914  -50.6960 H         1 UNK         0.0800 
    134 H134        4.3147  -14.4600  -48.9612 H         1 UNK         0.0800 
    135 H135        3.7609  -13.6754  -50.4107 H         1 UNK         0.0800 
    136 H136        1.3887  -14.4677  -51.3310 H         1 UNK         0.1150 
    137 H137        0.8413  -18.6940  -51.0488 H         1 UNK         0.1150 
    138 H138        3.8180  -16.7490  -48.6456 H         1 UNK         0.1150 
    139 H139        3.9154  -19.2759  -49.2683 H         1 UNK         0.0800 
    140 H140        2.6877  -19.1449  -48.0394 H         1 UNK         0.0800 
    141 H141       -0.2867  -20.5558  -49.7433 H         1 UNK         0.0800 
    142 H142        0.3714  -19.8705  -48.2843 H         1 UNK         0.0800 
    143 H143        0.2221  -22.8640  -48.9255 H         1 UNK         0.0600 
    144 H144        1.7993  -21.6087  -46.9616 H         1 UNK         0.3000 
    145 H145        1.9157  -24.2409  -44.5868 H         1 UNK         0.0600 
    146 H146        4.3448  -24.0901  -45.0741 H         1 UNK         0.0600 
    147 H147        3.5238  -24.9750  -46.3496 H         1 UNK         0.0600 
    148 H148        4.0142  -23.3071  -46.6200 H         1 UNK         0.0600 
    149 H149        3.2964  -21.7501  -44.8306 H         1 UNK         0.3000 
    150 H150        2.7740  -19.9397  -43.5869 H         1 UNK         0.0600 
    151 H151        1.7138  -19.4592  -45.7663 H         1 UNK         0.0600 
    152 H152        1.2151  -18.2132  -44.6333 H         1 UNK         0.0600 
    153 H153        0.1098  -19.5081  -45.0339 H         1 UNK         0.0600 
    154 H154        0.2525  -19.0648  -42.5600 H         1 UNK         0.3000 
    155 H155        0.5247  -20.2386  -39.2920 H         1 UNK         0.0600 
    156 H156        1.6958  -17.5136  -40.0530 H         1 UNK         0.0600 
    157 H157        2.4769  -18.7159  -39.0341 H         1 UNK         0.0600 
    158 H158        1.0055  -17.9274  -38.4841 H         1 UNK         0.0600 
    159 H159       -0.6903  -17.8831  -40.4772 H         1 UNK         0.3000 
    160 H160       -3.3943  -19.4369  -41.9745 H         1 UNK         0.0600 
    161 H161       -3.6867  -18.2775  -39.1551 H         1 UNK         0.0600 
    162 H162       -4.2469  -19.8661  -39.6633 H         1 UNK         0.0600 
    163 H163       -4.9700  -18.4253  -40.3573 H         1 UNK         0.0600 
    164 H164       -3.2882  -16.7843  -41.1103 H         1 UNK         0.3000 
    165 H165       -2.2590  -15.5591  -44.0345 H         1 UNK         0.0600 
    166 H166       -2.7950  -14.7493  -41.1221 H         1 UNK         0.0600 
    167 H167       -2.9956  -13.7289  -42.5392 H         1 UNK         0.0600 
    168 H168       -4.0211  -15.1335  -42.3315 H         1 UNK         0.0600 
    169 H169       -0.2742  -14.6592  -43.7471 H         1 UNK         0.3000 
    170 H170        1.2352  -13.1781  -41.9086 H         1 UNK         0.0600 
    171 H171        2.0999  -14.2667  -39.8711 H         1 UNK         0.0600 
    172 H172        2.7969  -15.5739  -40.8141 H         1 UNK         0.0600 
    173 H173        3.4141  -13.9341  -40.9861 H         1 UNK         0.0600 
    174 H174        2.0090  -13.6408  -43.9195 H         1 UNK         0.3000 
    175 H175        3.1263  -14.5267  -45.5793 H         1 UNK         0.0600 
    176 H176        3.9759  -17.4633  -45.4637 H         1 UNK         0.0600 
    177 H177        4.5594  -16.2155  -46.5690 H         1 UNK         0.0600 
    178 H178        4.9571  -16.1317  -44.8660 H         1 UNK         0.0600 
    179 H179        2.0576  -16.8223  -46.7757 H         1 UNK         0.3000 
    180 H180        0.2727  -16.4079  -48.2470 H         1 UNK         0.0600 
    181 H181       -1.9171  -17.5741  -47.5113 H         1 UNK         0.0600 
    182 H182       -1.5905  -17.0212  -45.8745 H         1 UNK         0.0600 
    183 H183       -0.4845  -18.1247  -46.6866 H         1 UNK         0.0600 
    184 H184       -1.0934  -14.1646  -47.2819 H         1 UNK         0.3000 
    185 H185       -2.9919  -13.6770  -50.2677 H         1 UNK         0.0600 
    186 H186       -4.3954  -12.4842  -48.5992 H         1 UNK         0.0600 
    187 H187       -4.6207  -14.2208  -48.4598 H         1 UNK         0.0600 
    188 H188       -3.6300  -13.3707  -47.2804 H         1 UNK         0.0600 
    189 H189       -1.7729  -12.0292  -48.1896 H         1 UNK         0.3000 
    190 H190       -0.6731  -21.2857  -45.9006 H         1 UNK         0.3000 
    191 H191       -3.5484  -21.2780  -46.4482 H         1 UNK         0.0600 
    192 H192       -3.7128  -20.4219  -44.1399 H         1 UNK         0.0600 
    193 H193       -2.5649  -19.4791  -45.0752 H         1 UNK         0.0600 
    194 H194       -1.9852  -20.6537  -43.8945 H         1 UNK         0.0600 
    195 H195       -1.1837  -23.1252  -44.4686 H         1 UNK         0.3000 
    196 H196       -2.9507  -24.9128  -43.2375 H         1 UNK         0.0600 
    197 H197       -0.0462  -25.4085  -44.0711 H         1 UNK         0.0600 
    198 H198       -0.5508  -24.5739  -42.6009 H         1 UNK         0.0600 
    199 H199       -0.9306  -26.2754  -42.8250 H         1 UNK         0.0600 
    200 H200       -1.5356  -25.0677  -46.4820 H         1 UNK         0.3000 
    201 H201       -2.5334  -27.6806  -47.1983 H         1 UNK         0.0600 
    202 H202       -1.5261  -25.3370  -48.8898 H         1 UNK         0.0600 
    203 H203       -1.7731  -26.9813  -49.4719 H         1 UNK         0.0600 
    204 H204       -0.5406  -26.6555  -48.2640 H         1 UNK         0.0600 
    205 H205       -4.6561  -26.5946  -46.0420 H         1 UNK         0.3000 
    206 H206       -6.8300  -26.1458  -46.1145 H         1 UNK         0.0600 
    207 H207       -6.7843  -28.2987  -47.4050 H         1 UNK         0.0600 
    208 H208       -8.1400  -27.2886  -47.8736 H         1 UNK         0.0600 
    209 H209       -6.7259  -27.3905  -48.9151 H         1 UNK         0.0600 
    210 H210       -5.0900  -24.0008  -47.0834 H         1 UNK         0.3000 
    211 H211       -4.9565  -22.0448  -48.0547 H         1 UNK         0.0600 
    212 H212       -6.9510  -20.6062  -48.1879 H         1 UNK         0.0600 
    213 H213       -7.0106  -21.5586  -46.7146 H         1 UNK         0.0600 
    214 H214       -8.0167  -22.0006  -48.0945 H         1 UNK         0.0600 
    215 H215       -5.4685  -24.5722  -49.8795 H         1 UNK         0.3000 
    216 H216       -6.5422  -23.4944  -52.3311 H         1 UNK         0.0600 
    217 H217       -4.9080  -26.0364  -51.8027 H         1 UNK         0.0600 
    218 H218       -5.7997  -25.6735  -53.2757 H         1 UNK         0.0600 
    219 H219       -6.6655  -25.9139  -51.7648 H         1 UNK         0.0600 
    220 H220       -3.2603  -24.1066  -51.0752 H         1 UNK         0.3000 
    221 H221       -1.8559  -23.1578  -53.4085 H         1 UNK         0.0600 
    222 H222       -0.7158  -24.6879  -51.9382 H         1 UNK         0.0600 
    223 H223       -1.0288  -23.6904  -50.5278 H         1 UNK         0.0600 
    224 H224        0.1090  -23.1450  -51.7590 H         1 UNK         0.0600 
    225 H225       -3.0736  -21.5884  -50.4536 H         1 UNK         0.3000 
    226 H226       -1.8637  -19.0212  -50.8833 H         1 UNK         0.0600 
    227 H227       -4.3601  -19.8427  -49.3067 H         1 UNK         0.0600 
    228 H228       -2.7281  -19.6455  -48.6726 H         1 UNK         0.0600 
    229 H229       -3.6201  -18.2531  -49.2553 H         1 UNK         0.0600 
    230 H230       -5.0741  -20.3822  -51.7782 H         1 UNK         0.3000 
    231 H231       -6.0618  -18.0792  -53.1013 H         1 UNK         0.0600 
    232 H232       -6.7736  -21.0378  -53.4644 H         1 UNK         0.0600 
    233 H233       -7.7282  -19.6834  -54.0574 H         1 UNK         0.0600 
    234 H234       -7.5203  -19.9172  -52.3284 H         1 UNK         0.0600 
    235 H235       -4.2766  -20.9264  -54.3772 H         1 UNK         0.3000 
    236 H236       -4.3163  -20.0838  -57.1165 H         1 UNK         0.0600 
    237 H237       -3.9988  -22.4437  -56.4689 H         1 UNK         0.0600 
    238 H238       -2.6114  -21.8919  -57.3950 H         1 UNK         0.0600 
    239 H239       -2.4906  -22.0581  -55.6462 H         1 UNK         0.0600 
    240 H240       -1.7328  -19.9481  -54.5999 H         1 UNK         0.3000 
    241 H241        0.1216  -18.9012  -54.3740 H         1 UNK         0.0600 
    242 H242        1.4357  -20.1950  -57.6849 H         1 UNK         0.3800 
    243 H243        0.0907  -20.7217  -56.7072 H         1 UNK         0.3800 
    244 H244       -1.6201  -16.8886  -54.5768 H         1 UNK         0.0800 
    245 H245       -0.7126  -16.4818  -56.0035 H         1 UNK         0.0800 
    246 H246       -0.6767  -17.4300  -52.3381 H         1 UNK         0.0800 
    247 H247       -0.7970  -15.7034  -52.0994 H         1 UNK         0.0800 
@<TRIPOS>BOND
     1    1    2 1    
     2    1  127 1    
     3    1  128 1    
     4    1  129 1    
     5    2    3 2    
     6    2    4 am   BACKBONE|DICT|INTERRES
     7    4    5 1    
     8    4  130 1    
     9    5    6 1    
    10    5   65 1    
    11    5  131 1    
    12    6    7 1    
    13    6  132 1    
    14    6  133 1    
    15    7    8 1    
    16    8    9 1    
    17    8  134 1    
    18    8  135 1    
    19    9   10 ar   
    20    9   14 ar   
    21   10   11 ar   
    22   10  136 1    
    23   11   12 ar   
    24   11  126 1    
    25   12   13 ar   
    26   12  137 1    
    27   13   14 ar   
    28   13   15 1    
    29   14  138 1    
    30   15   16 1    
    31   15  139 1    
    32   15  140 1    
    33   16   17 1    
    34   17   18 1    
    35   17  141 1    
    36   17  142 1    
    37   18   19 1    
    38   18   67 1    
    39   18  143 1    
    40   19   20 am   BACKBONE|DICT|INTERRES
    41   19  144 1    
    42   20   21 2    
    43   20   22 1    
    44   22   23 1    
    45   22   24 1    
    46   22  145 1    
    47   23  146 1    
    48   23  147 1    
    49   23  148 1    
    50   24   25 am   BACKBONE|DICT|INTERRES
    51   24  149 1    
    52   25   26 2    
    53   25   27 1    
    54   27   28 1    
    55   27   29 1    
    56   27  150 1    
    57   28  151 1    
    58   28  152 1    
    59   28  153 1    
    60   29   30 am   BACKBONE|DICT|INTERRES
    61   29  154 1    
    62   30   31 2    
    63   30   32 1    
    64   32   33 1    
    65   32   34 1    
    66   32  155 1    
    67   33  156 1    
    68   33  157 1    
    69   33  158 1    
    70   34   35 am   BACKBONE|DICT|INTERRES
    71   34  159 1    
    72   35   36 2    
    73   35   37 1    
    74   37   38 1    
    75   37   39 1    
    76   37  160 1    
    77   38  161 1    
    78   38  162 1    
    79   38  163 1    
    80   39   40 am   BACKBONE|DICT|INTERRES
    81   39  164 1    
    82   40   41 2    
    83   40   42 1    
    84   42   43 1    
    85   42   44 1    
    86   42  165 1    
    87   43  166 1    
    88   43  167 1    
    89   43  168 1    
    90   44   45 am   BACKBONE|DICT|INTERRES
    91   44  169 1    
    92   45   46 2    
    93   45   47 1    
    94   47   48 1    
    95   47   49 1    
    96   47  170 1    
    97   48  171 1    
    98   48  172 1    
    99   48  173 1    
   100   49   50 am   BACKBONE|DICT|INTERRES
   101   49  174 1    
   102   50   51 2    
   103   50   52 1    
   104   52   53 1    
   105   52   54 1    
   106   52  175 1    
   107   53  176 1    
   108   53  177 1    
   109   53  178 1    
   110   54   55 am   BACKBONE|DICT|INTERRES
   111   54  179 1    
   112   55   56 2    
   113   55   57 1    
   114   57   58 1    
   115   57   59 1    
   116   57  180 1    
   117   58  181 1    
   118   58  182 1    
   119   58  183 1    
   120   59   60 am   BACKBONE|DICT|INTERRES
   121   59  184 1    
   122   60   61 2    
   123   60   62 1    
   124   62   63 1    
   125   62   64 1    
   126   62  185 1    
   127   63  186 1    
   128   63  187 1    
   129   63  188 1    
   130   64   65 am   BACKBONE|DICT|INTERRES
   131   64  189 1    
   132   65   66 2    
   133   67   68 2    
   134   67   69 am   BACKBONE|DICT|INTERRES
   135   69   70 1    
   136   69  190 1    
   137   70   71 1    
   138   70   72 1    
   139   70  191 1    
   140   71  192 1    
   141   71  193 1    
   142   71  194 1    
   143   72   73 2    
   144   72   74 am   BACKBONE|DICT|INTERRES
   145   74   75 1    
   146   74  195 1    
   147   75   76 1    
   148   75   77 1    
   149   75  196 1    
   150   76  197 1    
   151   76  198 1    
   152   76  199 1    
   153   77   78 2    
   154   77   79 am   BACKBONE|DICT|INTERRES
   155   79   80 1    
   156   79  200 1    
   157   80   81 1    
   158   80   82 1    
   159   80  201 1    
   160   81  202 1    
   161   81  203 1    
   162   81  204 1    
   163   82   83 2    
   164   82   84 am   BACKBONE|DICT|INTERRES
   165   84   85 1    
   166   84  205 1    
   167   85   86 1    
   168   85   87 1    
   169   85  206 1    
   170   86  207 1    
   171   86  208 1    
   172   86  209 1    
   173   87   88 2    
   174   87   89 am   BACKBONE|DICT|INTERRES
   175   89   90 1    
   176   89  210 1    
   177   90   91 1    
   178   90   92 1    
   179   90  211 1    
   180   91  212 1    
   181   91  213 1    
   182   91  214 1    
   183   92   93 2    
   184   92   94 am   BACKBONE|DICT|INTERRES
   185   94   95 1    
   186   94  215 1    
   187   95   96 1    
   188   95   97 1    
   189   95  216 1    
   190   96  217 1    
   191   96  218 1    
   192   96  219 1    
   193   97   98 2    
   194   97   99 am   BACKBONE|DICT|INTERRES
   195   99  100 1    
   196   99  220 1    
   197  100  101 1    
   198  100  102 1    
   199  100  221 1    
   200  101  222 1    
   201  101  223 1    
   202  101  224 1    
   203  102  103 2    
   204  102  104 am   BACKBONE|DICT|INTERRES
   205  104  105 1    
   206  104  225 1    
   207  105  106 1    
   208  105  107 1    
   209  105  226 1    
   210  106  227 1    
   211  106  228 1    
   212  106  229 1    
   213  107  108 2    
   214  107  109 am   BACKBONE|DICT|INTERRES
   215  109  110 1    
   216  109  230 1    
   217  110  111 1    
   218  110  112 1    
   219  110  231 1    
   220  111  232 1    
   221  111  233 1    
   222  111  234 1    
   223  112  113 2    
   224  112  114 am   BACKBONE|DICT|INTERRES
   225  114  115 1    
   226  114  235 1    
   227  115  116 1    
   228  115  117 1    
   229  115  236 1    
   230  116  237 1    
   231  116  238 1    
   232  116  239 1    
   233  117  118 2    
   234  117  119 am   BACKBONE|DICT|INTERRES
   235  119  120 1    
   236  119  240 1    
   237  120  121 1    
   238  120  124 1    
   239  120  241 1    
   240  121  122 am   BACKBONE|DICT|INTERRES
   241  121  123 2    
   242  122  242 1    
   243  122  243 1    
   244  124  125 1    
   245  124  244 1    
   246  124  245 1    
   247  125  126 1    
   248  126  246 1    
   249  126  247 1    
@<TRIPOS>SUBSTRUCTURE
     1 UNK         1 GROUP             0       ****    0 ROOT    
