@<TRIPOS>MOLECULE
3R540
247   249    1
SMALL
USER_CHARGES


@<TRIPOS>ATOM
      1 CA         -4.4726  -14.8413  -47.5869 C.3       0 UNK        -0.1800 
      2 C          -3.6122  -14.1745  -46.5227 C.2       0 UNK         0.5000 
      3 O          -4.0479  -13.2061  -45.9013 O.2       0 UNK        -0.5000 
      4 N          -2.3938  -14.6956  -46.3199 N.am      1 UNK        -0.5000 
      5 CA         -1.3860  -14.2249  -45.3539 C.3       1 UNK         0.1400 
      6 C6         -1.7997  -14.4097  -43.8676 C.3       23 UNK        -0.0398 
      7 S7         -2.2137  -16.1445  -43.4787 S.3       23 UNK        -0.2404 
      8 C8         -3.9989  -16.0396  -43.1538 C.3       23 UNK        -0.0205 
      9 C9         -4.7029  -17.3212  -43.5656 C.ar      23 UNK        -0.0193 
     10 C10        -5.2019  -17.4480  -44.8632 C.ar      23 UNK        -0.1150 
     11 C11        -5.8664  -18.6085  -45.2618 C.ar      23 UNK        -0.0193 
     12 C12        -6.0418  -19.6475  -44.3455 C.ar      23 UNK        -0.1150 
     13 C13        -5.5356  -19.5409  -43.0456 C.ar      23 UNK        -0.0193 
     14 C14        -4.8670  -18.3739  -42.6603 C.ar      23 UNK        -0.1150 
     15 C15        -5.7225  -20.6811  -42.0549 C.3       23 UNK        -0.0205 
     16 S16        -4.2683  -21.7771  -41.9831 S.3       23 UNK        -0.2404 
     17 C17        -4.2533  -22.4983  -43.6619 C.3       23 UNK        -0.0398 
     18 CA         -3.1172  -21.8996  -44.5466 C.3       11 UNK         0.1400 
     19 N          -1.7870  -22.1435  -43.9717 N.am      11 UNK        -0.5000 
     20 C          -1.2225  -23.3431  -43.7854 C.2       10 UNK         0.5000 
     21 O          -1.6643  -24.3854  -44.2753 O.2       10 UNK        -0.5000 
     22 CA          0.0234  -23.3799  -42.8813 C.3       10 UNK         0.1400 
     23 CB          0.6002  -24.8060  -42.7146 C.3       10 UNK        -0.1800 
     24 N           1.0458  -22.4317  -43.3333 N.am      10 UNK        -0.5000 
     25 C           2.1025  -22.0492  -42.6010 C.2       9 UNK         0.5000 
     26 O           2.3104  -22.4278  -41.4474 O.2       9 UNK        -0.5000 
     27 CA          3.0926  -21.0683  -43.2537 C.3       9 UNK         0.1400 
     28 CB          3.9202  -21.7509  -44.3527 C.3       9 UNK        -0.1800 
     29 N           2.4227  -19.8857  -43.7910 N.am      9 UNK        -0.5000 
     30 C           1.9620  -18.8819  -43.0280 C.2       8 UNK         0.5000 
     31 O           2.0874  -18.8496  -41.8029 O.2       8 UNK        -0.5000 
     32 CA          1.2483  -17.7093  -43.7294 C.3       8 UNK         0.1400 
     33 CB          2.1496  -16.4653  -43.7737 C.3       8 UNK        -0.1800 
     34 N           0.7918  -18.0262  -45.0829 N.am      8 UNK        -0.5000 
     35 C          -0.2358  -18.8464  -45.3490 C.2       7 UNK         0.5000 
     36 O          -0.8863  -19.4170  -44.4744 O.2       7 UNK        -0.5000 
     37 CA         -0.5840  -19.0952  -46.8307 C.3       7 UNK         0.1400 
     38 CB         -1.6759  -18.1143  -47.2779 C.3       7 UNK        -0.1800 
     39 N           0.5478  -18.9831  -47.7515 N.am      7 UNK        -0.5000 
     40 C           1.7000  -19.6630  -47.6683 C.2       6 UNK         0.5000 
     41 O           1.9262  -20.5276  -46.8227 O.2       6 UNK        -0.5000 
     42 CA          2.8181  -19.2344  -48.6397 C.3       6 UNK         0.1400 
     43 CB          2.7790  -20.0746  -49.9203 C.3       6 UNK        -0.1800 
     44 N           2.7659  -17.8111  -48.9965 N.am      6 UNK        -0.5000 
     45 C           2.8865  -16.8084  -48.1170 C.2       5 UNK         0.5000 
     46 O           3.0236  -16.9811  -46.9040 O.2       5 UNK        -0.5000 
     47 CA          2.7667  -15.3800  -48.6713 C.3       5 UNK         0.1400 
     48 CB          1.2972  -14.9307  -48.6540 C.3       5 UNK        -0.1800 
     49 N           3.5517  -14.4533  -47.8610 N.am      5 UNK        -0.5000 
     50 C           4.8837  -14.3366  -47.8951 C.2       4 UNK         0.5000 
     51 O           5.5866  -14.9124  -48.7283 O.2       4 UNK        -0.5000 
     52 CA          5.5363  -13.4303  -46.8225 C.3       4 UNK         0.1400 
     53 CB          6.9858  -13.0487  -47.1747 C.3       4 UNK        -0.1800 
     54 N           4.7842  -12.2004  -46.5533 N.am      4 UNK        -0.5000 
     55 C           3.6606  -12.1067  -45.8317 C.2       3 UNK         0.5000 
     56 O           3.1112  -13.0791  -45.3101 O.2       3 UNK        -0.5000 
     57 CA          3.0094  -10.7162  -45.6866 C.3       3 UNK         0.1400 
     58 CB          3.7849   -9.5628  -46.3641 C.3       3 UNK        -0.1800 
     59 N           1.6164  -10.7566  -46.1373 N.am      3 UNK        -0.5000 
     60 C           1.1696  -11.0370  -47.3690 C.2       2 UNK         0.5000 
     61 O           1.8998  -11.2188  -48.3447 O.2       2 UNK        -0.5000 
     62 CA         -0.3579  -11.1876  -47.5077 C.3       2 UNK         0.1400 
     63 CB         -0.8312  -11.0811  -48.9685 C.3       2 UNK        -0.1800 
     64 N          -0.8082  -12.4692  -46.9674 N.am      2 UNK        -0.5000 
     65 C          -0.9064  -12.7875  -45.6685 C.2       1 UNK         0.5000 
     66 O          -0.6443  -12.0000  -44.7567 O.2       1 UNK        -0.5000 
     67 C          -3.2064  -22.3005  -46.0407 C.2       11 UNK         0.5000 
     68 O          -2.1876  -22.3216  -46.7361 O.2       11 UNK        -0.5000 
     69 N          -4.4221  -22.5996  -46.5252 N.am      12 UNK        -0.5000 
     70 CA         -4.7284  -22.9239  -47.9213 C.3       12 UNK         0.1400 
     71 CB         -6.2450  -23.1005  -48.0781 C.3       12 UNK        -0.1800 
     72 C          -3.9819  -24.1556  -48.4721 C.2       12 UNK         0.5000 
     73 O          -3.7447  -24.2259  -49.6794 O.2       12 UNK        -0.5000 
     74 N          -3.6080  -25.0850  -47.5812 N.am      13 UNK        -0.5000 
     75 CA         -2.7900  -26.2568  -47.8867 C.3       13 UNK         0.1400 
     76 CB         -2.7888  -27.2101  -46.6820 C.3       13 UNK        -0.1800 
     77 C          -1.3556  -25.8682  -48.2842 C.2       13 UNK         0.5000 
     78 O          -0.8730  -26.3164  -49.3249 O.2       13 UNK        -0.5000 
     79 N          -0.7207  -24.9980  -47.4839 N.am      14 UNK        -0.5000 
     80 CA          0.6047  -24.4386  -47.7692 C.3       14 UNK         0.1400 
     81 CB          1.1416  -23.7076  -46.5378 C.3       14 UNK        -0.1800 
     82 C           0.6006  -23.4973  -48.9841 C.2       14 UNK         0.5000 
     83 O           1.5868  -23.4484  -49.7178 O.2       14 UNK        -0.5000 
     84 N          -0.5369  -22.8290  -49.2147 N.am      15 UNK        -0.5000 
     85 CA         -0.8276  -22.0353  -50.4079 C.3       15 UNK         0.1400 
     86 CB         -2.0422  -21.1409  -50.1286 C.3       15 UNK        -0.1800 
     87 C          -1.0506  -22.8735  -51.6882 C.2       15 UNK         0.5000 
     88 O          -1.3961  -22.2920  -52.7160 O.2       15 UNK        -0.5000 
     89 N          -0.8688  -24.2017  -51.6209 N.am      16 UNK        -0.5000 
     90 CA         -0.9692  -25.1733  -52.7131 C.3       16 UNK         0.1400 
     91 CB          0.1000  -24.9031  -53.7933 C.3       16 UNK        -0.1800 
     92 C          -2.3997  -25.2649  -53.2741 C.2       16 UNK         0.5000 
     93 O          -2.6069  -25.1288  -54.4808 O.2       16 UNK        -0.5000 
     94 N          -3.3571  -25.4787  -52.3602 N.am      17 UNK        -0.5000 
     95 CA         -4.8055  -25.5102  -52.5837 C.3       17 UNK         0.1400 
     96 CB         -5.2117  -26.6523  -53.5396 C.3       17 UNK        -0.1800 
     97 C          -5.3387  -24.1272  -53.0043 C.2       17 UNK         0.5000 
     98 O          -6.1041  -24.0165  -53.9637 O.2       17 UNK        -0.5000 
     99 N          -4.9090  -23.1032  -52.2528 N.am      18 UNK        -0.5000 
    100 CA        -5.2595  -21.6876  -52.3971 C.3       18 UNK         0.1400 
    101 CB        -6.7413  -21.4605  -52.0290 C.3       18 UNK        -0.1800 
    102 C         -4.8754  -21.0905  -53.7690 C.2       18 UNK         0.5000 
    103 O         -5.6939  -20.4258  -54.4084 O.2       18 UNK        -0.5000 
    104 N         -3.6343  -21.3466  -54.1990 N.am      19 UNK        -0.5000 
    105 CA        -3.0365  -20.7707  -55.4009 C.3       19 UNK         0.1400 
    106 CB        -2.2614  -21.8640  -56.1541 C.3       19 UNK        -0.1800 
    107 C         -2.1141  -19.5977  -55.0288 C.2       19 UNK         0.5000 
    108 O         -2.2527  -18.5071  -55.5847 O.2       19 UNK        -0.5000 
    109 N         -1.1963  -19.8354  -54.0839 N.am      20 UNK        -0.5000 
    110 CA        -0.2321  -18.8664  -53.5685 C.3       20 UNK         0.1400 
    111 CB         1.0785  -19.6031  -53.2447 C.3       20 UNK        -0.1800 
    112 C         -0.8317  -18.1320  -52.3558 C.2       20 UNK         0.5000 
    113 O         -0.4391  -18.3904  -51.2156 O.2       20 UNK        -0.5000 
    114 N         -1.7971  -17.2520  -52.6542 N.am      21 UNK        -0.5000 
    115 CA        -2.7287  -16.5735  -51.7457 C.3       21 UNK         0.1400 
    116 CB        -2.0104  -15.8759  -50.5688 C.3       21 UNK        -0.1800 
    117 C         -3.8803  -17.5039  -51.3080 C.2       21 UNK         0.5000 
    118 O         -3.9915  -18.6229  -51.8107 O.2       21 UNK        -0.5000 
    119 N         -4.7539  -16.9910  -50.4312 N.am      22 UNK        -0.5000 
    120 CA        -6.0696  -17.5573  -50.0721 C.3       22 UNK         0.1400 
    121 C         -7.1089  -17.4695  -51.2349 C.2       22 UNK         0.5000 
    122 N         -8.3227  -17.9714  -51.0444 N.am      22 UNK        -0.7600 
    123 O         -6.8548  -16.9062  -52.2976 O.2       22 UNK        -0.5000 
    124 C124       -5.9999  -18.9756  -49.4277 C.3       23 UNK        -0.0398 
    125 S125       -5.0609  -19.0089  -47.8702 S.3       23 UNK        -0.2404 
    126 C126       -6.4034  -18.7251  -46.6776 C.3       23 UNK        -0.0205 
    127 H127       -4.0975  -15.8332  -47.8405 H         1 UNK         0.0600 
    128 H128       -4.4884  -14.2318  -48.4901 H         1 UNK         0.0600 
    129 H129       -5.4978  -14.9496  -47.2328 H         1 UNK         0.0600 
    130 H130       -2.1235  -15.5061  -46.8551 H         1 UNK         0.3000 
    131 H131       -0.5103  -14.8553  -45.5160 H         1 UNK         0.0600 
    132 H132       -2.6308  -13.7521  -43.6096 H         1 UNK         0.0800 
    133 H133       -0.9772  -14.1243  -43.2097 H         1 UNK         0.0800 
    134 H134       -4.4343  -15.2003  -43.6978 H         1 UNK         0.0800 
    135 H135       -4.1622  -15.8371  -42.0944 H         1 UNK         0.0800 
    136 H136       -5.0702  -16.6423  -45.5680 H         1 UNK         0.1150 
    137 H137       -6.5734  -20.5385  -44.6466 H         1 UNK         0.1150 
    138 H138       -4.4747  -18.2853  -41.6569 H         1 UNK         0.1150 
    139 H139       -5.9027  -20.2723  -41.0596 H         1 UNK         0.0800 
    140 H140       -6.6092  -21.2658  -42.3050 H         1 UNK         0.0800 
    141 H141       -5.2393  -22.3485  -44.0976 H         1 UNK         0.0800 
    142 H142       -4.1396  -23.5791  -43.5679 H         1 UNK         0.0800 
    143 H143       -3.2413  -20.8156  -44.5477 H         1 UNK         0.0600 
    144 H144       -1.3180  -21.3094  -43.6382 H         1 UNK         0.3000 
    145 H145       -0.3205  -23.0503  -41.8986 H         1 UNK         0.0600 
    146 H146        1.3874  -24.8405  -41.9624 H         1 UNK         0.0600 
    147 H147       -0.1723  -25.5028  -42.3870 H         1 UNK         0.0600 
    148 H148        1.0138  -25.1943  -43.6432 H         1 UNK         0.0600 
    149 H149        0.9277  -22.0525  -44.2628 H         1 UNK         0.3000 
    150 H150        3.7923  -20.7429  -42.4805 H         1 UNK         0.0600 
    151 H151        4.4521  -22.6176  -43.9584 H         1 UNK         0.0600 
    152 H152        4.6654  -21.0702  -44.7645 H         1 UNK         0.0600 
    153 H153        3.2963  -22.0969  -45.1742 H         1 UNK         0.0600 
    154 H154        2.2660  -19.8604  -44.7920 H         1 UNK         0.3000 
    155 H155        0.3733  -17.4646  -43.1254 H         1 UNK         0.0600 
    156 H156        2.4039  -16.1340  -42.7663 H         1 UNK         0.0600 
    157 H157        1.6563  -15.6316  -44.2738 H         1 UNK         0.0600 
    158 H158        3.0860  -16.6640  -44.2954 H         1 UNK         0.0600 
    159 H159        1.3399  -17.6423  -45.8445 H         1 UNK         0.3000 
    160 H160       -0.9703  -20.1104  -46.9086 H         1 UNK         0.0600 
    161 H161       -2.0704  -18.3830  -48.2577 H         1 UNK         0.0600 
    162 H162       -1.2924  -17.0965  -47.3370 H         1 UNK         0.0600 
    163 H163       -2.5131  -18.1128  -46.5780 H         1 UNK         0.0600 
    164 H164        0.4503  -18.3185  -48.5055 H         1 UNK         0.3000 
    165 H165        3.7719  -19.4167  -48.1403 H         1 UNK         0.0600 
    166 H166        3.5954  -19.8142  -50.5939 H         1 UNK         0.0600 
    167 H167        2.8729  -21.1361  -49.6920 H         1 UNK         0.0600 
    168 H168        1.8413  -19.9304  -50.4539 H         1 UNK         0.0600 
    169 H169        2.6264  -17.5977  -49.9736 H         1 UNK         0.3000 
    170 H170        3.1345  -15.3588  -49.6993 H         1 UNK         0.0600 
    171 H171        0.6784  -15.5987  -49.2535 H         1 UNK         0.0600 
    172 H172        0.8918  -14.9249  -47.6419 H         1 UNK         0.0600 
    173 H173        1.1880  -13.9277  -49.0667 H         1 UNK         0.0600 
    174 H174        3.0713  -14.0008  -47.0919 H         1 UNK         0.3000 
    175 H175        5.5675  -14.0176  -45.9024 H         1 UNK         0.0600 
    176 H176        7.0360  -12.4779  -48.1027 H         1 UNK         0.0600 
    177 H177        7.4388  -12.4480  -46.3857 H         1 UNK         0.0600 
    178 H178        7.6084  -13.9357  -47.2987 H         1 UNK         0.0600 
    179 H179        5.1350  -11.3622  -46.9933 H         1 UNK         0.3000 
    180 H180        2.9796  -10.5074  -44.6163 H         1 UNK         0.0600 
    181 H181        3.8860   -9.7029  -47.4406 H         1 UNK         0.0600 
    182 H182        4.7871   -9.4642  -45.9453 H         1 UNK         0.0600 
    183 H183        3.2792   -8.6105  -46.2040 H         1 UNK         0.0600 
    184 H184        0.9234  -10.7509  -45.3966 H         1 UNK         0.3000 
    185 H185       -0.8293  -10.3797  -46.9439 H         1 UNK         0.0600 
    186 H186       -1.9188  -11.1202  -49.0334 H         1 UNK         0.0600 
    187 H187       -0.5137  -10.1370  -49.4131 H         1 UNK         0.0600 
    188 H188       -0.4303  -11.8863  -49.5856 H         1 UNK         0.0600 
    189 H189       -1.0512  -13.1737  -47.6469 H         1 UNK         0.3000 
    190 H190       -5.2165  -22.5594  -45.9058 H         1 UNK         0.3000 
    191 H191       -4.4367  -22.0612  -48.5186 H         1 UNK         0.0600 
    192 H192       -6.5064  -23.3404  -49.1096 H         1 UNK         0.0600 
    193 H193       -6.7771  -22.1860  -47.8146 H         1 UNK         0.0600 
    194 H194       -6.6240  -23.9062  -47.4483 H         1 UNK         0.0600 
    195 H195       -3.8349  -24.9324  -46.6098 H         1 UNK         0.3000 
    196 H196       -3.2439  -26.7770  -48.7330 H         1 UNK         0.0600 
    197 H197       -2.1881  -28.0971  -46.8870 H         1 UNK         0.0600 
    198 H198       -3.7980  -27.5491  -46.4476 H         1 UNK         0.0600 
    199 H199       -2.3795  -26.7351  -45.7893 H         1 UNK         0.0600 
    200 H200       -1.1989  -24.6417  -46.6657 H         1 UNK         0.3000 
    201 H201        1.2807  -25.2664  -47.9936 H         1 UNK         0.0600 
    202 H202        0.4968  -22.8764  -46.2515 H         1 UNK         0.0600 
    203 H203        2.1332  -23.3028  -46.7396 H         1 UNK         0.0600 
    204 H204        1.2344  -24.3840  -45.6922 H         1 UNK         0.0600 
    205 H205       -1.2692  -22.8845  -48.5148 H         1 UNK         0.3000 
    206 H206        0.0285  -21.3865  -50.5903 H         1 UNK         0.0600 
    207 H207       -1.9362  -20.5952  -49.1921 H         1 UNK         0.0600 
    208 H208       -2.1750  -20.4055  -50.9207 H         1 UNK         0.0600 
    209 H209       -2.9575  -21.7227  -50.0840 H         1 UNK         0.0600 
    210 H210       -0.6353  -24.5991  -50.7200 H         1 UNK         0.3000 
    211 H211       -0.7491  -26.1480  -52.2753 H         1 UNK         0.0600 
    212 H212        1.0988  -24.8716  -53.3581 H         1 UNK         0.0600 
    213 H213       -0.0690  -23.9589  -54.3110 H         1 UNK         0.0600 
    214 H214        0.0986  -25.6914  -54.5468 H         1 UNK         0.0600 
    215 H215       -3.0807  -25.4896  -51.3858 H         1 UNK         0.3000 
    216 H216       -5.2564  -25.7261  -51.6138 H         1 UNK         0.0600 
    217 H217       -6.2967  -26.7533  -53.5819 H         1 UNK         0.0600 
    218 H218       -4.8098  -27.6084  -53.2046 H         1 UNK         0.0600 
    219 H219       -4.8634  -26.4793  -54.5580 H         1 UNK         0.0600 
    220 H220       -4.2917  -23.3317  -51.4814 H         1 UNK         0.3000 
    221 H221       -4.6543  -21.1576  -51.6638 H         1 UNK         0.0600 
    222 H222       -7.4142  -21.9744  -52.7156 H         1 UNK         0.0600 
    223 H223       -6.9569  -21.8116  -51.0205 H         1 UNK         0.0600 
    224 H224       -6.9931  -20.4007  -52.0636 H         1 UNK         0.0600 
    225 H225       -3.0053  -21.8811  -53.6063 H         1 UNK         0.3000 
    226 H226       -3.8106  -20.3908  -56.0706 H         1 UNK         0.0600 
    227 H227       -1.7976  -21.4637  -57.0563 H         1 UNK         0.0600 
    228 H228       -1.4709  -22.2987  -55.5415 H         1 UNK         0.0600 
    229 H229       -2.9245  -22.6739  -56.4588 H         1 UNK         0.0600 
    230 H230       -1.1971  -20.7468  -53.6309 H         1 UNK         0.3000 
    231 H231       -0.0070  -18.1192  -54.3325 H         1 UNK         0.0600 
    232 H232        1.5297  -20.0106  -54.1493 H         1 UNK         0.0600 
    233 H233        0.9166  -20.4320  -52.5572 H         1 UNK         0.0600 
    234 H234        1.8076  -18.9293  -52.7933 H         1 UNK         0.0600 
    235 H235       -2.0543  -17.1928  -53.6312 H         1 UNK         0.3000 
    236 H236       -3.1924  -15.7914  -52.3485 H         1 UNK         0.0600 
    237 H237       -1.1498  -15.3057  -50.9183 H         1 UNK         0.0600 
    238 H238       -2.6707  -15.1732  -50.0615 H         1 UNK         0.0600 
    239 H239       -1.6611  -16.5896  -49.8244 H         1 UNK         0.0600 
    240 H240       -4.5974  -16.0495  -50.1077 H         1 UNK         0.3000 
    241 H241       -6.4613  -16.8775  -49.3148 H         1 UNK         0.0600 
    242 H242       -8.6014  -18.3963  -50.1747 H         1 UNK         0.3800 
    243 H243       -8.9970  -17.8947  -51.7900 H         1 UNK         0.3800 
    244 H244       -6.9943  -19.3734  -49.2250 H         1 UNK         0.0800 
    245 H245       -5.5380  -19.6878  -50.1070 H         1 UNK         0.0800 
    246 H246       -6.9357  -17.8090  -46.9373 H         1 UNK         0.0800 
    247 H247       -7.1278  -19.5380  -46.7471 H         1 UNK         0.0800 
@<TRIPOS>BOND
     1    1    2 1    
     2    1  127 1    
     3    1  128 1    
     4    1  129 1    
     5    2    3 2    
     6    2    4 am   BACKBONE|DICT|INTERRES
     7    4    5 1    
     8    4  130 1    
     9    5    6 1    
    10    5   65 1    
    11    5  131 1    
    12    6    7 1    
    13    6  132 1    
    14    6  133 1    
    15    7    8 1    
    16    8    9 1    
    17    8  134 1    
    18    8  135 1    
    19    9   10 ar   
    20    9   14 ar   
    21   10   11 ar   
    22   10  136 1    
    23   11   12 ar   
    24   11  126 1    
    25   12   13 ar   
    26   12  137 1    
    27   13   14 ar   
    28   13   15 1    
    29   14  138 1    
    30   15   16 1    
    31   15  139 1    
    32   15  140 1    
    33   16   17 1    
    34   17   18 1    
    35   17  141 1    
    36   17  142 1    
    37   18   19 1    
    38   18   67 1    
    39   18  143 1    
    40   19   20 am   BACKBONE|DICT|INTERRES
    41   19  144 1    
    42   20   21 2    
    43   20   22 1    
    44   22   23 1    
    45   22   24 1    
    46   22  145 1    
    47   23  146 1    
    48   23  147 1    
    49   23  148 1    
    50   24   25 am   BACKBONE|DICT|INTERRES
    51   24  149 1    
    52   25   26 2    
    53   25   27 1    
    54   27   28 1    
    55   27   29 1    
    56   27  150 1    
    57   28  151 1    
    58   28  152 1    
    59   28  153 1    
    60   29   30 am   BACKBONE|DICT|INTERRES
    61   29  154 1    
    62   30   31 2    
    63   30   32 1    
    64   32   33 1    
    65   32   34 1    
    66   32  155 1    
    67   33  156 1    
    68   33  157 1    
    69   33  158 1    
    70   34   35 am   BACKBONE|DICT|INTERRES
    71   34  159 1    
    72   35   36 2    
    73   35   37 1    
    74   37   38 1    
    75   37   39 1    
    76   37  160 1    
    77   38  161 1    
    78   38  162 1    
    79   38  163 1    
    80   39   40 am   BACKBONE|DICT|INTERRES
    81   39  164 1    
    82   40   41 2    
    83   40   42 1    
    84   42   43 1    
    85   42   44 1    
    86   42  165 1    
    87   43  166 1    
    88   43  167 1    
    89   43  168 1    
    90   44   45 am   BACKBONE|DICT|INTERRES
    91   44  169 1    
    92   45   46 2    
    93   45   47 1    
    94   47   48 1    
    95   47   49 1    
    96   47  170 1    
    97   48  171 1    
    98   48  172 1    
    99   48  173 1    
   100   49   50 am   BACKBONE|DICT|INTERRES
   101   49  174 1    
   102   50   51 2    
   103   50   52 1    
   104   52   53 1    
   105   52   54 1    
   106   52  175 1    
   107   53  176 1    
   108   53  177 1    
   109   53  178 1    
   110   54   55 am   BACKBONE|DICT|INTERRES
   111   54  179 1    
   112   55   56 2    
   113   55   57 1    
   114   57   58 1    
   115   57   59 1    
   116   57  180 1    
   117   58  181 1    
   118   58  182 1    
   119   58  183 1    
   120   59   60 am   BACKBONE|DICT|INTERRES
   121   59  184 1    
   122   60   61 2    
   123   60   62 1    
   124   62   63 1    
   125   62   64 1    
   126   62  185 1    
   127   63  186 1    
   128   63  187 1    
   129   63  188 1    
   130   64   65 am   BACKBONE|DICT|INTERRES
   131   64  189 1    
   132   65   66 2    
   133   67   68 2    
   134   67   69 am   BACKBONE|DICT|INTERRES
   135   69   70 1    
   136   69  190 1    
   137   70   71 1    
   138   70   72 1    
   139   70  191 1    
   140   71  192 1    
   141   71  193 1    
   142   71  194 1    
   143   72   73 2    
   144   72   74 am   BACKBONE|DICT|INTERRES
   145   74   75 1    
   146   74  195 1    
   147   75   76 1    
   148   75   77 1    
   149   75  196 1    
   150   76  197 1    
   151   76  198 1    
   152   76  199 1    
   153   77   78 2    
   154   77   79 am   BACKBONE|DICT|INTERRES
   155   79   80 1    
   156   79  200 1    
   157   80   81 1    
   158   80   82 1    
   159   80  201 1    
   160   81  202 1    
   161   81  203 1    
   162   81  204 1    
   163   82   83 2    
   164   82   84 am   BACKBONE|DICT|INTERRES
   165   84   85 1    
   166   84  205 1    
   167   85   86 1    
   168   85   87 1    
   169   85  206 1    
   170   86  207 1    
   171   86  208 1    
   172   86  209 1    
   173   87   88 2    
   174   87   89 am   BACKBONE|DICT|INTERRES
   175   89   90 1    
   176   89  210 1    
   177   90   91 1    
   178   90   92 1    
   179   90  211 1    
   180   91  212 1    
   181   91  213 1    
   182   91  214 1    
   183   92   93 2    
   184   92   94 am   BACKBONE|DICT|INTERRES
   185   94   95 1    
   186   94  215 1    
   187   95   96 1    
   188   95   97 1    
   189   95  216 1    
   190   96  217 1    
   191   96  218 1    
   192   96  219 1    
   193   97   98 2    
   194   97   99 am   BACKBONE|DICT|INTERRES
   195   99  100 1    
   196   99  220 1    
   197  100  101 1    
   198  100  102 1    
   199  100  221 1    
   200  101  222 1    
   201  101  223 1    
   202  101  224 1    
   203  102  103 2    
   204  102  104 am   BACKBONE|DICT|INTERRES
   205  104  105 1    
   206  104  225 1    
   207  105  106 1    
   208  105  107 1    
   209  105  226 1    
   210  106  227 1    
   211  106  228 1    
   212  106  229 1    
   213  107  108 2    
   214  107  109 am   BACKBONE|DICT|INTERRES
   215  109  110 1    
   216  109  230 1    
   217  110  111 1    
   218  110  112 1    
   219  110  231 1    
   220  111  232 1    
   221  111  233 1    
   222  111  234 1    
   223  112  113 2    
   224  112  114 am   BACKBONE|DICT|INTERRES
   225  114  115 1    
   226  114  235 1    
   227  115  116 1    
   228  115  117 1    
   229  115  236 1    
   230  116  237 1    
   231  116  238 1    
   232  116  239 1    
   233  117  118 2    
   234  117  119 am   BACKBONE|DICT|INTERRES
   235  119  120 1    
   236  119  240 1    
   237  120  121 1    
   238  120  124 1    
   239  120  241 1    
   240  121  122 am   BACKBONE|DICT|INTERRES
   241  121  123 2    
   242  122  242 1    
   243  122  243 1    
   244  124  125 1    
   245  124  244 1    
   246  124  245 1    
   247  125  126 1    
   248  126  246 1    
   249  126  247 1    
@<TRIPOS>SUBSTRUCTURE
     1 UNK         1 GROUP             0       ****    0 ROOT    
