@<TRIPOS>MOLECULE
3R540
247   249    1
SMALL
USER_CHARGES


@<TRIPOS>ATOM
      1 CA          2.4979  -13.4996  -46.0169 C.3       0 UNK        -0.1800 
      2 C           1.4452  -14.4686  -46.5367 C.2       0 UNK         0.5000 
      3 O           0.8413  -15.1991  -45.7477 O.2       0 UNK        -0.5000 
      4 N           1.2233  -14.4605  -47.8571 N.am      1 UNK        -0.5000 
      5 CA          0.2024  -15.2329  -48.5712 C.3       1 UNK         0.1400 
      6 C6          0.3596  -15.0568  -50.1022 C.3       23 UNK        -0.0398 
      7 S7         -0.5330  -16.3147  -51.0805 S.3       23 UNK        -0.2404 
      8 C8          0.7802  -16.9696  -52.1647 C.3       23 UNK        -0.0205 
      9 C9          1.3996  -18.2460  -51.6129 C.ar      23 UNK        -0.0193 
     10 C10         1.1198  -19.4777  -52.2149 C.ar      23 UNK        -0.1150 
     11 C11         1.6786  -20.6574  -51.7143 C.ar      23 UNK        -0.0193 
     12 C12         2.5226  -20.5968  -50.6028 C.ar      23 UNK        -0.1150 
     13 C13         2.8087  -19.3763  -49.9875 C.ar      23 UNK        -0.0193 
     14 C14         2.2581  -18.2005  -50.5100 C.ar      23 UNK        -0.1150 
     15 C15         3.7306  -19.3535  -48.7738 C.3       23 UNK        -0.0205 
     16 S16         3.1342  -18.3170  -47.3981 S.3       23 UNK        -0.2404 
     17 C17         1.4278  -18.8999  -47.1186 C.3       23 UNK        -0.0398 
     18 CA          1.2898  -20.3929  -46.7166 C.3       11 UNK         0.1400 
     19 N           2.1216  -20.7483  -45.5572 N.am      11 UNK        -0.5000 
     20 C           3.0448  -21.7198  -45.5454 C.2       10 UNK         0.5000 
     21 O           3.2591  -22.4764  -46.4922 O.2       10 UNK        -0.5000 
     22 CA          3.8545  -21.8859  -44.2479 C.3       10 UNK         0.1400 
     23 CB          5.0062  -20.8700  -44.1916 C.3       10 UNK        -0.1800 
     24 N           3.0081  -21.7345  -43.0638 N.am      10 UNK        -0.5000 
     25 C           2.2927  -22.7268  -42.5181 C.2       9 UNK         0.5000 
     26 O           2.3110  -23.8815  -42.9470 O.2       9 UNK        -0.5000 
     27 CA          1.3724  -22.3798  -41.3293 C.3       9 UNK         0.1400 
     28 CB          1.2624  -23.5245  -40.3002 C.3       9 UNK        -0.1800 
     29 N           1.6642  -21.0980  -40.6801 N.am      9 UNK        -0.5000 
     30 C           2.7141  -20.7789  -39.9082 C.2       8 UNK         0.5000 
     31 O           3.6364  -21.5555  -39.6580 O.2       8 UNK        -0.5000 
     32 CA          2.7575  -19.3513  -39.3159 C.3       8 UNK         0.1400 
     33 CB          4.0290  -18.6188  -39.7728 C.3       8 UNK        -0.1800 
     34 N           1.5895  -18.5335  -39.6592 N.am      8 UNK        -0.5000 
     35 C           0.3803  -18.6230  -39.0868 C.2       7 UNK         0.5000 
     36 O           0.1308  -19.3568  -38.1304 O.2       7 UNK        -0.5000 
     37 CA         -0.7549  -17.7991  -39.7314 C.3       7 UNK         0.1400 
     38 CB         -0.8501  -16.4014  -39.1021 C.3       7 UNK        -0.1800 
     39 N          -0.6127  -17.6731  -41.1853 N.am      7 UNK        -0.5000 
     40 C          -0.6611  -18.6995  -42.0463 C.2       6 UNK         0.5000 
     41 O          -0.8960  -19.8597  -41.7130 O.2       6 UNK        -0.5000 
     42 CA         -0.3012  -18.3998  -43.5097 C.3       6 UNK         0.1400 
     43 CB         -1.5091  -17.8788  -44.2956 C.3       6 UNK        -0.1800 
     44 N           0.8193  -17.4638  -43.6097 N.am      6 UNK        -0.5000 
     45 C           2.0837  -17.7929  -43.3122 C.2       5 UNK         0.5000 
     46 O           2.4316  -18.9485  -43.0715 O.2       5 UNK        -0.5000 
     47 CA          3.1203  -16.6586  -43.2215 C.3       5 UNK         0.1400 
     48 CB          3.9369  -16.5332  -44.5102 C.3       5 UNK        -0.1800 
     49 N           2.5113  -15.3701  -42.8890 N.am      5 UNK        -0.5000 
     50 C           2.1557  -15.0308  -41.6435 C.2       4 UNK         0.5000 
     51 O           2.3060  -15.7714  -40.6725 O.2       4 UNK        -0.5000 
     52 CA          1.4993  -13.6518  -41.4467 C.3       4 UNK         0.1400 
     53 CB          2.5745  -12.5652  -41.2970 C.3       4 UNK        -0.1800 
     54 N           0.5625  -13.2575  -42.5034 N.am      4 UNK        -0.5000 
     55 C          -0.5287  -13.9430  -42.8704 C.2       3 UNK         0.5000 
     56 O          -0.8054  -15.0583  -42.4262 O.2       3 UNK        -0.5000 
     57 CA         -1.4798  -13.2827  -43.8847 C.3       3 UNK         0.1400 
     58 CB         -0.9486  -11.9795  -44.5170 C.3       3 UNK        -0.1800 
     59 N          -1.7929  -14.2419  -44.9378 N.am      3 UNK        -0.5000 
     60 C          -2.9995  -14.4294  -45.4865 C.2       2 UNK         0.5000 
     61 O          -4.0023  -13.7960  -45.1518 O.2       2 UNK        -0.5000 
     62 CA         -3.1049  -15.5152  -46.5842 C.3       2 UNK         0.1400 
     63 CB         -4.2912  -15.2897  -47.5424 C.3       2 UNK        -0.1800 
     64 N          -1.8545  -15.7265  -47.3280 N.am      2 UNK        -0.5000 
     65 C          -1.2023  -14.8237  -48.0765 C.2       1 UNK         0.5000 
     66 O          -1.6256  -13.6937  -48.3277 O.2       1 UNK        -0.5000 
     67 C          -0.1936  -20.7548  -46.4820 C.2       11 UNK         0.5000 
     68 O          -1.0616  -20.2261  -47.1755 O.2       11 UNK        -0.5000 
     69 N          -0.4888  -21.6241  -45.5035 N.am      12 UNK        -0.5000 
     70 CA         -1.8565  -21.9832  -45.1014 C.3       12 UNK         0.1400 
     71 CB         -1.8096  -22.8457  -43.8324 C.3       12 UNK        -0.1800 
     72 C          -2.6845  -22.6809  -46.1992 C.2       12 UNK         0.5000 
     73 O          -3.9074  -22.5414  -46.2186 O.2       12 UNK        -0.5000 
     74 N          -2.0039  -23.3970  -47.1020 N.am      13 UNK        -0.5000 
     75 CA         -2.6044  -24.0943  -48.2398 C.3       13 UNK         0.1400 
     76 CB         -1.7126  -25.2946  -48.5966 C.3       13 UNK        -0.1800 
     77 C          -2.8196  -23.1892  -49.4710 C.2       13 UNK         0.5000 
     78 O          -3.3343  -23.6722  -50.4803 O.2       13 UNK        -0.5000 
     79 N          -2.3981  -21.9175  -49.4060 N.am      14 UNK        -0.5000 
     80 CA         -2.4365  -20.9942  -50.5374 C.3       14 UNK         0.1400 
     81 CB         -1.5788  -19.7613  -50.2303 C.3       14 UNK        -0.1800 
     82 C          -3.8548  -20.5454  -50.9116 C.2       14 UNK         0.5000 
     83 O          -4.1634  -20.4552  -52.0996 O.2       14 UNK        -0.5000 
     84 N          -4.6718  -20.2084  -49.9017 N.am      15 UNK        -0.5000 
     85 CA         -5.9869  -19.5617  -50.0382 C.3       15 UNK         0.1400 
     86 CB         -7.0207  -20.5562  -50.6031 C.3       15 UNK        -0.1800 
     87 C          -5.9026  -18.2544  -50.8621 C.2       15 UNK         0.5000 
     88 O          -6.6982  -18.0360  -51.7776 O.2       15 UNK        -0.5000 
     89 N          -4.8575  -17.4600  -50.5767 N.am      16 UNK        -0.5000 
     90 CA         -4.4433  -16.2281  -51.2674 C.3       16 UNK         0.1400 
     91 CB         -5.5194  -15.1331  -51.1087 C.3       16 UNK        -0.1800 
     92 C          -4.0506  -16.4342  -52.7497 C.2       16 UNK         0.5000 
     93 O          -3.9796  -15.4579  -53.4969 O.2       16 UNK        -0.5000 
     94 N          -3.8437  -17.6982  -53.1560 N.am      17 UNK        -0.5000 
     95 CA         -3.6855  -18.1879  -54.5295 C.3       17 UNK         0.1400 
     96 CB         -2.3979  -17.6414  -55.1776 C.3       17 UNK        -0.1800 
     97 C          -4.9441  -17.9790  -55.4023 C.2       17 UNK         0.5000 
     98 O          -4.8530  -18.0430  -56.6289 O.2       17 UNK        -0.5000 
     99 N          -6.0988  -17.7482  -54.7607 N.am      18 UNK        -0.5000 
    100 CA        -7.3819  -17.4822  -55.4094 C.3       18 UNK         0.1400 
    101 CB        -8.1432  -16.4435  -54.5698 C.3       18 UNK        -0.1800 
    102 C         -8.2290  -18.7554  -55.5859 C.2       18 UNK         0.5000 
    103 O         -9.2204  -18.7166  -56.3165 O.2       18 UNK        -0.5000 
    104 N         -7.8436  -19.8492  -54.9170 N.am      19 UNK        -0.5000 
    105 CA        -8.5468  -21.1259  -54.9350 C.3       19 UNK         0.1400 
    106 CB        -9.5544  -21.1840  -53.7687 C.3       19 UNK        -0.1800 
    107 C         -7.5273  -22.2731  -54.9281 C.2       19 UNK         0.5000 
    108 O         -7.1472  -22.7452  -55.9997 O.2       19 UNK        -0.5000 
    109 N         -7.1226  -22.7102  -53.7276 N.am      20 UNK        -0.5000 
    110 CA        -6.2815  -23.8856  -53.4912 C.3       20 UNK         0.1400 
    111 CB        -6.1882  -24.1387  -51.9796 C.3       20 UNK        -0.1800 
    112 C         -4.8805  -23.8033  -54.1242 C.2       20 UNK         0.5000 
    113 O         -4.4448  -24.7739  -54.7463 O.2       20 UNK        -0.5000 
    114 N         -4.2057  -22.6556  -53.9519 N.am      21 UNK        -0.5000 
    115 CA        -2.8900  -22.3075  -54.5070 C.3       21 UNK         0.1400 
    116 CB        -3.0208  -22.0086  -56.0140 C.3       21 UNK        -0.1800 
    117 C         -1.7766  -23.3309  -54.1908 C.2       21 UNK         0.5000 
    118 O         -0.8704  -23.5246  -55.0027 O.2       21 UNK        -0.5000 
    119 N         -1.8763  -23.9737  -53.0198 N.am      22 UNK        -0.5000 
    120 CA        -1.0128  -25.0673  -52.5452 C.3       22 UNK         0.1400 
    121 C         -1.1470  -26.3976  -53.3499 C.2       22 UNK         0.5000 
    122 N         -2.1756  -26.5836  -54.1700 N.am      22 UNK        -0.7600 
    123 O         -0.3231  -27.2971  -53.2070 O.2       22 UNK        -0.5000 
    124 C124        0.4667  -24.6434  -52.3270 C.3       23 UNK        -0.0398 
    125 S125        0.6384  -23.1894  -51.2349 S.3       23 UNK        -0.2404 
    126 C126        1.3930  -21.9940  -52.3829 C.3       23 UNK        -0.0205 
    127 H127        2.5683  -12.6164  -46.6526 H         1 UNK         0.0600 
    128 H128        2.2504  -13.1660  -45.0096 H         1 UNK         0.0600 
    129 H129        3.4761  -13.9788  -45.9903 H         1 UNK         0.0600 
    130 H130        1.7482  -13.8131  -48.4268 H         1 UNK         0.3000 
    131 H131        0.3737  -16.2839  -48.3309 H         1 UNK         0.0600 
    132 H132        1.4176  -15.1046  -50.3602 H         1 UNK         0.0800 
    133 H133        0.0293  -14.0669  -50.4225 H         1 UNK         0.0800 
    134 H134        1.5560  -16.2221  -52.3340 H         1 UNK         0.0800 
    135 H135        0.3424  -17.1618  -53.1447 H         1 UNK         0.0800 
    136 H136        0.4627  -19.5180  -53.0722 H         1 UNK         0.1150 
    137 H137        2.9546  -21.5092  -50.2157 H         1 UNK         0.1150 
    138 H138        2.4854  -17.2517  -50.0463 H         1 UNK         0.1150 
    139 H139        4.7079  -18.9854  -49.0876 H         1 UNK         0.0800 
    140 H140        3.8931  -20.3634  -48.3943 H         1 UNK         0.0800 
    141 H141        0.9975  -18.2581  -46.3492 H         1 UNK         0.0800 
    142 H142        0.8575  -18.6971  -48.0265 H         1 UNK         0.0800 
    143 H143        1.5895  -20.9851  -47.5830 H         1 UNK         0.0600 
    144 H144        2.0451  -20.1560  -44.7387 H         1 UNK         0.3000 
    145 H145        4.2955  -22.8851  -44.2511 H         1 UNK         0.0600 
    146 H146        5.5970  -20.9947  -43.2841 H         1 UNK         0.0600 
    147 H147        5.6796  -20.9992  -45.0398 H         1 UNK         0.0600 
    148 H148        4.6455  -19.8423  -44.2170 H         1 UNK         0.0600 
    149 H149        2.8970  -20.7904  -42.7058 H         1 UNK         0.3000 
    150 H150        0.3827  -22.2550  -41.7622 H         1 UNK         0.0600 
    151 H151        0.6002  -23.2534  -39.4779 H         1 UNK         0.0600 
    152 H152        0.8529  -24.4249  -40.7594 H         1 UNK         0.0600 
    153 H153        2.2325  -23.7886  -39.8792 H         1 UNK         0.0600 
    154 H154        0.9625  -20.3843  -40.8345 H         1 UNK         0.3000 
    155 H155        2.7985  -19.4523  -38.2296 H         1 UNK         0.0600 
    156 H156        4.9231  -19.1230  -39.4042 H         1 UNK         0.0600 
    157 H157        4.0573  -17.5955  -39.3980 H         1 UNK         0.0600 
    158 H158        4.1019  -18.5854  -40.8590 H         1 UNK         0.0600 
    159 H159        1.7226  -17.8403  -40.3852 H         1 UNK         0.3000 
    160 H160       -1.6930  -18.3225  -39.5353 H         1 UNK         0.0600 
    161 H161        0.0619  -15.8254  -39.2548 H         1 UNK         0.0600 
    162 H162       -1.6785  -15.8336  -39.5263 H         1 UNK         0.0600 
    163 H163       -1.0180  -16.4694  -38.0266 H         1 UNK         0.0600 
    164 H164       -0.4716  -16.7367  -41.5554 H         1 UNK         0.3000 
    165 H165        0.0034  -19.3436  -43.9603 H         1 UNK         0.0600 
    166 H166       -1.2509  -17.7190  -45.3410 H         1 UNK         0.0600 
    167 H167       -2.3287  -18.5977  -44.2704 H         1 UNK         0.0600 
    168 H168       -1.8858  -16.9420  -43.8877 H         1 UNK         0.0600 
    169 H169        0.6007  -16.4965  -43.8099 H         1 UNK         0.3000 
    170 H170        3.8222  -16.9224  -42.4291 H         1 UNK         0.0600 
    171 H171        3.3030  -16.3068  -45.3637 H         1 UNK         0.0600 
    172 H172        4.6884  -15.7480  -44.4289 H         1 UNK         0.0600 
    173 H173        4.4622  -17.4627  -44.7304 H         1 UNK         0.0600 
    174 H174        2.3135  -14.7389  -43.6509 H         1 UNK         0.3000 
    175 H175        0.9326  -13.6964  -40.5144 H         1 UNK         0.0600 
    176 H176        3.1476  -12.4364  -42.2161 H         1 UNK         0.0600 
    177 H177        2.1310  -11.6032  -41.0395 H         1 UNK         0.0600 
    178 H178        3.2789  -12.8185  -40.5035 H         1 UNK         0.0600 
    179 H179        0.7153  -12.3498  -42.9175 H         1 UNK         0.3000 
    180 H180       -2.3853  -13.0433  -43.3239 H         1 UNK         0.0600 
    181 H181       -0.7576  -11.2164  -43.7616 H         1 UNK         0.0600 
    182 H182       -0.0277  -12.1433  -45.0761 H         1 UNK         0.0600 
    183 H183       -1.6790  -11.5611  -45.2099 H         1 UNK         0.0600 
    184 H184       -1.0086  -14.8016  -45.2591 H         1 UNK         0.3000 
    185 H185       -3.3030  -16.4468  -46.0538 H         1 UNK         0.0600 
    186 H186       -5.2354  -15.2446  -46.9987 H         1 UNK         0.0600 
    187 H187       -4.1936  -14.3608  -48.1044 H         1 UNK         0.0600 
    188 H188       -4.3732  -16.1090  -48.2527 H         1 UNK         0.0600 
    189 H189       -1.4050  -16.6158  -47.1664 H         1 UNK         0.3000 
    190 H190        0.2692  -22.0420  -44.9846 H         1 UNK         0.3000 
    191 H191       -2.3818  -21.0581  -44.8556 H         1 UNK         0.0600 
    192 H192       -2.7978  -23.2330  -43.5801 H         1 UNK         0.0600 
    193 H193       -1.4785  -22.2567  -42.9799 H         1 UNK         0.0600 
    194 H194       -1.1401  -23.6993  -43.9437 H         1 UNK         0.0600 
    195 H195       -0.9997  -23.4515  -47.0155 H         1 UNK         0.3000 
    196 H196       -3.5838  -24.4787  -47.9478 H         1 UNK         0.0600 
    197 H197       -2.1731  -25.9067  -49.3727 H         1 UNK         0.0600 
    198 H198       -1.5553  -25.9406  -47.7327 H         1 UNK         0.0600 
    199 H199       -0.7350  -24.9768  -48.9613 H         1 UNK         0.0600 
    200 H200       -1.9846  -21.5700  -48.5491 H         1 UNK         0.3000 
    201 H201       -2.0019  -21.4974  -51.4031 H         1 UNK         0.0600 
    202 H202       -1.9907  -19.1640  -49.4165 H         1 UNK         0.0600 
    203 H203       -1.5125  -19.1159  -51.1059 H         1 UNK         0.0600 
    204 H204       -0.5641  -20.0447  -49.9522 H         1 UNK         0.0600 
    205 H205       -4.3338  -20.3355  -48.9579 H         1 UNK         0.3000 
    206 H206       -6.3076  -19.2781  -49.0349 H         1 UNK         0.0600 
    207 H207       -6.7901  -20.8308  -51.6314 H         1 UNK         0.0600 
    208 H208       -7.0557  -21.4696  -50.0095 H         1 UNK         0.0600 
    209 H209       -8.0218  -20.1237  -50.5957 H         1 UNK         0.0600 
    210 H210       -4.2439  -17.7592  -49.8330 H         1 UNK         0.3000 
    211 H211       -3.5429  -15.8815  -50.7587 H         1 UNK         0.0600 
    212 H212       -6.4139  -15.3575  -51.6907 H         1 UNK         0.0600 
    213 H213       -5.1458  -14.1660  -51.4467 H         1 UNK         0.0600 
    214 H214       -5.8197  -15.0161  -50.0680 H         1 UNK         0.0600 
    215 H215       -3.9553  -18.4350  -52.4700 H         1 UNK         0.3000 
    216 H216       -3.5693  -19.2677  -54.4472 H         1 UNK         0.0600 
    217 H217       -2.4578  -16.5689  -55.3630 H         1 UNK         0.0600 
    218 H218       -2.2053  -18.1272  -56.1347 H         1 UNK         0.0600 
    219 H219       -1.5320  -17.8263  -54.5429 H         1 UNK         0.0600 
    220 H220       -6.1049  -17.7336  -53.7459 H         1 UNK         0.3000 
    221 H221       -7.2142  -17.0572  -56.4012 H         1 UNK         0.0600 
    222 H222       -8.3772  -16.8230  -53.5744 H         1 UNK         0.0600 
    223 H223       -7.5608  -15.5295  -54.4509 H         1 UNK         0.0600 
    224 H224       -9.0853  -16.1692  -55.0460 H         1 UNK         0.0600 
    225 H225       -7.0002  -19.8026  -54.3638 H         1 UNK         0.3000 
    226 H226       -9.1087  -21.2271  -55.8662 H         1 UNK         0.0600 
    227 H227      -10.3545  -20.4579  -53.9134 H         1 UNK         0.0600 
    228 H228      -10.0214  -22.1674  -53.6999 H         1 UNK         0.0600 
    229 H229       -9.0876  -20.9663  -52.8083 H         1 UNK         0.0600 
    230 H230       -7.5001  -22.2629  -52.9065 H         1 UNK         0.3000 
    231 H231       -6.7870  -24.7422  -53.9419 H         1 UNK         0.0600 
    232 H232       -5.7786  -23.2763  -51.4532 H         1 UNK         0.0600 
    233 H233       -7.1681  -24.3550  -51.5539 H         1 UNK         0.0600 
    234 H234       -5.5444  -24.9922  -51.7625 H         1 UNK         0.0600 
    235 H235       -4.6147  -21.9388  -53.3617 H         1 UNK         0.3000 
    236 H236       -2.5798  -21.3852  -54.0165 H         1 UNK         0.0600 
    237 H237       -3.7924  -21.2617  -56.2023 H         1 UNK         0.0600 
    238 H238       -2.0876  -21.6182  -56.4214 H         1 UNK         0.0600 
    239 H239       -3.2785  -22.9048  -56.5793 H         1 UNK         0.0600 
    240 H240       -2.6463  -23.7488  -52.3988 H         1 UNK         0.3000 
    241 H241       -1.4085  -25.3215  -51.5634 H         1 UNK         0.0600 
    242 H242       -2.2524  -27.4529  -54.6733 H         1 UNK         0.3800 
    243 H243       -2.8785  -25.8637  -54.3093 H         1 UNK         0.3800 
    244 H244        0.9553  -24.4552  -53.2838 H         1 UNK         0.0800 
    245 H245        1.0268  -25.4564  -51.8627 H         1 UNK         0.0800 
    246 H246        2.3292  -22.4024  -52.7657 H         1 UNK         0.0800 
    247 H247        0.7351  -21.8614  -53.2426 H         1 UNK         0.0800 
@<TRIPOS>BOND
     1    1    2 1    
     2    1  127 1    
     3    1  128 1    
     4    1  129 1    
     5    2    3 2    
     6    2    4 am   BACKBONE|DICT|INTERRES
     7    4    5 1    
     8    4  130 1    
     9    5    6 1    
    10    5   65 1    
    11    5  131 1    
    12    6    7 1    
    13    6  132 1    
    14    6  133 1    
    15    7    8 1    
    16    8    9 1    
    17    8  134 1    
    18    8  135 1    
    19    9   10 ar   
    20    9   14 ar   
    21   10   11 ar   
    22   10  136 1    
    23   11   12 ar   
    24   11  126 1    
    25   12   13 ar   
    26   12  137 1    
    27   13   14 ar   
    28   13   15 1    
    29   14  138 1    
    30   15   16 1    
    31   15  139 1    
    32   15  140 1    
    33   16   17 1    
    34   17   18 1    
    35   17  141 1    
    36   17  142 1    
    37   18   19 1    
    38   18   67 1    
    39   18  143 1    
    40   19   20 am   BACKBONE|DICT|INTERRES
    41   19  144 1    
    42   20   21 2    
    43   20   22 1    
    44   22   23 1    
    45   22   24 1    
    46   22  145 1    
    47   23  146 1    
    48   23  147 1    
    49   23  148 1    
    50   24   25 am   BACKBONE|DICT|INTERRES
    51   24  149 1    
    52   25   26 2    
    53   25   27 1    
    54   27   28 1    
    55   27   29 1    
    56   27  150 1    
    57   28  151 1    
    58   28  152 1    
    59   28  153 1    
    60   29   30 am   BACKBONE|DICT|INTERRES
    61   29  154 1    
    62   30   31 2    
    63   30   32 1    
    64   32   33 1    
    65   32   34 1    
    66   32  155 1    
    67   33  156 1    
    68   33  157 1    
    69   33  158 1    
    70   34   35 am   BACKBONE|DICT|INTERRES
    71   34  159 1    
    72   35   36 2    
    73   35   37 1    
    74   37   38 1    
    75   37   39 1    
    76   37  160 1    
    77   38  161 1    
    78   38  162 1    
    79   38  163 1    
    80   39   40 am   BACKBONE|DICT|INTERRES
    81   39  164 1    
    82   40   41 2    
    83   40   42 1    
    84   42   43 1    
    85   42   44 1    
    86   42  165 1    
    87   43  166 1    
    88   43  167 1    
    89   43  168 1    
    90   44   45 am   BACKBONE|DICT|INTERRES
    91   44  169 1    
    92   45   46 2    
    93   45   47 1    
    94   47   48 1    
    95   47   49 1    
    96   47  170 1    
    97   48  171 1    
    98   48  172 1    
    99   48  173 1    
   100   49   50 am   BACKBONE|DICT|INTERRES
   101   49  174 1    
   102   50   51 2    
   103   50   52 1    
   104   52   53 1    
   105   52   54 1    
   106   52  175 1    
   107   53  176 1    
   108   53  177 1    
   109   53  178 1    
   110   54   55 am   BACKBONE|DICT|INTERRES
   111   54  179 1    
   112   55   56 2    
   113   55   57 1    
   114   57   58 1    
   115   57   59 1    
   116   57  180 1    
   117   58  181 1    
   118   58  182 1    
   119   58  183 1    
   120   59   60 am   BACKBONE|DICT|INTERRES
   121   59  184 1    
   122   60   61 2    
   123   60   62 1    
   124   62   63 1    
   125   62   64 1    
   126   62  185 1    
   127   63  186 1    
   128   63  187 1    
   129   63  188 1    
   130   64   65 am   BACKBONE|DICT|INTERRES
   131   64  189 1    
   132   65   66 2    
   133   67   68 2    
   134   67   69 am   BACKBONE|DICT|INTERRES
   135   69   70 1    
   136   69  190 1    
   137   70   71 1    
   138   70   72 1    
   139   70  191 1    
   140   71  192 1    
   141   71  193 1    
   142   71  194 1    
   143   72   73 2    
   144   72   74 am   BACKBONE|DICT|INTERRES
   145   74   75 1    
   146   74  195 1    
   147   75   76 1    
   148   75   77 1    
   149   75  196 1    
   150   76  197 1    
   151   76  198 1    
   152   76  199 1    
   153   77   78 2    
   154   77   79 am   BACKBONE|DICT|INTERRES
   155   79   80 1    
   156   79  200 1    
   157   80   81 1    
   158   80   82 1    
   159   80  201 1    
   160   81  202 1    
   161   81  203 1    
   162   81  204 1    
   163   82   83 2    
   164   82   84 am   BACKBONE|DICT|INTERRES
   165   84   85 1    
   166   84  205 1    
   167   85   86 1    
   168   85   87 1    
   169   85  206 1    
   170   86  207 1    
   171   86  208 1    
   172   86  209 1    
   173   87   88 2    
   174   87   89 am   BACKBONE|DICT|INTERRES
   175   89   90 1    
   176   89  210 1    
   177   90   91 1    
   178   90   92 1    
   179   90  211 1    
   180   91  212 1    
   181   91  213 1    
   182   91  214 1    
   183   92   93 2    
   184   92   94 am   BACKBONE|DICT|INTERRES
   185   94   95 1    
   186   94  215 1    
   187   95   96 1    
   188   95   97 1    
   189   95  216 1    
   190   96  217 1    
   191   96  218 1    
   192   96  219 1    
   193   97   98 2    
   194   97   99 am   BACKBONE|DICT|INTERRES
   195   99  100 1    
   196   99  220 1    
   197  100  101 1    
   198  100  102 1    
   199  100  221 1    
   200  101  222 1    
   201  101  223 1    
   202  101  224 1    
   203  102  103 2    
   204  102  104 am   BACKBONE|DICT|INTERRES
   205  104  105 1    
   206  104  225 1    
   207  105  106 1    
   208  105  107 1    
   209  105  226 1    
   210  106  227 1    
   211  106  228 1    
   212  106  229 1    
   213  107  108 2    
   214  107  109 am   BACKBONE|DICT|INTERRES
   215  109  110 1    
   216  109  230 1    
   217  110  111 1    
   218  110  112 1    
   219  110  231 1    
   220  111  232 1    
   221  111  233 1    
   222  111  234 1    
   223  112  113 2    
   224  112  114 am   BACKBONE|DICT|INTERRES
   225  114  115 1    
   226  114  235 1    
   227  115  116 1    
   228  115  117 1    
   229  115  236 1    
   230  116  237 1    
   231  116  238 1    
   232  116  239 1    
   233  117  118 2    
   234  117  119 am   BACKBONE|DICT|INTERRES
   235  119  120 1    
   236  119  240 1    
   237  120  121 1    
   238  120  124 1    
   239  120  241 1    
   240  121  122 am   BACKBONE|DICT|INTERRES
   241  121  123 2    
   242  122  242 1    
   243  122  243 1    
   244  124  125 1    
   245  124  244 1    
   246  124  245 1    
   247  125  126 1    
   248  126  246 1    
   249  126  247 1    
@<TRIPOS>SUBSTRUCTURE
     1 UNK         1 GROUP             0       ****    0 ROOT    
