@<TRIPOS>MOLECULE
3R540
247   249    1
SMALL
USER_CHARGES


@<TRIPOS>ATOM
      1 CA         -4.8562  -11.4966  -43.3267 C.3       0 UNK        -0.1800 
      2 C          -3.8737  -11.5729  -44.4866 C.2       0 UNK         0.5000 
      3 O          -3.4362  -10.5373  -44.9903 O.2       0 UNK        -0.5000 
      4 N          -3.5236  -12.7926  -44.9139 N.am      1 UNK        -0.5000 
      5 CA         -2.5568  -13.0670  -45.9789 C.3       1 UNK         0.1400 
      6 C6         -2.8088  -14.4522  -46.6257 C.3       23 UNK        -0.0398 
      7 S7         -1.7614  -14.7482  -48.0924 S.3       23 UNK        -0.2404 
      8 C8         -2.5636  -16.2120  -48.8190 C.3       23 UNK        -0.0205 
      9 C9         -1.6355  -16.9326  -49.7879 C.ar      23 UNK        -0.0193 
     10 C10        -1.0950  -16.2498  -50.8814 C.ar      23 UNK        -0.1150 
     11 C11        -0.2262  -16.8931  -51.7658 C.ar      23 UNK        -0.0193 
     12 C12         0.0894  -18.2388  -51.5625 C.ar      23 UNK        -0.1150 
     13 C13        -0.4576  -18.9401  -50.4842 C.ar      23 UNK        -0.0193 
     14 C14        -1.3163  -18.2814  -49.5980 C.ar      23 UNK        -0.1150 
     15 C15        -0.1536  -20.4201  -50.3119 C.3       23 UNK        -0.0205 
     16 S16         1.4397  -20.7227  -49.4772 S.3       23 UNK        -0.2404 
     17 C17         1.0400  -20.4796  -47.7124 C.3       23 UNK        -0.0398 
     18 CA          0.6803  -21.8048  -46.9884 C.3       11 UNK         0.1400 
     19 N           1.0509  -21.8151  -45.5658 N.am      11 UNK        -0.5000 
     20 C           1.0795  -22.9337  -44.8231 C.2       10 UNK         0.5000 
     21 O           0.7992  -24.0502  -45.2592 O.2       10 UNK        -0.5000 
     22 CA          1.4334  -22.7769  -43.3366 C.3       10 UNK         0.1400 
     23 CB          2.9352  -22.5260  -43.1450 C.3       10 UNK        -0.1800 
     24 N           0.6701  -21.7229  -42.6694 N.am      10 UNK        -0.5000 
     25 C          -0.6482  -21.7724  -42.4354 C.2       9 UNK         0.5000 
     26 O          -1.3799  -22.6356  -42.9191 O.2       9 UNK        -0.5000 
     27 CA         -1.2785  -20.6795  -41.5454 C.3       9 UNK         0.1400 
     28 CB         -2.1101  -21.2914  -40.4007 C.3       9 UNK        -0.1800 
     29 N          -0.3426  -19.6669  -41.0371 N.am      9 UNK        -0.5000 
     30 C           0.6607  -19.8028  -40.1543 C.2       8 UNK         0.5000 
     31 O           0.9353  -20.8643  -39.5947 O.2       8 UNK        -0.5000 
     32 CA          1.5258  -18.5524  -39.8776 C.3       8 UNK         0.1400 
     33 CB          3.0243  -18.9028  -39.8629 C.3       8 UNK        -0.1800 
     34 N           1.3076  -17.5205  -40.8926 N.am      8 UNK        -0.5000 
     35 C           0.6685  -16.3555  -40.7137 C.2       7 UNK         0.5000 
     36 O           0.2582  -15.9592  -39.6228 O.2       7 UNK        -0.5000 
     37 CA          0.4130  -15.5025  -41.9777 C.3       7 UNK         0.1400 
     38 CB          1.5427  -14.4787  -42.1590 C.3       7 UNK        -0.1800 
     39 N           0.2986  -16.2983  -43.2037 N.am      7 UNK        -0.5000 
     40 C          -0.6064  -17.2655  -43.4149 C.2       6 UNK         0.5000 
     41 O          -1.5418  -17.4943  -42.6498 O.2       6 UNK        -0.5000 
     42 CA         -0.3830  -18.2112  -44.6134 C.3       6 UNK         0.1400 
     43 CB         -1.3509  -17.8813  -45.7548 C.3       6 UNK        -0.1800 
     44 N           0.9900  -18.2046  -45.1239 N.am      6 UNK        -0.5000 
     45 C           2.0901  -18.5274  -44.4272 C.2       5 UNK         0.5000 
     46 O           2.0443  -19.0800  -43.3286 O.2       5 UNK        -0.5000 
     47 CA          3.4572  -18.1329  -45.0300 C.3       5 UNK         0.1400 
     48 CB          4.3472  -19.3663  -45.2430 C.3       5 UNK        -0.1800 
     49 N           3.3685  -17.3816  -46.2886 N.am      5 UNK        -0.5000 
     50 C           2.8665  -16.1460  -46.4237 C.2       4 UNK         0.5000 
     51 O           2.4121  -15.4909  -45.4824 O.2       4 UNK        -0.5000 
     52 CA          2.8107  -15.5976  -47.8558 C.3       4 UNK         0.1400 
     53 CB          1.9075  -16.4666  -48.7516 C.3       4 UNK        -0.1800 
     54 N           2.2965  -14.2325  -47.8483 N.am      4 UNK        -0.5000 
     55 C           2.6607  -13.2718  -48.7045 C.2       3 UNK         0.5000 
     56 O           3.5097  -13.4332  -49.5828 O.2       3 UNK        -0.5000 
     57 CA          1.9566  -11.9041  -48.5953 C.3       3 UNK         0.1400 
     58 CB          1.0036  -11.7047  -49.7855 C.3       3 UNK        -0.1800 
     59 N           1.1933  -11.7099  -47.3624 N.am      3 UNK        -0.5000 
     60 C           1.7060  -11.4918  -46.1435 C.2       2 UNK         0.5000 
     61 O           2.9143  -11.4523  -45.9108 O.2       2 UNK        -0.5000 
     62 CA          0.6998  -11.2567  -44.9954 C.3       2 UNK         0.1400 
     63 CB          0.7059   -9.7813  -44.5663 C.3       2 UNK        -0.1800 
     64 N          -0.6724  -11.6359  -45.3450 N.am      2 UNK        -0.5000 
     65 C          -1.1175  -12.8942  -45.4438 C.2       1 UNK         0.5000 
     66 O          -0.4435  -13.8774  -45.1400 O.2       1 UNK        -0.5000 
     67 C          -0.8067  -22.1596  -47.1754 C.2       11 UNK         0.5000 
     68 O          -1.1416  -22.9068  -48.0920 O.2       11 UNK        -0.5000 
     69 N          -1.6631  -21.6502  -46.2776 N.am      12 UNK        -0.5000 
     70 CA         -3.1009  -21.9146  -46.2636 C.3       12 UNK         0.1400 
     71 CB         -3.7800  -21.0319  -45.2060 C.3       12 UNK        -0.1800 
     72 C          -3.4213  -23.4024  -46.0418 C.2       12 UNK         0.5000 
     73 O          -4.2497  -23.9516  -46.7655 O.2       12 UNK        -0.5000 
     74 N          -2.7249  -24.0364  -45.0885 N.am      13 UNK        -0.5000 
     75 CA         -2.8184  -25.4695  -44.8145 C.3       13 UNK         0.1400 
     76 CB         -2.0830  -25.7889  -43.5040 C.3       13 UNK        -0.1800 
     77 C          -2.2767  -26.3360  -45.9666 C.2       13 UNK         0.5000 
     78 O          -2.8939  -27.3480  -46.2999 O.2       13 UNK        -0.5000 
     79 N          -1.1429  -25.9259  -46.5533 N.am      14 UNK        -0.5000 
     80 CA         -0.4808  -26.6284  -47.6528 C.3       14 UNK         0.1400 
     81 CB          0.9310  -26.0564  -47.8550 C.3       14 UNK        -0.1800 
     82 C          -1.2789  -26.5807  -48.9676 C.2       14 UNK         0.5000 
     83 O          -1.4593  -27.6183  -49.6065 O.2       14 UNK        -0.5000 
     84 N          -1.7346  -25.3815  -49.3517 N.am      15 UNK        -0.5000 
     85 CA         -2.4694  -25.1437  -50.5939 C.3       15 UNK         0.1400 
     86 CB         -2.3315  -23.6640  -50.9802 C.3       15 UNK        -0.1800 
     87 C          -3.9577  -25.5176  -50.5039 C.2       15 UNK         0.5000 
     88 O          -4.5785  -25.7427  -51.5432 O.2       15 UNK        -0.5000 
     89 N          -4.5201  -25.5117  -49.2858 N.am      16 UNK        -0.5000 
     90 CA         -5.9324  -25.6910  -48.9138 C.3       16 UNK         0.1400 
     91 CB         -6.4871  -27.0458  -49.3933 C.3       16 UNK        -0.1800 
     92 C          -6.8381  -24.5204  -49.3503 C.2       16 UNK         0.5000 
     93 O          -7.6489  -24.0470  -48.5542 O.2       16 UNK        -0.5000 
     94 N          -6.6631  -24.0579  -50.5926 N.am      17 UNK        -0.5000 
     95 CA         -7.3504  -22.9205  -51.2040 C.3       17 UNK         0.1400 
     96 CB         -7.7087  -23.3021  -52.6489 C.3       17 UNK        -0.1800 
     97 C          -6.5182  -21.6195  -51.1435 C.2       17 UNK         0.5000 
     98 O          -6.9194  -20.6205  -51.7429 O.2       17 UNK        -0.5000 
     99 N          -5.3858  -21.6471  -50.4215 N.am      18 UNK        -0.5000 
    100 CA        -4.4711  -20.5330  -50.1480 C.3       18 UNK         0.1400 
    101 CB        -5.1110  -19.5577  -49.1347 C.3       18 UNK        -0.1800 
    102 C         -3.9541  -19.8577  -51.4364 C.2       18 UNK         0.5000 
    103 O         -3.2235  -20.4959  -52.1957 O.2       18 UNK        -0.5000 
    104 N         -4.3453  -18.5955  -51.6659 N.am      19 UNK        -0.5000 
    105 CA        -3.9067  -17.7383  -52.7724 C.3       19 UNK         0.1400 
    106 CB        -4.4967  -16.3332  -52.5829 C.3       19 UNK        -0.1800 
    107 C         -4.2219  -18.2706  -54.1834 C.2       19 UNK         0.5000 
    108 O         -3.6104  -17.8146  -55.1497 O.2       19 UNK        -0.5000 
    109 N         -5.1232  -19.2560  -54.2917 N.am      20 UNK        -0.5000 
    110 CA        -5.3905  -19.9989  -55.5243 C.3       20 UNK         0.1400 
    111 CB        -6.5558  -20.9650  -55.2793 C.3       20 UNK        -0.1800 
    112 C         -4.1621  -20.7660  -56.0621 C.2       20 UNK         0.5000 
    113 O         -4.1051  -21.0334  -57.2628 O.2       20 UNK        -0.5000 
    114 N         -3.2009  -21.0935  -55.1833 N.am      21 UNK        -0.5000 
    115 CA        -1.9313  -21.7161  -55.5547 C.3       21 UNK         0.1400 
    116 CB        -1.2650  -22.3165  -54.3088 C.3       21 UNK        -0.1800 
    117 C         -0.9688  -20.7483  -56.2675 C.2       21 UNK         0.5000 
    118 O         -0.2648  -21.1810  -57.1815 O.2       21 UNK        -0.5000 
    119 N         -0.9421  -19.4756  -55.8450 N.am      22 UNK        -0.5000 
    120 CA        -0.0915  -18.4339  -56.4455 C.3       22 UNK         0.1400 
    121 C         -0.7893  -17.6248  -57.5756 C.2       22 UNK         0.5000 
    122 N         -2.1102  -17.4952  -57.5788 N.am      22 UNK        -0.7600 
    123 O         -0.1211  -17.1257  -58.4772 O.2       22 UNK        -0.5000 
    124 C124        0.5717  -17.5239  -55.3791 C.3       23 UNK        -0.0398 
    125 S125       -0.5682  -16.4264  -54.4652 S.3       23 UNK        -0.2404 
    126 C126        0.3680  -16.1268  -52.9348 C.3       23 UNK        -0.0205 
    127 H127       -5.7505  -10.9513  -43.6281 H         1 UNK         0.0600 
    128 H128       -5.1601  -12.4868  -42.9863 H         1 UNK         0.0600 
    129 H129       -4.4028  -10.9720  -42.4857 H         1 UNK         0.0600 
    130 H130       -3.8966  -13.6035  -44.4411 H         1 UNK         0.3000 
    131 H131       -2.7022  -12.3234  -46.7660 H         1 UNK         0.0600 
    132 H132       -3.8516  -14.5247  -46.9377 H         1 UNK         0.0800 
    133 H133       -2.6509  -15.2512  -45.9008 H         1 UNK         0.0800 
    134 H134       -2.8791  -16.8846  -48.0210 H         1 UNK         0.0800 
    135 H135       -3.4694  -15.9041  -49.3414 H         1 UNK         0.0800 
    136 H136       -1.3444  -15.2095  -51.0361 H         1 UNK         0.1150 
    137 H137        0.7526  -18.7447  -52.2495 H         1 UNK         0.1150 
    138 H138       -1.7470  -18.8247  -48.7704 H         1 UNK         0.1150 
    139 H139       -0.9659  -20.9144  -49.7815 H         1 UNK         0.0800 
    140 H140       -0.1211  -20.8913  -51.2952 H         1 UNK         0.0800 
    141 H141        0.2679  -19.7199  -47.6041 H         1 UNK         0.0800 
    142 H142        1.9360  -20.0505  -47.2665 H         1 UNK         0.0800 
    143 H143        1.2585  -22.6051  -47.4561 H         1 UNK         0.0600 
    144 H144        1.2766  -20.9358  -45.1263 H         1 UNK         0.3000 
    145 H145        1.1903  -23.7210  -42.8442 H         1 UNK         0.0600 
    146 H146        3.2005  -22.5172  -42.0876 H         1 UNK         0.0600 
    147 H147        3.5278  -23.3069  -43.6234 H         1 UNK         0.0600 
    148 H148        3.2401  -21.5728  -43.5722 H         1 UNK         0.0600 
    149 H149        1.1981  -20.9431  -42.3004 H         1 UNK         0.3000 
    150 H150       -1.9728  -20.1419  -42.1917 H         1 UNK         0.0600 
    151 H151       -2.9085  -21.9231  -40.7922 H         1 UNK         0.0600 
    152 H152       -2.5799  -20.5157  -39.7961 H         1 UNK         0.0600 
    153 H153       -1.5022  -21.9110  -39.7412 H         1 UNK         0.0600 
    154 H154       -0.5016  -18.7389  -41.4120 H         1 UNK         0.3000 
    155 H155        1.2488  -18.1825  -38.8887 H         1 UNK         0.0600 
    156 H156        3.3451  -19.3348  -40.8118 H         1 UNK         0.0600 
    157 H157        3.2540  -19.6241  -39.0778 H         1 UNK         0.0600 
    158 H158        3.6330  -18.0182  -39.6753 H         1 UNK         0.0600 
    159 H159        1.5994  -17.7778  -41.8293 H         1 UNK         0.3000 
    160 H160       -0.5271  -14.9649  -41.8391 H         1 UNK         0.0600 
    161 H161        1.3687  -13.8540  -43.0335 H         1 UNK         0.0600 
    162 H162        2.5097  -14.9665  -42.2893 H         1 UNK         0.0600 
    163 H163        1.6178  -13.8187  -41.2939 H         1 UNK         0.0600 
    164 H164        0.9898  -16.1119  -43.9216 H         1 UNK         0.3000 
    165 H165       -0.6044  -19.2199  -44.2620 H         1 UNK         0.0600 
    166 H166       -1.4122  -18.6973  -46.4706 H         1 UNK         0.0600 
    167 H167       -2.3627  -17.7107  -45.3844 H         1 UNK         0.0600 
    168 H168       -1.0358  -16.9850  -46.2878 H         1 UNK         0.0600 
    169 H169        1.1324  -17.7157  -45.9948 H         1 UNK         0.3000 
    170 H170        3.9471  -17.4884  -44.2973 H         1 UNK         0.0600 
    171 H171        4.5737  -19.8481  -44.2918 H         1 UNK         0.0600 
    172 H172        3.8759  -20.1081  -45.8879 H         1 UNK         0.0600 
    173 H173        5.3025  -19.0915  -45.6908 H         1 UNK         0.0600 
    174 H174        3.7235  -17.8511  -47.1095 H         1 UNK         0.3000 
    175 H175        3.8301  -15.6093  -48.2467 H         1 UNK         0.0600 
    176 H176        1.8518  -16.0634  -49.7627 H         1 UNK         0.0600 
    177 H177        2.2796  -17.4878  -48.8381 H         1 UNK         0.0600 
    178 H178        0.8907  -16.5185  -48.3613 H         1 UNK         0.0600 
    179 H179        1.6490  -14.0202  -47.0995 H         1 UNK         0.3000 
    180 H180        2.7306  -11.1353  -48.6423 H         1 UNK         0.0600 
    181 H181        0.2026  -12.4456  -49.7860 H         1 UNK         0.0600 
    182 H182        1.5347  -11.7966  -50.7339 H         1 UNK         0.0600 
    183 H183        0.5474  -10.7148  -49.7663 H         1 UNK         0.0600 
    184 H184        0.1888  -11.7267  -47.4527 H         1 UNK         0.3000 
    185 H185        1.0243  -11.8583  -44.1455 H         1 UNK         0.0600 
    186 H186        1.7045   -9.4660  -44.2609 H         1 UNK         0.0600 
    187 H187        0.3876   -9.1252  -45.3774 H         1 UNK         0.0600 
    188 H188        0.0408   -9.6147  -43.7187 H         1 UNK         0.0600 
    189 H189       -1.3236  -10.8826  -45.5323 H         1 UNK         0.3000 
    190 H190       -1.2956  -21.1061  -45.5144 H         1 UNK         0.3000 
    191 H191       -3.4986  -21.6361  -47.2412 H         1 UNK         0.0600 
    192 H192       -3.4044  -21.2369  -44.2032 H         1 UNK         0.0600 
    193 H193       -4.8573  -21.2022  -45.1926 H         1 UNK         0.0600 
    194 H194       -3.6237  -19.9738  -45.4149 H         1 UNK         0.0600 
    195 H195       -2.0930  -23.5050  -44.4962 H         1 UNK         0.3000 
    196 H196       -3.8733  -25.7178  -44.6799 H         1 UNK         0.0600 
    197 H197       -1.0273  -25.5200  -43.5593 H         1 UNK         0.0600 
    198 H198       -2.1412  -26.8527  -43.2707 H         1 UNK         0.0600 
    199 H199       -2.5211  -25.2472  -42.6654 H         1 UNK         0.0600 
    200 H200       -0.6690  -25.1063  -46.1876 H         1 UNK         0.3000 
    201 H201       -0.3780  -27.6771  -47.3661 H         1 UNK         0.0600 
    202 H202        0.9044  -24.9951  -48.1036 H         1 UNK         0.0600 
    203 H203        1.4498  -26.5710  -48.6647 H         1 UNK         0.0600 
    204 H204        1.5357  -26.1738  -46.9556 H         1 UNK         0.0600 
    205 H205       -1.5238  -24.5615  -48.7854 H         1 UNK         0.3000 
    206 H206       -2.0266  -25.7442  -51.3914 H         1 UNK         0.0600 
    207 H207       -1.2935  -23.4013  -51.1847 H         1 UNK         0.0600 
    208 H208       -2.9138  -23.4307  -51.8718 H         1 UNK         0.0600 
    209 H209       -2.6904  -23.0128  -50.1858 H         1 UNK         0.0600 
    210 H210       -3.9276  -25.2499  -48.5068 H         1 UNK         0.3000 
    211 H211       -5.9482  -25.7088  -47.8232 H         1 UNK         0.0600 
    212 H212       -6.5587  -27.1016  -50.4796 H         1 UNK         0.0600 
    213 H213       -7.4882  -27.2151  -48.9952 H         1 UNK         0.0600 
    214 H214       -5.8587  -27.8696  -49.0548 H         1 UNK         0.0600 
    215 H215       -5.9802  -24.5416  -51.1707 H         1 UNK         0.3000 
    216 H216       -8.2815  -22.7213  -50.6701 H         1 UNK         0.0600 
    217 H217       -8.2242  -22.4884  -53.1602 H         1 UNK         0.0600 
    218 H218       -8.3740  -24.1654  -52.6700 H         1 UNK         0.0600 
    219 H219       -6.8202  -23.5560  -53.2275 H         1 UNK         0.0600 
    220 H220       -5.1450  -22.5275  -49.9918 H         1 UNK         0.3000 
    221 H221       -3.5914  -20.9593  -49.6659 H         1 UNK         0.0600 
    222 H222       -6.0302  -19.1109  -49.5152 H         1 UNK         0.0600 
    223 H223       -5.3596  -20.0722  -48.2064 H         1 UNK         0.0600 
    224 H224       -4.4264  -18.7495  -48.8758 H         1 UNK         0.0600 
    225 H225       -4.9852  -18.1748  -51.0090 H         1 UNK         0.3000 
    226 H226       -2.8208  -17.6647  -52.7080 H         1 UNK         0.0600 
    227 H227       -4.1804  -15.8950  -51.6372 H         1 UNK         0.0600 
    228 H228       -4.1633  -15.6602  -53.3742 H         1 UNK         0.0600 
    229 H229       -5.5870  -16.3495  -52.6011 H         1 UNK         0.0600 
    230 H230       -5.5835  -19.5823  -53.4514 H         1 UNK         0.3000 
    231 H231       -5.6926  -19.2800  -56.2885 H         1 UNK         0.0600 
    232 H232       -7.4414  -20.4405  -54.9198 H         1 UNK         0.0600 
    233 H233       -6.2852  -21.7176  -54.5406 H         1 UNK         0.0600 
    234 H234       -6.8330  -21.4872  -56.1959 H         1 UNK         0.0600 
    235 H235       -3.3184  -20.8497  -54.2045 H         1 UNK         0.3000 
    236 H236       -2.1419  -22.5359  -56.2450 H         1 UNK         0.0600 
    237 H237       -1.1035  -21.5665  -53.5340 H         1 UNK         0.0600 
    238 H238       -1.8774  -23.1133  -53.8904 H         1 UNK         0.0600 
    239 H239       -0.2949  -22.7517  -54.5525 H         1 UNK         0.0600 
    240 H240       -1.5841  -19.1719  -55.1270 H         1 UNK         0.3000 
    241 H241        0.7448  -18.9320  -56.9400 H         1 UNK         0.0600 
    242 H242       -2.5547  -16.9778  -58.3196 H         1 UNK         0.3800 
    243 H243       -2.6571  -17.7878  -56.7730 H         1 UNK         0.3800 
    244 H244        1.1073  -18.1511  -54.6656 H         1 UNK         0.0800 
    245 H245        1.3324  -16.8979  -55.8485 H         1 UNK         0.0800 
    246 H246        1.4184  -16.3920  -53.0624 H         1 UNK         0.0800 
    247 H247        0.3551  -15.0563  -52.7241 H         1 UNK         0.0800 
@<TRIPOS>BOND
     1    1    2 1    
     2    1  127 1    
     3    1  128 1    
     4    1  129 1    
     5    2    3 2    
     6    2    4 am   BACKBONE|DICT|INTERRES
     7    4    5 1    
     8    4  130 1    
     9    5    6 1    
    10    5   65 1    
    11    5  131 1    
    12    6    7 1    
    13    6  132 1    
    14    6  133 1    
    15    7    8 1    
    16    8    9 1    
    17    8  134 1    
    18    8  135 1    
    19    9   10 ar   
    20    9   14 ar   
    21   10   11 ar   
    22   10  136 1    
    23   11   12 ar   
    24   11  126 1    
    25   12   13 ar   
    26   12  137 1    
    27   13   14 ar   
    28   13   15 1    
    29   14  138 1    
    30   15   16 1    
    31   15  139 1    
    32   15  140 1    
    33   16   17 1    
    34   17   18 1    
    35   17  141 1    
    36   17  142 1    
    37   18   19 1    
    38   18   67 1    
    39   18  143 1    
    40   19   20 am   BACKBONE|DICT|INTERRES
    41   19  144 1    
    42   20   21 2    
    43   20   22 1    
    44   22   23 1    
    45   22   24 1    
    46   22  145 1    
    47   23  146 1    
    48   23  147 1    
    49   23  148 1    
    50   24   25 am   BACKBONE|DICT|INTERRES
    51   24  149 1    
    52   25   26 2    
    53   25   27 1    
    54   27   28 1    
    55   27   29 1    
    56   27  150 1    
    57   28  151 1    
    58   28  152 1    
    59   28  153 1    
    60   29   30 am   BACKBONE|DICT|INTERRES
    61   29  154 1    
    62   30   31 2    
    63   30   32 1    
    64   32   33 1    
    65   32   34 1    
    66   32  155 1    
    67   33  156 1    
    68   33  157 1    
    69   33  158 1    
    70   34   35 am   BACKBONE|DICT|INTERRES
    71   34  159 1    
    72   35   36 2    
    73   35   37 1    
    74   37   38 1    
    75   37   39 1    
    76   37  160 1    
    77   38  161 1    
    78   38  162 1    
    79   38  163 1    
    80   39   40 am   BACKBONE|DICT|INTERRES
    81   39  164 1    
    82   40   41 2    
    83   40   42 1    
    84   42   43 1    
    85   42   44 1    
    86   42  165 1    
    87   43  166 1    
    88   43  167 1    
    89   43  168 1    
    90   44   45 am   BACKBONE|DICT|INTERRES
    91   44  169 1    
    92   45   46 2    
    93   45   47 1    
    94   47   48 1    
    95   47   49 1    
    96   47  170 1    
    97   48  171 1    
    98   48  172 1    
    99   48  173 1    
   100   49   50 am   BACKBONE|DICT|INTERRES
   101   49  174 1    
   102   50   51 2    
   103   50   52 1    
   104   52   53 1    
   105   52   54 1    
   106   52  175 1    
   107   53  176 1    
   108   53  177 1    
   109   53  178 1    
   110   54   55 am   BACKBONE|DICT|INTERRES
   111   54  179 1    
   112   55   56 2    
   113   55   57 1    
   114   57   58 1    
   115   57   59 1    
   116   57  180 1    
   117   58  181 1    
   118   58  182 1    
   119   58  183 1    
   120   59   60 am   BACKBONE|DICT|INTERRES
   121   59  184 1    
   122   60   61 2    
   123   60   62 1    
   124   62   63 1    
   125   62   64 1    
   126   62  185 1    
   127   63  186 1    
   128   63  187 1    
   129   63  188 1    
   130   64   65 am   BACKBONE|DICT|INTERRES
   131   64  189 1    
   132   65   66 2    
   133   67   68 2    
   134   67   69 am   BACKBONE|DICT|INTERRES
   135   69   70 1    
   136   69  190 1    
   137   70   71 1    
   138   70   72 1    
   139   70  191 1    
   140   71  192 1    
   141   71  193 1    
   142   71  194 1    
   143   72   73 2    
   144   72   74 am   BACKBONE|DICT|INTERRES
   145   74   75 1    
   146   74  195 1    
   147   75   76 1    
   148   75   77 1    
   149   75  196 1    
   150   76  197 1    
   151   76  198 1    
   152   76  199 1    
   153   77   78 2    
   154   77   79 am   BACKBONE|DICT|INTERRES
   155   79   80 1    
   156   79  200 1    
   157   80   81 1    
   158   80   82 1    
   159   80  201 1    
   160   81  202 1    
   161   81  203 1    
   162   81  204 1    
   163   82   83 2    
   164   82   84 am   BACKBONE|DICT|INTERRES
   165   84   85 1    
   166   84  205 1    
   167   85   86 1    
   168   85   87 1    
   169   85  206 1    
   170   86  207 1    
   171   86  208 1    
   172   86  209 1    
   173   87   88 2    
   174   87   89 am   BACKBONE|DICT|INTERRES
   175   89   90 1    
   176   89  210 1    
   177   90   91 1    
   178   90   92 1    
   179   90  211 1    
   180   91  212 1    
   181   91  213 1    
   182   91  214 1    
   183   92   93 2    
   184   92   94 am   BACKBONE|DICT|INTERRES
   185   94   95 1    
   186   94  215 1    
   187   95   96 1    
   188   95   97 1    
   189   95  216 1    
   190   96  217 1    
   191   96  218 1    
   192   96  219 1    
   193   97   98 2    
   194   97   99 am   BACKBONE|DICT|INTERRES
   195   99  100 1    
   196   99  220 1    
   197  100  101 1    
   198  100  102 1    
   199  100  221 1    
   200  101  222 1    
   201  101  223 1    
   202  101  224 1    
   203  102  103 2    
   204  102  104 am   BACKBONE|DICT|INTERRES
   205  104  105 1    
   206  104  225 1    
   207  105  106 1    
   208  105  107 1    
   209  105  226 1    
   210  106  227 1    
   211  106  228 1    
   212  106  229 1    
   213  107  108 2    
   214  107  109 am   BACKBONE|DICT|INTERRES
   215  109  110 1    
   216  109  230 1    
   217  110  111 1    
   218  110  112 1    
   219  110  231 1    
   220  111  232 1    
   221  111  233 1    
   222  111  234 1    
   223  112  113 2    
   224  112  114 am   BACKBONE|DICT|INTERRES
   225  114  115 1    
   226  114  235 1    
   227  115  116 1    
   228  115  117 1    
   229  115  236 1    
   230  116  237 1    
   231  116  238 1    
   232  116  239 1    
   233  117  118 2    
   234  117  119 am   BACKBONE|DICT|INTERRES
   235  119  120 1    
   236  119  240 1    
   237  120  121 1    
   238  120  124 1    
   239  120  241 1    
   240  121  122 am   BACKBONE|DICT|INTERRES
   241  121  123 2    
   242  122  242 1    
   243  122  243 1    
   244  124  125 1    
   245  124  244 1    
   246  124  245 1    
   247  125  126 1    
   248  126  246 1    
   249  126  247 1    
@<TRIPOS>SUBSTRUCTURE
     1 UNK         1 GROUP             0       ****    0 ROOT    
