@<TRIPOS>MOLECULE
3R540
247   249    1
SMALL
USER_CHARGES


@<TRIPOS>ATOM
      1 CA         -6.6590  -14.5896  -47.3873 C.3       0 UNK        -0.1800 
      2 C          -5.5594  -13.6109  -47.7742 C.2       0 UNK         0.5000 
      3 O          -5.8031  -12.4059  -47.8329 O.2       0 UNK        -0.5000 
      4 N          -4.3528  -14.1272  -48.0419 N.am      1 UNK        -0.5000 
      5 CA         -3.1708  -13.3438  -48.4217 C.3       1 UNK         0.1400 
      6 C6         -2.0956  -14.2613  -49.0567 C.3       23 UNK        -0.0398 
      7 S7         -0.7140  -13.3630  -49.8432 S.3       23 UNK        -0.2404 
      8 C8         -0.3765  -14.3846  -51.3192 C.3       23 UNK        -0.0205 
      9 C9          0.1904  -15.7856  -51.0678 C.ar      23 UNK        -0.0193 
     10 C10         0.3256  -16.6408  -52.1634 C.ar      23 UNK        -0.1150 
     11 C11         0.8503  -17.9280  -52.0146 C.ar      23 UNK        -0.0193 
     12 C12         1.2613  -18.3564  -50.7493 C.ar      23 UNK        -0.1150 
     13 C13         1.1445  -17.5165  -49.6343 C.ar      23 UNK        -0.0193 
     14 C14         0.6080  -16.2369  -49.8083 C.ar      23 UNK        -0.1150 
     15 C15         1.6227  -17.9117  -48.2339 C.3       23 UNK        -0.0205 
     16 S16         1.9760  -19.6831  -47.9599 S.3       23 UNK        -0.2404 
     17 C17         0.3034  -20.3995  -48.0300 C.3       23 UNK        -0.0398 
     18 CA          0.2185  -21.7688  -47.3154 C.3       11 UNK         0.1400 
     19 N           0.5007  -21.6715  -45.8804 N.am      11 UNK        -0.5000 
     20 C           0.7867  -22.7132  -45.0873 C.2       10 UNK         0.5000 
     21 O           0.9142  -23.8674  -45.4947 O.2       10 UNK        -0.5000 
     22 CA          0.8945  -22.4225  -43.5777 C.3       10 UNK         0.1400 
     23 CB          2.3249  -22.0274  -43.1879 C.3       10 UNK        -0.1800 
     24 N          -0.0413  -21.3801  -43.1497 N.am      10 UNK        -0.5000 
     25 C          -1.3694  -21.5642  -43.0965 C.2       9 UNK         0.5000 
     26 O          -1.9150  -22.6353  -43.3549 O.2       9 UNK        -0.5000 
     27 CA         -2.2464  -20.3509  -42.7476 C.3       9 UNK         0.1400 
     28 CB         -2.5202  -20.3091  -41.2384 C.3       9 UNK        -0.1800 
     29 N          -1.6746  -19.0827  -43.2044 N.am      9 UNK        -0.5000 
     30 C          -1.5296  -18.7536  -44.4980 C.2       8 UNK         0.5000 
     31 O          -1.8560  -19.5080  -45.4160 O.2       8 UNK        -0.5000 
     32 CA         -0.8675  -17.4041  -44.8480 C.3       8 UNK         0.1400 
     33 CB         -1.5752  -16.6866  -46.0137 C.3       8 UNK        -0.1800 
     34 N          -0.6685  -16.5075  -43.7070 N.am      8 UNK        -0.5000 
     35 C          -1.5885  -15.8835  -42.9581 C.2       7 UNK         0.5000 
     36 O          -2.7942  -15.8793  -43.2064 O.2       7 UNK        -0.5000 
     37 CA         -1.0430  -15.1640  -41.7037 C.3       7 UNK         0.1400 
     38 CB         -2.1248  -14.9124  -40.6324 C.3       7 UNK        -0.1800 
     39 N           0.1290  -15.8530  -41.1359 N.am      7 UNK        -0.5000 
     40 C           0.1492  -17.0984  -40.6358 C.2       6 UNK         0.5000 
     41 O          -0.8573  -17.7960  -40.5294 O.2       6 UNK        -0.5000 
     42 CA          1.5284  -17.6734  -40.2535 C.3       6 UNK         0.1400 
     43 CB          1.4564  -19.1420  -39.7817 C.3       6 UNK        -0.1800 
     44 N           2.5147  -17.5320  -41.3296 N.am      6 UNK        -0.5000 
     45 C           2.4636  -18.0376  -42.5701 C.2       5 UNK         0.5000 
     46 O           1.5222  -18.7121  -42.9952 O.2       5 UNK        -0.5000 
     47 CA          3.6618  -17.7032  -43.4916 C.3       5 UNK         0.1400 
     48 CB          3.4969  -18.2837  -44.9072 C.3       5 UNK        -0.1800 
     49 N           3.8822  -16.2624  -43.6271 N.am      5 UNK        -0.5000 
     50 C           4.3637  -15.4230  -42.7005 C.2       4 UNK         0.5000 
     51 O           4.7657  -15.7916  -41.5959 O.2       4 UNK        -0.5000 
     52 CA          4.3646  -13.9169  -43.0450 C.3       4 UNK         0.1400 
     53 CB          5.7934  -13.4383  -43.3452 C.3       4 UNK        -0.1800 
     54 N           3.4936  -13.5379  -44.1663 N.am      4 UNK        -0.5000 
     55 C           2.1652  -13.7071  -44.2136 C.2       3 UNK         0.5000 
     56 O           1.5181  -14.2470  -43.3150 O.2       3 UNK        -0.5000 
     57 CA          1.4722  -13.2654  -45.5160 C.3       3 UNK         0.1400 
     58 CB          1.8337  -14.2223  -46.6640 C.3       3 UNK        -0.1800 
     59 N           0.0151  -13.2272  -45.3998 N.am      3 UNK        -0.5000 
     60 C          -0.6951  -12.3248  -44.7109 C.2       2 UNK         0.5000 
     61 O          -0.1891  -11.3922  -44.0842 O.2       2 UNK        -0.5000 
     62 CA         -2.2317  -12.5040  -44.7438 C.3       2 UNK         0.1400 
     63 CB         -2.9984  -11.2162  -44.3772 C.3       2 UNK        -0.1800 
     64 N          -2.7259  -13.0682  -46.0098 N.am      2 UNK        -0.5000 
     65 C          -2.6109  -12.5231  -47.2338 C.2       1 UNK         0.5000 
     66 O          -2.0986  -11.4236  -47.4476 O.2       1 UNK        -0.5000 
     67 C          -1.1495  -22.4380  -47.5603 C.2       11 UNK         0.5000 
     68 O          -1.2651  -23.2818  -48.4479 O.2       11 UNK        -0.5000 
     69 N          -2.1546  -22.0814  -46.7463 N.am      12 UNK        -0.5000 
     70 CA         -3.4902  -22.6774  -46.7780 C.3       12 UNK         0.1400 
     71 CB         -4.4404  -21.8705  -45.8831 C.3       12 UNK        -0.1800 
     72 C          -3.4862  -24.1662  -46.3798 C.2       12 UNK         0.5000 
     73 O          -4.1659  -24.9673  -47.0216 O.2       12 UNK        -0.5000 
     74 N          -2.6901  -24.5209  -45.3610 N.am      13 UNK        -0.5000 
     75 CA         -2.4728  -25.8980  -44.9104 C.3       13 UNK         0.1400 
     76 CB         -1.6508  -25.8912  -43.6132 C.3       13 UNK        -0.1800 
     77 C          -1.7957  -26.7846  -45.9724 C.2       13 UNK         0.5000 
     78 O          -2.0788  -27.9821  -46.0328 O.2       13 UNK        -0.5000 
     79 N          -0.9539  -26.1825  -46.8229 N.am      14 UNK        -0.5000 
     80 CA         -0.3039  -26.8131  -47.9711 C.3       14 UNK         0.1400 
     81 CB          0.9700  -26.0222  -48.3201 C.3       14 UNK        -0.1800 
     82 C          -1.2698  -26.9566  -49.1683 C.2       14 UNK         0.5000 
     83 O          -0.9937  -26.4462  -50.2536 O.2       14 UNK        -0.5000 
     84 N          -2.3918  -27.6545  -48.9418 N.am      15 UNK        -0.5000 
     85 CA         -3.4341  -28.0122  -49.9107 C.3       15 UNK         0.1400 
     86 CB         -2.8924  -29.0496  -50.9168 C.3       15 UNK        -0.1800 
     87 C          -4.0938  -26.7959  -50.5979 C.2       15 UNK         0.5000 
     88 O          -4.3438  -26.8304  -51.8041 O.2       15 UNK        -0.5000 
     89 N          -4.3703  -25.7461  -49.8096 N.am      16 UNK        -0.5000 
     90 CA         -5.0271  -24.4923  -50.1996 C.3       16 UNK         0.1400 
     91 CB         -6.4782  -24.7485  -50.6593 C.3       16 UNK        -0.1800 
     92 C          -4.2266  -23.6379  -51.2054 C.2       16 UNK         0.5000 
     93 O          -4.8136  -22.7960  -51.8865 O.2       16 UNK        -0.5000 
     94 N          -2.9030  -23.8330  -51.2725 N.am      17 UNK        -0.5000 
     95 CA         -1.9922  -23.1198  -52.1673 C.3       17 UNK         0.1400 
     96 CB         -0.7548  -23.9996  -52.4191 C.3       17 UNK        -0.1800 
     97 C          -1.6238  -21.7224  -51.6254 C.2       17 UNK         0.5000 
     98 O          -0.4470  -21.4392  -51.4011 O.2       17 UNK        -0.5000 
     99 N          -2.6394  -20.8790  -51.4210 N.am      18 UNK        -0.5000 
    100 CA        -2.5334  -19.5035  -50.9470 C.3       18 UNK         0.1400 
    101 CB        -2.9552  -19.4533  -49.4684 C.3       18 UNK        -0.1800 
    102 C         -3.4559  -18.6055  -51.7810 C.2       18 UNK         0.5000 
    103 O         -4.3553  -19.1102  -52.4555 O.2       18 UNK        -0.5000 
    104 N         -3.2418  -17.2852  -51.6851 N.am      19 UNK        -0.5000 
    105 CA        -4.1182  -16.2183  -52.1938 C.3       19 UNK         0.1400 
    106 CB        -5.3775  -16.1122  -51.3087 C.3       19 UNK        -0.1800 
    107 C         -4.4507  -16.3400  -53.6980 C.2       19 UNK         0.5000 
    108 O         -5.6022  -16.1636  -54.0983 O.2       19 UNK        -0.5000 
    109 N         -3.4200  -16.6618  -54.4920 N.am      20 UNK        -0.5000 
    110 CA        -3.4335  -16.8645  -55.9460 C.3       20 UNK         0.1400 
    111 CB        -3.9719  -15.6281  -56.6968 C.3       20 UNK        -0.1800 
    112 C         -4.0986  -18.1781  -56.4142 C.2       20 UNK         0.5000 
    113 O         -4.1953  -18.3955  -57.6224 O.2       20 UNK        -0.5000 
    114 N         -4.4651  -19.0722  -55.4827 N.am      21 UNK        -0.5000 
    115 CA        -4.8476  -20.4642  -55.7646 C.3       21 UNK         0.1400 
    116 CB        -5.9517  -20.8988  -54.7869 C.3       21 UNK        -0.1800 
    117 C         -3.6265  -21.4123  -55.7073 C.2       21 UNK         0.5000 
    118 O         -3.7900  -22.6313  -55.6637 O.2       21 UNK        -0.5000 
    119 N         -2.4262  -20.8226  -55.7090 N.am      22 UNK        -0.5000 
    120 CA        -1.0682  -21.3759  -55.5681 C.3       22 UNK         0.1400 
    121 C         -0.6220  -22.4518  -56.6100 C.2       22 UNK         0.5000 
    122 N         -1.5252  -23.1241  -57.3072 N.am      22 UNK        -0.7600 
    123 O          0.5694  -22.6914  -56.7865 O.2       22 UNK        -0.5000 
    124 C124       -0.0408  -20.2146  -55.4606 C.3       23 UNK        -0.0398 
    125 S125       -0.5121  -18.9594  -54.2152 S.3       23 UNK        -0.2404 
    126 C126        1.0077  -18.8487  -53.2189 C.3       23 UNK        -0.0205 
    127 H127       -6.2999  -15.6189  -47.3708 H         1 UNK         0.0600 
    128 H128       -7.4820  -14.5288  -48.0994 H         1 UNK         0.0600 
    129 H129       -7.0447  -14.3482  -46.3969 H         1 UNK         0.0600 
    130 H130       -4.2246  -15.1264  -47.9780 H         1 UNK         0.3000 
    131 H131       -3.4869  -12.6288  -49.1848 H         1 UNK         0.0600 
    132 H132       -2.5651  -14.8867  -49.8157 H         1 UNK         0.0800 
    133 H133       -1.6878  -14.9492  -48.3186 H         1 UNK         0.0800 
    134 H134        0.3382  -13.8412  -51.9388 H         1 UNK         0.0800 
    135 H135       -1.2901  -14.4601  -51.9093 H         1 UNK         0.0800 
    136 H136        0.0274  -16.2992  -53.1448 H         1 UNK         0.1150 
    137 H137        1.6835  -19.3452  -50.6468 H         1 UNK         0.1150 
    138 H138        0.5416  -15.5894  -48.9490 H         1 UNK         0.1150 
    139 H139        0.8897  -17.5874  -47.4961 H         1 UNK         0.0800 
    140 H140        2.5356  -17.3535  -48.0226 H         1 UNK         0.0800 
    141 H141        0.0359  -20.4995  -49.0810 H         1 UNK         0.0800 
    142 H142       -0.4056  -19.6927  -47.5984 H         1 UNK         0.0800 
    143 H143        0.9734  -22.4213  -47.7603 H         1 UNK         0.0600 
    144 H144        0.3920  -20.7608  -45.4604 H         1 UNK         0.3000 
    145 H145        0.6466  -23.3429  -43.0446 H         1 UNK         0.0600 
    146 H146        2.6442  -21.1227  -43.7008 H         1 UNK         0.0600 
    147 H147        3.0312  -22.8174  -43.4456 H         1 UNK         0.0600 
    148 H148        2.4079  -21.8510  -42.1153 H         1 UNK         0.0600 
    149 H149        0.3444  -20.4615  -42.9545 H         1 UNK         0.3000 
    150 H150       -3.2054  -20.4758  -43.2530 H         1 UNK         0.0600 
    151 H151       -1.5953  -20.2831  -40.6617 H         1 UNK         0.0600 
    152 H152       -3.0736  -21.1939  -40.9215 H         1 UNK         0.0600 
    153 H153       -3.1156  -19.4375  -40.9659 H         1 UNK         0.0600 
    154 H154       -1.3526  -18.4456  -42.4849 H         1 UNK         0.3000 
    155 H155        0.1355  -17.6604  -45.1889 H         1 UNK         0.0600 
    156 H156       -2.6134  -16.4526  -45.7785 H         1 UNK         0.0600 
    157 H157       -1.5788  -17.3046  -46.9123 H         1 UNK         0.0600 
    158 H158       -1.0635  -15.7590  -46.2603 H         1 UNK         0.0600 
    159 H159        0.2882  -16.4280  -43.3898 H         1 UNK         0.3000 
    160 H160       -0.6986  -14.1856  -42.0384 H         1 UNK         0.0600 
    161 H161       -2.5998  -15.8372  -40.3045 H         1 UNK         0.0600 
    162 H162       -2.9117  -14.2643  -41.0200 H         1 UNK         0.0600 
    163 H163       -1.7041  -14.4210  -39.7553 H         1 UNK         0.0600 
    164 H164        1.0071  -15.3635  -41.2509 H         1 UNK         0.3000 
    165 H165        1.8907  -17.0743  -39.4169 H         1 UNK         0.0600 
    166 H166        0.8013  -19.2419  -38.9155 H         1 UNK         0.0600 
    167 H167        1.0707  -19.8023  -40.5591 H         1 UNK         0.0600 
    168 H168        2.4395  -19.5100  -39.4886 H         1 UNK         0.0600 
    169 H169        3.3254  -16.9583  -41.1121 H         1 UNK         0.3000 
    170 H170        4.5510  -18.1503  -43.0430 H         1 UNK         0.0600 
    171 H171        4.3595  -18.0535  -45.5327 H         1 UNK         0.0600 
    172 H172        3.4009  -19.3680  -44.8871 H         1 UNK         0.0600 
    173 H173        2.6112  -17.8851  -45.4017 H         1 UNK         0.0600 
    174 H174        3.5672  -15.8507  -44.4918 H         1 UNK         0.3000 
    175 H175        4.0064  -13.3887  -42.1592 H         1 UNK         0.0600 
    176 H176        6.4670  -13.6708  -42.5191 H         1 UNK         0.0600 
    177 H177        6.1962  -13.9132  -44.2407 H         1 UNK         0.0600 
    178 H178        5.8259  -12.3586  -43.4926 H         1 UNK         0.0600 
    179 H179        3.9542  -13.1037  -44.9532 H         1 UNK         0.3000 
    180 H180        1.8244  -12.2625  -45.7662 H         1 UNK         0.0600 
    181 H181        1.4810  -15.2361  -46.4712 H         1 UNK         0.0600 
    182 H182        2.9118  -14.2738  -46.8198 H         1 UNK         0.0600 
    183 H183        1.3956  -13.8828  -47.6021 H         1 UNK         0.0600 
    184 H184       -0.4887  -13.9629  -45.8670 H         1 UNK         0.3000 
    185 H185       -2.4639  -13.2396  -43.9745 H         1 UNK         0.0600 
    186 H186       -2.7467  -10.8851  -43.3691 H         1 UNK         0.0600 
    187 H187       -2.7654  -10.3963  -45.0570 H         1 UNK         0.0600 
    188 H188       -4.0760  -11.3783  -44.4043 H         1 UNK         0.0600 
    189 H189       -3.2017  -13.9559  -45.9331 H         1 UNK         0.3000 
    190 H190       -2.0043  -21.3289  -46.0807 H         1 UNK         0.3000 
    191 H191       -3.8530  -22.6029  -47.8041 H         1 UNK         0.0600 
    192 H192       -4.4448  -20.8156  -46.1592 H         1 UNK         0.0600 
    193 H193       -5.4636  -22.2367  -45.9746 H         1 UNK         0.0600 
    194 H194       -4.1617  -21.9424  -44.8324 H         1 UNK         0.0600 
    195 H195       -2.2256  -23.7924  -44.8252 H         1 UNK         0.3000 
    196 H196       -3.4495  -26.3346  -44.6925 H         1 UNK         0.0600 
    197 H197       -0.6738  -25.4299  -43.7596 H         1 UNK         0.0600 
    198 H198       -1.4844  -26.9060  -43.2494 H         1 UNK         0.0600 
    199 H199       -2.1653  -25.3443  -42.8230 H         1 UNK         0.0600 
    200 H200       -0.7885  -25.1912  -46.7095 H         1 UNK         0.3000 
    201 H201        0.0058  -27.8209  -47.6873 H         1 UNK         0.0600 
    202 H202        0.7419  -25.0037  -48.6339 H         1 UNK         0.0600 
    203 H203        1.6444  -25.9642  -47.4655 H         1 UNK         0.0600 
    204 H204        1.5165  -26.5009  -49.1335 H         1 UNK         0.0600 
    205 H205       -2.5291  -27.9988  -47.9966 H         1 UNK         0.3000 
    206 H206       -4.2261  -28.4965  -49.3377 H         1 UNK         0.0600 
    207 H207       -2.4635  -29.9103  -50.4035 H         1 UNK         0.0600 
    208 H208       -3.6882  -29.4230  -51.5624 H         1 UNK         0.0600 
    209 H209       -2.1214  -28.6242  -51.5600 H         1 UNK         0.0600 
    210 H210       -4.1205  -25.7974  -48.8261 H         1 UNK         0.3000 
    211 H211       -5.0888  -23.8921  -49.2932 H         1 UNK         0.0600 
    212 H212       -7.0249  -25.3427  -49.9270 H         1 UNK         0.0600 
    213 H213       -7.0213  -23.8109  -50.7827 H         1 UNK         0.0600 
    214 H214       -6.5156  -25.2728  -51.6144 H         1 UNK         0.0600 
    215 H215       -2.4775  -24.5128  -50.6550 H         1 UNK         0.3000 
    216 H216       -2.4947  -22.9764  -53.1255 H         1 UNK         0.0600 
    217 H217       -0.1973  -24.1754  -51.4981 H         1 UNK         0.0600 
    218 H218       -0.0727  -23.5316  -53.1293 H         1 UNK         0.0600 
    219 H219       -1.0370  -24.9694  -52.8295 H         1 UNK         0.0600 
    220 H220       -3.5752  -21.1764  -51.6830 H         1 UNK         0.3000 
    221 H221       -1.5095  -19.1436  -51.0512 H         1 UNK         0.0600 
    222 H222       -4.0153  -19.6792  -49.3444 H         1 UNK         0.0600 
    223 H223       -2.4009  -20.1735  -48.8730 H         1 UNK         0.0600 
    224 H224       -2.7747  -18.4674  -49.0388 H         1 UNK         0.0600 
    225 H225       -2.4468  -16.9758  -51.1451 H         1 UNK         0.3000 
    226 H226       -3.5672  -15.2836  -52.0870 H         1 UNK         0.0600 
    227 H227       -5.1135  -15.9934  -50.2584 H         1 UNK         0.0600 
    228 H228       -5.9839  -15.2499  -51.5884 H         1 UNK         0.0600 
    229 H229       -6.0063  -16.9990  -51.3965 H         1 UNK         0.0600 
    230 H230       -2.5276  -16.8244  -54.0466 H         1 UNK         0.3000 
    231 H231       -2.3831  -16.9653  -56.2231 H         1 UNK         0.0600 
    232 H232       -5.0471  -15.5058  -56.5656 H         1 UNK         0.0600 
    233 H233       -3.7869  -15.7121  -57.7683 H         1 UNK         0.0600 
    234 H234       -3.4839  -14.7149  -56.3564 H         1 UNK         0.0600 
    235 H235       -4.3725  -18.8345  -54.4997 H         1 UNK         0.3000 
    236 H236       -5.2586  -20.5353  -56.7734 H         1 UNK         0.0600 
    237 H237       -5.5831  -20.9653  -53.7640 H         1 UNK         0.0600 
    238 H238       -6.7883  -20.2003  -54.7980 H         1 UNK         0.0600 
    239 H239       -6.3444  -21.8809  -55.0524 H         1 UNK         0.0600 
    240 H240       -2.4433  -19.8157  -55.7505 H         1 UNK         0.3000 
    241 H241       -1.0529  -21.8980  -54.6143 H         1 UNK         0.0600 
    242 H242       -1.2338  -23.8195  -57.9757 H         1 UNK         0.3800 
    243 H243       -2.5048  -23.0222  -57.0660 H         1 UNK         0.3800 
    244 H244        0.0632  -19.7118  -56.4235 H         1 UNK         0.0800 
    245 H245        0.9480  -20.6056  -55.2155 H         1 UNK         0.0800 
    246 H246        1.8229  -18.4798  -53.8426 H         1 UNK         0.0800 
    247 H247        1.2867  -19.8527  -52.8948 H         1 UNK         0.0800 
@<TRIPOS>BOND
     1    1    2 1    
     2    1  127 1    
     3    1  128 1    
     4    1  129 1    
     5    2    3 2    
     6    2    4 am   BACKBONE|DICT|INTERRES
     7    4    5 1    
     8    4  130 1    
     9    5    6 1    
    10    5   65 1    
    11    5  131 1    
    12    6    7 1    
    13    6  132 1    
    14    6  133 1    
    15    7    8 1    
    16    8    9 1    
    17    8  134 1    
    18    8  135 1    
    19    9   10 ar   
    20    9   14 ar   
    21   10   11 ar   
    22   10  136 1    
    23   11   12 ar   
    24   11  126 1    
    25   12   13 ar   
    26   12  137 1    
    27   13   14 ar   
    28   13   15 1    
    29   14  138 1    
    30   15   16 1    
    31   15  139 1    
    32   15  140 1    
    33   16   17 1    
    34   17   18 1    
    35   17  141 1    
    36   17  142 1    
    37   18   19 1    
    38   18   67 1    
    39   18  143 1    
    40   19   20 am   BACKBONE|DICT|INTERRES
    41   19  144 1    
    42   20   21 2    
    43   20   22 1    
    44   22   23 1    
    45   22   24 1    
    46   22  145 1    
    47   23  146 1    
    48   23  147 1    
    49   23  148 1    
    50   24   25 am   BACKBONE|DICT|INTERRES
    51   24  149 1    
    52   25   26 2    
    53   25   27 1    
    54   27   28 1    
    55   27   29 1    
    56   27  150 1    
    57   28  151 1    
    58   28  152 1    
    59   28  153 1    
    60   29   30 am   BACKBONE|DICT|INTERRES
    61   29  154 1    
    62   30   31 2    
    63   30   32 1    
    64   32   33 1    
    65   32   34 1    
    66   32  155 1    
    67   33  156 1    
    68   33  157 1    
    69   33  158 1    
    70   34   35 am   BACKBONE|DICT|INTERRES
    71   34  159 1    
    72   35   36 2    
    73   35   37 1    
    74   37   38 1    
    75   37   39 1    
    76   37  160 1    
    77   38  161 1    
    78   38  162 1    
    79   38  163 1    
    80   39   40 am   BACKBONE|DICT|INTERRES
    81   39  164 1    
    82   40   41 2    
    83   40   42 1    
    84   42   43 1    
    85   42   44 1    
    86   42  165 1    
    87   43  166 1    
    88   43  167 1    
    89   43  168 1    
    90   44   45 am   BACKBONE|DICT|INTERRES
    91   44  169 1    
    92   45   46 2    
    93   45   47 1    
    94   47   48 1    
    95   47   49 1    
    96   47  170 1    
    97   48  171 1    
    98   48  172 1    
    99   48  173 1    
   100   49   50 am   BACKBONE|DICT|INTERRES
   101   49  174 1    
   102   50   51 2    
   103   50   52 1    
   104   52   53 1    
   105   52   54 1    
   106   52  175 1    
   107   53  176 1    
   108   53  177 1    
   109   53  178 1    
   110   54   55 am   BACKBONE|DICT|INTERRES
   111   54  179 1    
   112   55   56 2    
   113   55   57 1    
   114   57   58 1    
   115   57   59 1    
   116   57  180 1    
   117   58  181 1    
   118   58  182 1    
   119   58  183 1    
   120   59   60 am   BACKBONE|DICT|INTERRES
   121   59  184 1    
   122   60   61 2    
   123   60   62 1    
   124   62   63 1    
   125   62   64 1    
   126   62  185 1    
   127   63  186 1    
   128   63  187 1    
   129   63  188 1    
   130   64   65 am   BACKBONE|DICT|INTERRES
   131   64  189 1    
   132   65   66 2    
   133   67   68 2    
   134   67   69 am   BACKBONE|DICT|INTERRES
   135   69   70 1    
   136   69  190 1    
   137   70   71 1    
   138   70   72 1    
   139   70  191 1    
   140   71  192 1    
   141   71  193 1    
   142   71  194 1    
   143   72   73 2    
   144   72   74 am   BACKBONE|DICT|INTERRES
   145   74   75 1    
   146   74  195 1    
   147   75   76 1    
   148   75   77 1    
   149   75  196 1    
   150   76  197 1    
   151   76  198 1    
   152   76  199 1    
   153   77   78 2    
   154   77   79 am   BACKBONE|DICT|INTERRES
   155   79   80 1    
   156   79  200 1    
   157   80   81 1    
   158   80   82 1    
   159   80  201 1    
   160   81  202 1    
   161   81  203 1    
   162   81  204 1    
   163   82   83 2    
   164   82   84 am   BACKBONE|DICT|INTERRES
   165   84   85 1    
   166   84  205 1    
   167   85   86 1    
   168   85   87 1    
   169   85  206 1    
   170   86  207 1    
   171   86  208 1    
   172   86  209 1    
   173   87   88 2    
   174   87   89 am   BACKBONE|DICT|INTERRES
   175   89   90 1    
   176   89  210 1    
   177   90   91 1    
   178   90   92 1    
   179   90  211 1    
   180   91  212 1    
   181   91  213 1    
   182   91  214 1    
   183   92   93 2    
   184   92   94 am   BACKBONE|DICT|INTERRES
   185   94   95 1    
   186   94  215 1    
   187   95   96 1    
   188   95   97 1    
   189   95  216 1    
   190   96  217 1    
   191   96  218 1    
   192   96  219 1    
   193   97   98 2    
   194   97   99 am   BACKBONE|DICT|INTERRES
   195   99  100 1    
   196   99  220 1    
   197  100  101 1    
   198  100  102 1    
   199  100  221 1    
   200  101  222 1    
   201  101  223 1    
   202  101  224 1    
   203  102  103 2    
   204  102  104 am   BACKBONE|DICT|INTERRES
   205  104  105 1    
   206  104  225 1    
   207  105  106 1    
   208  105  107 1    
   209  105  226 1    
   210  106  227 1    
   211  106  228 1    
   212  106  229 1    
   213  107  108 2    
   214  107  109 am   BACKBONE|DICT|INTERRES
   215  109  110 1    
   216  109  230 1    
   217  110  111 1    
   218  110  112 1    
   219  110  231 1    
   220  111  232 1    
   221  111  233 1    
   222  111  234 1    
   223  112  113 2    
   224  112  114 am   BACKBONE|DICT|INTERRES
   225  114  115 1    
   226  114  235 1    
   227  115  116 1    
   228  115  117 1    
   229  115  236 1    
   230  116  237 1    
   231  116  238 1    
   232  116  239 1    
   233  117  118 2    
   234  117  119 am   BACKBONE|DICT|INTERRES
   235  119  120 1    
   236  119  240 1    
   237  120  121 1    
   238  120  124 1    
   239  120  241 1    
   240  121  122 am   BACKBONE|DICT|INTERRES
   241  121  123 2    
   242  122  242 1    
   243  122  243 1    
   244  124  125 1    
   245  124  244 1    
   246  124  245 1    
   247  125  126 1    
   248  126  246 1    
   249  126  247 1    
@<TRIPOS>SUBSTRUCTURE
     1 UNK         1 GROUP             0       ****    0 ROOT    
