@<TRIPOS>MOLECULE
3R540
247   249    1
SMALL
USER_CHARGES


@<TRIPOS>ATOM
      1 CA          2.6063  -10.2959  -44.8966 C.3       0 UNK        -0.1800 
      2 C           3.6534  -10.8731  -45.8374 C.2       0 UNK         0.5000 
      3 O           4.7952  -10.4133  -45.8368 O.2       0 UNK        -0.5000 
      4 N           3.2733  -11.8794  -46.6357 N.am      1 UNK        -0.5000 
      5 CA          4.0814  -12.4510  -47.7258 C.3       1 UNK         0.1400 
      6 C6          3.2621  -13.3932  -48.6425 C.3       23 UNK        -0.0398 
      7 S7          1.7138  -12.6264  -49.2374 S.3       23 UNK        -0.2404 
      8 C8          0.4625  -13.8319  -48.6942 C.3       23 UNK        -0.0205 
      9 C9          0.2373  -14.9074  -49.7451 C.ar      23 UNK        -0.0193 
     10 C10        -0.8395  -14.7962  -50.6299 C.ar      23 UNK        -0.1150 
     11 C11        -1.0539  -15.7660  -51.6121 C.ar      23 UNK        -0.0193 
     12 C12        -0.1734  -16.8444  -51.7151 C.ar      23 UNK        -0.1150 
     13 C13         0.8915  -16.9814  -50.8228 C.ar      23 UNK        -0.0193 
     14 C14         1.0933  -16.0106  -49.8370 C.ar      23 UNK        -0.1150 
     15 C15         1.8042  -18.1940  -50.9243 C.3       23 UNK        -0.0205 
     16 S16         1.4252  -19.4575  -49.6683 S.3       23 UNK        -0.2404 
     17 C17        -0.3896  -19.6285  -49.8173 C.3       23 UNK        -0.0398 
     18 CA         -0.9389  -20.8329  -49.0167 C.3       11 UNK         0.1400 
     19 N          -0.5985  -20.7447  -47.5882 N.am      11 UNK        -0.5000 
     20 C          -0.5448  -21.7619  -46.7174 C.2       10 UNK         0.5000 
     21 O          -0.7592  -22.9344  -47.0264 O.2       10 UNK        -0.5000 
     22 CA         -0.3723  -21.3951  -45.2341 C.3       10 UNK         0.1400 
     23 CB          1.0743  -20.9883  -44.9189 C.3       10 UNK        -0.1800 
     24 N          -1.2973  -20.3309  -44.8420 N.am      10 UNK        -0.5000 
     25 C          -2.6346  -20.4339  -44.8827 C.2       9 UNK         0.5000 
     26 O          -3.2282  -21.4812  -45.1430 O.2       9 UNK        -0.5000 
     27 CA         -3.4435  -19.1501  -44.6272 C.3       9 UNK         0.1400 
     28 CB         -3.6907  -18.9453  -43.1251 C.3       9 UNK        -0.1800 
     29 N          -2.7881  -17.9664  -45.1845 N.am      9 UNK        -0.5000 
     30 C          -2.7393  -17.6721  -46.4923 C.2       8 UNK         0.5000 
     31 O          -3.2916  -18.3374  -47.3659 O.2       8 UNK        -0.5000 
     32 CA         -1.9048  -16.4414  -46.8938 C.3       8 UNK         0.1400 
     33 CB         -2.7565  -15.1656  -46.8339 C.3       8 UNK        -0.1800 
     34 N          -0.7147  -16.2750  -46.0562 N.am      8 UNK        -0.5000 
     35 C           0.3359  -17.1088  -46.0919 C.2       7 UNK         0.5000 
     36 O           0.4007  -18.0805  -46.8407 O.2       7 UNK        -0.5000 
     37 CA          1.4782  -16.8561  -45.0883 C.3       7 UNK         0.1400 
     38 CB          2.4809  -15.8442  -45.6570 C.3       7 UNK        -0.1800 
     39 N           1.0083  -16.3786  -43.7890 N.am      7 UNK        -0.5000 
     40 C           0.1517  -17.0357  -42.9930 C.2       6 UNK         0.5000 
     41 O          -0.2589  -18.1701  -43.2330 O.2       6 UNK        -0.5000 
     42 CA         -0.3820  -16.2932  -41.7516 C.3       6 UNK         0.1400 
     43 CB          0.3175  -16.8034  -40.4831 C.3       6 UNK        -0.1800 
     44 N          -0.2413  -14.8365  -41.8152 N.am      6 UNK        -0.5000 
     45 C          -0.7543  -14.0266  -42.7541 C.2       5 UNK         0.5000 
     46 O          -1.4621  -14.4180  -43.6829 O.2       5 UNK        -0.5000 
     47 CA         -0.3567  -12.5400  -42.6723 C.3       5 UNK         0.1400 
     48 CB         -1.4864  -11.7150  -42.0388 C.3       5 UNK        -0.1800 
     49 N           0.8855  -12.3085  -41.9247 N.am      5 UNK        -0.5000 
     50 C           2.1023  -12.7033  -42.3211 C.2       4 UNK         0.5000 
     51 O           2.3223  -13.3118  -43.3735 O.2       4 UNK        -0.5000 
     52 CA          3.2637  -12.3902  -41.3718 C.3       4 UNK         0.1400 
     53 CB          3.5246  -13.5708  -40.4209 C.3       4 UNK        -0.1800 
     54 N           4.4441  -12.1317  -42.1827 N.am      4 UNK        -0.5000 
     55 C           5.4973  -11.3837  -41.8370 C.2       3 UNK         0.5000 
     56 O           5.6134  -10.8473  -40.7338 O.2       3 UNK        -0.5000 
     57 CA          6.5836  -11.1682  -42.9148 C.3       3 UNK         0.1400 
     58 CB          8.0066  -11.0869  -42.3229 C.3       3 UNK        -0.1800 
     59 N           6.5147  -12.1273  -44.0265 N.am      3 UNK        -0.5000 
     60 C           6.7671  -13.4460  -43.9925 C.2       2 UNK         0.5000 
     61 O           7.1500  -14.0442  -42.9865 O.2       2 UNK        -0.5000 
     62 CA          6.5055  -14.2243  -45.2971 C.3       2 UNK         0.1400 
     63 CB          6.2702  -15.7263  -45.0522 C.3       2 UNK        -0.1800 
     64 N           5.3505  -13.6570  -45.9980 N.am      2 UNK        -0.5000 
     65 C           5.3677  -13.1553  -47.2398 C.2       1 UNK         0.5000 
     66 O           6.3461  -13.2049  -47.9861 O.2       1 UNK        -0.5000 
     67 C          -2.4575  -21.0541  -49.2496 C.2       11 UNK         0.5000 
     68 O          -3.0498  -20.4930  -50.1739 O.2       11 UNK        -0.5000 
     69 N          -3.0562  -21.9074  -48.4179 N.am      12 UNK        -0.5000 
     70 CA         -4.4186  -22.4044  -48.4942 C.3       12 UNK         0.1400 
     71 CB         -5.4121  -21.4178  -47.8624 C.3       12 UNK        -0.1800 
     72 C          -4.4440  -23.7815  -47.8275 C.2       12 UNK         0.5000 
     73 O          -4.8459  -24.7487  -48.4714 O.2       12 UNK        -0.5000 
     74 N          -3.9408  -23.8600  -46.5868 N.am      13 UNK        -0.5000 
     75 CA         -3.8153  -25.0938  -45.8098 C.3       13 UNK         0.1400 
     76 CB         -3.3900  -24.7504  -44.3737 C.3       13 UNK        -0.1800 
     77 C          -2.8442  -26.1079  -46.4419 C.2       13 UNK         0.5000 
     78 O          -3.2285  -27.2545  -46.6747 O.2       13 UNK        -0.5000 
     79 N          -1.6166  -25.6623  -46.7470 N.am      14 UNK        -0.5000 
     80 CA         -0.5851  -26.4776  -47.3982 C.3       14 UNK         0.1400 
     81 CB          0.7968  -25.8595  -47.1354 C.3       14 UNK        -0.1800 
     82 C          -0.8321  -26.6293  -48.9107 C.2       14 UNK         0.5000 
     83 O          -0.3517  -27.5865  -49.5172 O.2       14 UNK        -0.5000 
     84 N          -1.6018  -25.6939  -49.4818 N.am      15 UNK        -0.5000 
     85 CA         -2.0476  -25.6859  -50.8743 C.3       15 UNK         0.1400 
     86 CB         -2.3346  -24.2312  -51.2756 C.3       15 UNK        -0.1800 
     87 C          -3.2844  -26.5752  -51.1250 C.2       15 UNK         0.5000 
     88 O          -3.7777  -26.6042  -52.2554 O.2       15 UNK        -0.5000 
     89 N          -3.7939  -27.2376  -50.0728 N.am      16 UNK        -0.5000 
     90 CA         -4.9487  -28.1456  -50.0498 C.3       16 UNK         0.1400 
     91 CB         -4.6108  -29.4464  -50.8069 C.3       16 UNK        -0.1800 
     92 C          -6.2604  -27.4989  -50.5477 C.2       16 UNK         0.5000 
     93 O          -7.1274  -28.1953  -51.0783 O.2       16 UNK        -0.5000 
     94 N          -6.3592  -26.1694  -50.3949 N.am      17 UNK        -0.5000 
     95 CA         -7.3998  -25.2782  -50.9141 C.3       17 UNK         0.1400 
     96 CB         -8.7177  -25.4847  -50.1407 C.3       17 UNK        -0.1800 
     97 C          -7.5811  -25.3613  -52.4482 C.2       17 UNK         0.5000 
     98 O          -8.6854  -25.1232  -52.9409 O.2       17 UNK        -0.5000 
     99 N          -6.5041  -25.6943  -53.1757 N.am      18 UNK        -0.5000 
    100 CA        -6.5275  -25.9309  -54.6190 C.3       18 UNK         0.1400 
    101 CB        -6.5041  -27.4458  -54.8818 C.3       18 UNK        -0.1800 
    102 C         -5.3669  -25.2366  -55.3455 C.2       18 UNK         0.5000 
    103 O         -5.5938  -24.6277  -56.3915 O.2       18 UNK        -0.5000 
    104 N         -4.1456  -25.3395  -54.8018 N.am      19 UNK        -0.5000 
    105 CA        -2.9216  -24.8694  -55.4622 C.3       19 UNK         0.1400 
    106 CB        -1.7230  -25.6718  -54.9302 C.3       19 UNK        -0.1800 
    107 C         -2.6735  -23.3517  -55.3369 C.2       19 UNK         0.5000 
    108 O         -1.7995  -22.8308  -56.0315 O.2       19 UNK        -0.5000 
    109 N         -3.4294  -22.6692  -54.4687 N.am      20 UNK        -0.5000 
    110 CA        -3.3548  -21.2271  -54.2448 C.3       20 UNK         0.1400 
    111 CB        -2.1615  -20.8735  -53.3371 C.3       20 UNK        -0.1800 
    112 C         -4.6942  -20.7327  -53.6854 C.2       20 UNK         0.5000 
    113 O         -5.3679  -19.9418  -54.3459 O.2       20 UNK        -0.5000 
    114 N         -5.0771  -21.2626  -52.5120 N.am      21 UNK        -0.5000 
    115 CA        -6.3426  -21.0117  -51.8066 C.3       21 UNK         0.1400 
    116 CB        -7.5342  -21.5520  -52.6251 C.3       21 UNK        -0.1800 
    117 C         -6.5215  -19.5347  -51.3923 C.2       21 UNK         0.5000 
    118 O         -7.6081  -18.9737  -51.5453 O.2       21 UNK        -0.5000 
    119 N         -5.4436  -18.9291  -50.8828 N.am      22 UNK        -0.5000 
    120 CA        -5.3633  -17.4969  -50.5445 C.3       22 UNK         0.1400 
    121 C         -5.9942  -17.0956  -49.1770 C.2       22 UNK         0.5000 
    122 N         -6.6035  -18.0019  -48.4240 N.am      22 UNK        -0.7600 
    123 O         -5.9613  -15.9261  -48.8043 O.2       22 UNK        -0.5000 
    124 C124       -3.9142  -16.9721  -50.6963 C.3       23 UNK        -0.0398 
    125 S125       -3.3407  -17.1027  -52.4257 S.3       23 UNK        -0.2404 
    126 C126       -2.2394  -15.6591  -52.5587 C.3       23 UNK        -0.0205 
    127 H127        1.7053  -10.9087  -44.8702 H         1 UNK         0.0600 
    128 H128        2.3269   -9.2938  -45.2213 H         1 UNK         0.0600 
    129 H129        3.0034  -10.2251  -43.8847 H         1 UNK         0.0600 
    130 H130        2.3197  -12.2075  -46.5884 H         1 UNK         0.3000 
    131 H131        4.4083  -11.6088  -48.3398 H         1 UNK         0.0600 
    132 H132        3.0371  -14.3232  -48.1223 H         1 UNK         0.0800 
    133 H133        3.8500  -13.6745  -49.5181 H         1 UNK         0.0800 
    134 H134       -0.4679  -13.2934  -48.5101 H         1 UNK         0.0800 
    135 H135        0.7390  -14.2815  -47.7413 H         1 UNK         0.0800 
    136 H136       -1.5105  -13.9522  -50.5538 H         1 UNK         0.1150 
    137 H137       -0.3393  -17.5957  -52.4746 H         1 UNK         0.1150 
    138 H138        1.9136  -16.1208  -49.1431 H         1 UNK         0.1150 
    139 H139        1.7301  -18.6464  -51.9144 H         1 UNK         0.0800 
    140 H140        2.8426  -17.8802  -50.8098 H         1 UNK         0.0800 
    141 H141       -0.6330  -19.7273  -50.8764 H         1 UNK         0.0800 
    142 H142       -0.8607  -18.7064  -49.4715 H         1 UNK         0.0800 
    143 H143       -0.4510  -21.7259  -49.4128 H         1 UNK         0.0600 
    144 H144       -0.3985  -19.8074  -47.2488 H         1 UNK         0.3000 
    145 H145       -0.6120  -22.2787  -44.6392 H         1 UNK         0.0600 
    146 H146        1.1907  -20.7278  -43.8667 H         1 UNK         0.0600 
    147 H147        1.7612  -21.8085  -45.1305 H         1 UNK         0.0600 
    148 H148        1.3963  -20.1338  -45.5126 H         1 UNK         0.0600 
    149 H149       -0.8868  -19.4548  -44.5339 H         1 UNK         0.3000 
    150 H150       -4.4131  -19.2675  -45.1163 H         1 UNK         0.0600 
    151 H151       -4.2221  -19.7980  -42.7005 H         1 UNK         0.0600 
    152 H152       -4.2995  -18.0597  -42.9427 H         1 UNK         0.0600 
    153 H153       -2.7593  -18.8328  -42.5702 H         1 UNK         0.0600 
    154 H154       -2.2729  -17.3850  -44.5403 H         1 UNK         0.3000 
    155 H155       -1.5780  -16.5830  -47.9266 H         1 UNK         0.0600 
    156 H156       -3.6144  -15.2411  -47.5027 H         1 UNK         0.0600 
    157 H157       -2.1842  -14.2903  -47.1378 H         1 UNK         0.0600 
    158 H158       -3.1389  -14.9829  -45.8290 H         1 UNK         0.0600 
    159 H159       -0.7414  -15.5338  -45.3653 H         1 UNK         0.3000 
    160 H160        1.9980  -17.8021  -44.9263 H         1 UNK         0.0600 
    161 H161        2.0183  -14.8728  -45.8320 H         1 UNK         0.0600 
    162 H162        2.8995  -16.1964  -46.6004 H         1 UNK         0.0600 
    163 H163        3.3086  -15.6914  -44.9677 H         1 UNK         0.0600 
    164 H164        1.3006  -15.4482  -43.5198 H         1 UNK         0.3000 
    165 H165       -1.4473  -16.5191  -41.6739 H         1 UNK         0.0600 
    166 H166       -0.1127  -16.3556  -39.5870 H         1 UNK         0.0600 
    167 H167        0.2121  -17.8849  -40.3860 H         1 UNK         0.0600 
    168 H168        1.3846  -16.5769  -40.4940 H         1 UNK         0.0600 
    169 H169        0.3263  -14.4137  -41.0964 H         1 UNK         0.3000 
    170 H170       -0.2076  -12.1878  -43.6951 H         1 UNK         0.0600 
    171 H171       -2.4201  -11.8445  -42.5879 H         1 UNK         0.0600 
    172 H172       -1.6700  -12.0101  -41.0049 H         1 UNK         0.0600 
    173 H173       -1.2509  -10.6506  -42.0486 H         1 UNK         0.0600 
    174 H174        0.7918  -11.8149  -41.0482 H         1 UNK         0.3000 
    175 H175        3.0175  -11.4971  -40.7935 H         1 UNK         0.0600 
    176 H176        2.6466  -13.7860  -39.8109 H         1 UNK         0.0600 
    177 H177        3.7767  -14.4794  -40.9697 H         1 UNK         0.0600 
    178 H178        4.3474  -13.3545  -39.7393 H         1 UNK         0.0600 
    179 H179        4.4014  -12.5259  -43.1117 H         1 UNK         0.3000 
    180 H180        6.3643  -10.1955  -43.3573 H         1 UNK         0.0600 
    181 H181        8.2709  -11.9887  -41.7703 H         1 UNK         0.0600 
    182 H182        8.0943  -10.2476  -41.6322 H         1 UNK         0.0600 
    183 H183        8.7518  -10.9400  -43.1047 H         1 UNK         0.0600 
    184 H184        6.1776  -11.7316  -44.8978 H         1 UNK         0.3000 
    185 H185        7.4080  -14.1202  -45.9024 H         1 UNK         0.0600 
    186 H186        7.1767  -16.2044  -44.6793 H         1 UNK         0.0600 
    187 H187        5.4873  -15.8981  -44.3136 H         1 UNK         0.0600 
    188 H188        5.9879  -16.2396  -45.9716 H         1 UNK         0.0600 
    189 H189        4.5005  -13.5610  -45.4601 H         1 UNK         0.3000 
    190 H190       -2.4695  -22.3413  -47.7127 H         1 UNK         0.3000 
    191 H191       -4.6842  -22.5383  -49.5427 H         1 UNK         0.0600 
    192 H192       -5.2516  -21.3007  -46.7915 H         1 UNK         0.0600 
    193 H193       -6.4394  -21.7533  -48.0068 H         1 UNK         0.0600 
    194 H194       -5.3167  -20.4330  -48.3159 H         1 UNK         0.0600 
    195 H195       -3.6629  -23.0031  -46.1110 H         1 UNK         0.3000 
    196 H196       -4.8011  -25.5617  -45.7677 H         1 UNK         0.0600 
    197 H197       -3.2930  -25.6515  -43.7669 H         1 UNK         0.0600 
    198 H198       -4.1268  -24.1093  -43.8892 H         1 UNK         0.0600 
    199 H199       -2.4314  -24.2306  -44.3493 H         1 UNK         0.0600 
    200 H200       -1.3798  -24.6870  -46.5858 H         1 UNK         0.3000 
    201 H201       -0.5981  -27.4763  -46.9564 H         1 UNK         0.0600 
    202 H202        0.9748  -25.7260  -46.0683 H         1 UNK         0.0600 
    203 H203        0.9055  -24.8884  -47.6190 H         1 UNK         0.0600 
    204 H204        1.5887  -26.5036  -47.5196 H         1 UNK         0.0600 
    205 H205       -1.9484  -24.9539  -48.8904 H         1 UNK         0.3000 
    206 H206       -1.2417  -26.0650  -51.5055 H         1 UNK         0.0600 
    207 H207       -1.4598  -23.5984  -51.1258 H         1 UNK         0.0600 
    208 H208       -2.6094  -24.1580  -52.3252 H         1 UNK         0.0600 
    209 H209       -3.1580  -23.8147  -50.7005 H         1 UNK         0.0600 
    210 H210       -3.3507  -27.0923  -49.1761 H         1 UNK         0.3000 
    211 H211       -5.1149  -28.4011  -49.0024 H         1 UNK         0.0600 
    212 H212       -4.4925  -29.2703  -51.8768 H         1 UNK         0.0600 
    213 H213       -5.3980  -30.1906  -50.6822 H         1 UNK         0.0600 
    214 H214       -3.6866  -29.8894  -50.4357 H         1 UNK         0.0600 
    215 H215       -5.6262  -25.7096  -49.8589 H         1 UNK         0.3000 
    216 H216       -7.0552  -24.2639  -50.7089 H         1 UNK         0.0600 
    217 H217       -9.4580  -24.7330  -50.4168 H         1 UNK         0.0600 
    218 H218       -8.5594  -25.4013  -49.0654 H         1 UNK         0.0600 
    219 H219       -9.1536  -26.4639  -50.3409 H         1 UNK         0.0600 
    220 H220       -5.6352  -25.9039  -52.6965 H         1 UNK         0.3000 
    221 H221       -7.4455  -25.5299  -55.0536 H         1 UNK         0.0600 
    222 H222       -5.6190  -27.9153  -54.4502 H         1 UNK         0.0600 
    223 H223       -7.3802  -27.9313  -54.4512 H         1 UNK         0.0600 
    224 H224       -6.5050  -27.6599  -55.9513 H         1 UNK         0.0600 
    225 H225       -4.0207  -25.8650  -53.9399 H         1 UNK         0.3000 
    226 H226       -3.0045  -25.0849  -56.5297 H         1 UNK         0.0600 
    227 H227       -1.8751  -26.7429  -55.0648 H         1 UNK         0.0600 
    228 H228       -0.8084  -25.4062  -55.4618 H         1 UNK         0.0600 
    229 H229       -1.5468  -25.4908  -53.8719 H         1 UNK         0.0600 
    230 H230       -4.1711  -23.1606  -53.9914 H         1 UNK         0.3000 
    231 H231       -3.2103  -20.7273  -55.2054 H         1 UNK         0.0600 
    232 H232       -1.2152  -21.0330  -53.8537 H         1 UNK         0.0600 
    233 H233       -2.1471  -21.4807  -52.4336 H         1 UNK         0.0600 
    234 H234       -2.1915  -19.8270  -53.0333 H         1 UNK         0.0600 
    235 H235       -4.4046  -21.8263  -52.0132 H         1 UNK         0.3000 
    236 H236       -6.3022  -21.5845  -50.8809 H         1 UNK         0.0600 
    237 H237       -8.4422  -21.5800  -52.0219 H         1 UNK         0.0600 
    238 H238       -7.7413  -20.9323  -53.4981 H         1 UNK         0.0600 
    239 H239       -7.3448  -22.5628  -52.9806 H         1 UNK         0.0600 
    240 H240       -4.5855  -19.4610  -50.7598 H         1 UNK         0.3000 
    241 H241       -5.9648  -16.9587  -51.2797 H         1 UNK         0.0600 
    242 H242       -6.6567  -18.9593  -48.7254 H         1 UNK         0.3800 
    243 H243       -7.0145  -17.7221  -47.5482 H         1 UNK         0.3800 
    244 H244       -3.8459  -15.9277  -50.3876 H         1 UNK         0.0800 
    245 H245       -3.2322  -17.5298  -50.0523 H         1 UNK         0.0800 
    246 H246       -1.8704  -15.5881  -53.5826 H         1 UNK         0.0800 
    247 H247       -2.8130  -14.7499  -52.3724 H         1 UNK         0.0800 
@<TRIPOS>BOND
     1    1    2 1    
     2    1  127 1    
     3    1  128 1    
     4    1  129 1    
     5    2    3 2    
     6    2    4 am   BACKBONE|DICT|INTERRES
     7    4    5 1    
     8    4  130 1    
     9    5    6 1    
    10    5   65 1    
    11    5  131 1    
    12    6    7 1    
    13    6  132 1    
    14    6  133 1    
    15    7    8 1    
    16    8    9 1    
    17    8  134 1    
    18    8  135 1    
    19    9   10 ar   
    20    9   14 ar   
    21   10   11 ar   
    22   10  136 1    
    23   11   12 ar   
    24   11  126 1    
    25   12   13 ar   
    26   12  137 1    
    27   13   14 ar   
    28   13   15 1    
    29   14  138 1    
    30   15   16 1    
    31   15  139 1    
    32   15  140 1    
    33   16   17 1    
    34   17   18 1    
    35   17  141 1    
    36   17  142 1    
    37   18   19 1    
    38   18   67 1    
    39   18  143 1    
    40   19   20 am   BACKBONE|DICT|INTERRES
    41   19  144 1    
    42   20   21 2    
    43   20   22 1    
    44   22   23 1    
    45   22   24 1    
    46   22  145 1    
    47   23  146 1    
    48   23  147 1    
    49   23  148 1    
    50   24   25 am   BACKBONE|DICT|INTERRES
    51   24  149 1    
    52   25   26 2    
    53   25   27 1    
    54   27   28 1    
    55   27   29 1    
    56   27  150 1    
    57   28  151 1    
    58   28  152 1    
    59   28  153 1    
    60   29   30 am   BACKBONE|DICT|INTERRES
    61   29  154 1    
    62   30   31 2    
    63   30   32 1    
    64   32   33 1    
    65   32   34 1    
    66   32  155 1    
    67   33  156 1    
    68   33  157 1    
    69   33  158 1    
    70   34   35 am   BACKBONE|DICT|INTERRES
    71   34  159 1    
    72   35   36 2    
    73   35   37 1    
    74   37   38 1    
    75   37   39 1    
    76   37  160 1    
    77   38  161 1    
    78   38  162 1    
    79   38  163 1    
    80   39   40 am   BACKBONE|DICT|INTERRES
    81   39  164 1    
    82   40   41 2    
    83   40   42 1    
    84   42   43 1    
    85   42   44 1    
    86   42  165 1    
    87   43  166 1    
    88   43  167 1    
    89   43  168 1    
    90   44   45 am   BACKBONE|DICT|INTERRES
    91   44  169 1    
    92   45   46 2    
    93   45   47 1    
    94   47   48 1    
    95   47   49 1    
    96   47  170 1    
    97   48  171 1    
    98   48  172 1    
    99   48  173 1    
   100   49   50 am   BACKBONE|DICT|INTERRES
   101   49  174 1    
   102   50   51 2    
   103   50   52 1    
   104   52   53 1    
   105   52   54 1    
   106   52  175 1    
   107   53  176 1    
   108   53  177 1    
   109   53  178 1    
   110   54   55 am   BACKBONE|DICT|INTERRES
   111   54  179 1    
   112   55   56 2    
   113   55   57 1    
   114   57   58 1    
   115   57   59 1    
   116   57  180 1    
   117   58  181 1    
   118   58  182 1    
   119   58  183 1    
   120   59   60 am   BACKBONE|DICT|INTERRES
   121   59  184 1    
   122   60   61 2    
   123   60   62 1    
   124   62   63 1    
   125   62   64 1    
   126   62  185 1    
   127   63  186 1    
   128   63  187 1    
   129   63  188 1    
   130   64   65 am   BACKBONE|DICT|INTERRES
   131   64  189 1    
   132   65   66 2    
   133   67   68 2    
   134   67   69 am   BACKBONE|DICT|INTERRES
   135   69   70 1    
   136   69  190 1    
   137   70   71 1    
   138   70   72 1    
   139   70  191 1    
   140   71  192 1    
   141   71  193 1    
   142   71  194 1    
   143   72   73 2    
   144   72   74 am   BACKBONE|DICT|INTERRES
   145   74   75 1    
   146   74  195 1    
   147   75   76 1    
   148   75   77 1    
   149   75  196 1    
   150   76  197 1    
   151   76  198 1    
   152   76  199 1    
   153   77   78 2    
   154   77   79 am   BACKBONE|DICT|INTERRES
   155   79   80 1    
   156   79  200 1    
   157   80   81 1    
   158   80   82 1    
   159   80  201 1    
   160   81  202 1    
   161   81  203 1    
   162   81  204 1    
   163   82   83 2    
   164   82   84 am   BACKBONE|DICT|INTERRES
   165   84   85 1    
   166   84  205 1    
   167   85   86 1    
   168   85   87 1    
   169   85  206 1    
   170   86  207 1    
   171   86  208 1    
   172   86  209 1    
   173   87   88 2    
   174   87   89 am   BACKBONE|DICT|INTERRES
   175   89   90 1    
   176   89  210 1    
   177   90   91 1    
   178   90   92 1    
   179   90  211 1    
   180   91  212 1    
   181   91  213 1    
   182   91  214 1    
   183   92   93 2    
   184   92   94 am   BACKBONE|DICT|INTERRES
   185   94   95 1    
   186   94  215 1    
   187   95   96 1    
   188   95   97 1    
   189   95  216 1    
   190   96  217 1    
   191   96  218 1    
   192   96  219 1    
   193   97   98 2    
   194   97   99 am   BACKBONE|DICT|INTERRES
   195   99  100 1    
   196   99  220 1    
   197  100  101 1    
   198  100  102 1    
   199  100  221 1    
   200  101  222 1    
   201  101  223 1    
   202  101  224 1    
   203  102  103 2    
   204  102  104 am   BACKBONE|DICT|INTERRES
   205  104  105 1    
   206  104  225 1    
   207  105  106 1    
   208  105  107 1    
   209  105  226 1    
   210  106  227 1    
   211  106  228 1    
   212  106  229 1    
   213  107  108 2    
   214  107  109 am   BACKBONE|DICT|INTERRES
   215  109  110 1    
   216  109  230 1    
   217  110  111 1    
   218  110  112 1    
   219  110  231 1    
   220  111  232 1    
   221  111  233 1    
   222  111  234 1    
   223  112  113 2    
   224  112  114 am   BACKBONE|DICT|INTERRES
   225  114  115 1    
   226  114  235 1    
   227  115  116 1    
   228  115  117 1    
   229  115  236 1    
   230  116  237 1    
   231  116  238 1    
   232  116  239 1    
   233  117  118 2    
   234  117  119 am   BACKBONE|DICT|INTERRES
   235  119  120 1    
   236  119  240 1    
   237  120  121 1    
   238  120  124 1    
   239  120  241 1    
   240  121  122 am   BACKBONE|DICT|INTERRES
   241  121  123 2    
   242  122  242 1    
   243  122  243 1    
   244  124  125 1    
   245  124  244 1    
   246  124  245 1    
   247  125  126 1    
   248  126  246 1    
   249  126  247 1    
@<TRIPOS>SUBSTRUCTURE
     1 UNK         1 GROUP             0       ****    0 ROOT    
