@<TRIPOS>MOLECULE
3R540
247   249    1
SMALL
USER_CHARGES


@<TRIPOS>ATOM
      1 CA          2.3011  -13.0473  -45.2266 C.3       0 UNK        -0.1800 
      2 C           0.9584  -13.2409  -45.9122 C.2       0 UNK         0.5000 
      3 O          -0.0803  -13.1998  -45.2514 O.2       0 UNK        -0.5000 
      4 N           0.9622  -13.4659  -47.2325 N.am      1 UNK        -0.5000 
      5 CA         -0.2393  -13.6895  -48.0500 C.3       1 UNK         0.1400 
      6 C6          0.0978  -14.1190  -49.4972 C.3       23 UNK        -0.0398 
      7 S7          1.1382  -15.6173  -49.5816 S.3       23 UNK        -0.2404 
      8 C8         -0.1063  -16.9117  -49.8872 C.3       23 UNK        -0.0205 
      9 C9          0.5221  -18.1692  -50.4711 C.ar      23 UNK        -0.0193 
     10 C10         0.1544  -18.6133  -51.7446 C.ar      23 UNK        -0.1150 
     11 C11         0.7238  -19.7695  -52.2864 C.ar      23 UNK        -0.0193 
     12 C12         1.6666  -20.4848  -51.5462 C.ar      23 UNK        -0.1150 
     13 C13         2.0268  -20.0641  -50.2650 C.ar      23 UNK        -0.0193 
     14 C14         1.4550  -18.9046  -49.7347 C.ar      23 UNK        -0.1150 
     15 C15         2.9952  -20.8941  -49.4388 C.3       23 UNK        -0.0205 
     16 S16         2.1861  -22.3897  -48.7947 S.3       23 UNK        -0.2404 
     17 C17         0.8999  -21.6469  -47.7370 C.3       23 UNK        -0.0398 
     18 CA          0.0475  -22.7097  -47.0173 C.3       11 UNK         0.1400 
     19 N           0.8527  -23.6075  -46.1903 N.am      11 UNK        -0.5000 
     20 C           0.4412  -24.7968  -45.7356 C.2       10 UNK         0.5000 
     21 O          -0.6631  -25.2794  -45.9846 O.2       10 UNK        -0.5000 
     22 CA          1.4167  -25.5412  -44.8058 C.3       10 UNK         0.1400 
     23 CB          2.4374  -26.3453  -45.6244 C.3       10 UNK        -0.1800 
     24 N           2.1261  -24.6270  -43.9067 N.am      10 UNK        -0.5000 
     25 C           1.5316  -23.9217  -42.9342 C.2       9 UNK         0.5000 
     26 O           0.3365  -24.0215  -42.6575 O.2       9 UNK        -0.5000 
     27 CA          2.4039  -22.9013  -42.1792 C.3       9 UNK         0.1400 
     28 CB          3.0904  -23.5664  -40.9772 C.3       9 UNK        -0.1800 
     29 N           3.4165  -22.2527  -43.0197 N.am      9 UNK        -0.5000 
     30 C           3.1502  -21.4547  -44.0621 C.2       8 UNK         0.5000 
     31 O           2.0123  -21.2195  -44.4751 O.2       8 UNK        -0.5000 
     32 CA          4.3577  -20.8543  -44.7912 C.3       8 UNK         0.1400 
     33 CB          4.9248  -21.8506  -45.8174 C.3       8 UNK        -0.1800 
     34 N           3.9483  -19.6259  -45.4666 N.am      8 UNK        -0.5000 
     35 C           4.7581  -18.6004  -45.7576 C.2       7 UNK         0.5000 
     36 O           5.9633  -18.5992  -45.5024 O.2       7 UNK        -0.5000 
     37 CA          4.1452  -17.3676  -46.4563 C.3       7 UNK         0.1400 
     38 CB          4.6415  -17.2615  -47.9076 C.3       7 UNK        -0.1800 
     39 N           2.6809  -17.3391  -46.4653 N.am      7 UNK        -0.5000 
     40 C           1.9151  -17.0153  -45.4174 C.2       6 UNK         0.5000 
     41 O           2.3697  -16.7420  -44.3053 O.2       6 UNK        -0.5000 
     42 CA          0.3998  -16.9669  -45.7014 C.3       6 UNK         0.1400 
     43 CB         -0.1976  -18.3770  -45.8691 C.3       6 UNK        -0.1800 
     44 N          -0.3466  -16.1724  -44.7216 N.am      6 UNK        -0.5000 
     45 C          -0.6131  -16.4452  -43.4348 C.2       5 UNK         0.5000 
     46 O          -0.3457  -17.5052  -42.8711 O.2       5 UNK        -0.5000 
     47 CA         -1.3090  -15.3277  -42.6367 C.3       5 UNK         0.1400 
     48 CB         -0.2716  -14.4991  -41.8626 C.3       5 UNK        -0.1800 
     49 N          -2.0662  -14.4291  -43.5068 N.am      5 UNK        -0.5000 
     50 C          -3.3379  -14.6098  -43.8863 C.2       4 UNK         0.5000 
     51 O          -4.0340  -15.5487  -43.4971 O.2       4 UNK        -0.5000 
     52 CA         -3.9196  -13.5843  -44.8862 C.3       4 UNK         0.1400 
     53 CB         -5.4240  -13.3215  -44.6678 C.3       4 UNK        -0.1800 
     54 N          -3.1609  -12.3287  -44.9461 N.am      4 UNK        -0.5000 
     55 C          -3.0057  -11.4101  -43.9781 C.2       3 UNK         0.5000 
     56 O          -3.5809  -11.4570  -42.8905 O.2       3 UNK        -0.5000 
     57 CA         -2.0072  -10.2650  -44.2469 C.3       3 UNK         0.1400 
     58 CB         -0.8392  -10.3247  -43.2475 C.3       3 UNK        -0.1800 
     59 N          -1.4552  -10.3093  -45.6018 N.am      3 UNK        -0.5000 
     60 C          -1.9926   -9.7119  -46.6735 C.2       2 UNK         0.5000 
     61 O          -2.9924   -8.9949  -46.6281 O.2       2 UNK        -0.5000 
     62 CA         -1.3084   -9.9777  -48.0298 C.3       2 UNK         0.1400 
     63 CB         -0.3286   -8.8438  -48.3678 C.3       2 UNK        -0.1800 
     64 N          -0.5926  -11.2567  -48.0809 N.am      2 UNK        -0.5000 
     65 C          -1.1768  -12.4639  -48.0586 C.2       1 UNK         0.5000 
     66 O          -2.3942  -12.6310  -47.9914 O.2       1 UNK        -0.5000 
     67 C          -1.0727  -22.0450  -46.1947 C.2       11 UNK         0.5000 
     68 O          -2.1653  -21.8417  -46.7228 O.2       11 UNK        -0.5000 
     69 N          -0.7956  -21.7528  -44.9153 N.am      12 UNK        -0.5000 
     70 CA         -1.7608  -21.2447  -43.9407 C.3       12 UNK         0.1400 
     71 CB         -1.0309  -20.8127  -42.6603 C.3       12 UNK        -0.1800 
     72 C          -2.8524  -22.2804  -43.6216 C.2       12 UNK         0.5000 
     73 O          -4.0283  -21.9225  -43.5734 O.2       12 UNK        -0.5000 
     74 N          -2.4576  -23.5539  -43.4718 N.am      13 UNK        -0.5000 
     75 CA         -3.3645  -24.6952  -43.3121 C.3       13 UNK         0.1400 
     76 CB         -2.5515  -25.9493  -42.9586 C.3       13 UNK        -0.1800 
     77 C          -4.2405  -24.9391  -44.5583 C.2       13 UNK         0.5000 
     78 O          -5.4064  -25.3099  -44.4227 O.2       13 UNK        -0.5000 
     79 N          -3.6769  -24.6732  -45.7442 N.am      14 UNK        -0.5000 
     80 CA         -4.3681  -24.6641  -47.0357 C.3       14 UNK         0.1400 
     81 CB         -3.3191  -24.8512  -48.1444 C.3       14 UNK        -0.1800 
     82 C          -5.1947  -23.3820  -47.2853 C.2       14 UNK         0.5000 
     83 O          -5.8302  -23.2773  -48.3375 O.2       14 UNK        -0.5000 
     84 N          -5.1331  -22.4141  -46.3548 N.am      15 UNK        -0.5000 
     85 CA         -5.7822  -21.0955  -46.3506 C.3       15 UNK         0.1400 
     86 CB         -7.3078  -21.2644  -46.2008 C.3       15 UNK        -0.1800 
     87 C          -5.4110  -20.2031  -47.5554 C.2       15 UNK         0.5000 
     88 O          -6.1769  -19.3046  -47.9058 O.2       15 UNK        -0.5000 
     89 N          -4.2797  -20.5129  -48.2092 N.am      16 UNK        -0.5000 
     90 CA         -3.8359  -20.0439  -49.5297 C.3       16 UNK         0.1400 
     91 CB         -3.5105  -18.5382  -49.4996 C.3       16 UNK        -0.1800 
     92 C          -4.7940  -20.4069  -50.6942 C.2       16 UNK         0.5000 
     93 O          -4.5473  -19.9985  -51.8299 O.2       16 UNK        -0.5000 
     94 N          -5.8519  -21.1784  -50.4114 N.am      17 UNK        -0.5000 
     95 CA         -6.9463  -21.5058  -51.3222 C.3       17 UNK         0.1400 
     96 CB         -8.2639  -21.4908  -50.5324 C.3       17 UNK        -0.1800 
     97 C          -6.7427  -22.8719  -51.9900 C.2       17 UNK         0.5000 
     98 O          -7.1455  -23.0419  -53.1396 O.2       17 UNK        -0.5000 
     99 N          -6.1048  -23.8075  -51.2742 N.am      18 UNK        -0.5000 
    100 CA        -5.6759  -25.1082  -51.7988 C.3       18 UNK         0.1400 
    101 CB        -6.0485  -26.2022  -50.7837 C.3       18 UNK        -0.1800 
    102 C         -4.1682  -25.1273  -52.1328 C.2       18 UNK         0.5000 
    103 O         -3.6704  -26.1367  -52.6316 O.2       18 UNK        -0.5000 
    104 N         -3.4698  -24.0182  -51.8505 N.am      19 UNK        -0.5000 
    105 CA        -2.0376  -23.8271  -52.0790 C.3       19 UNK         0.1400 
    106 CB        -1.5461  -22.5882  -51.3130 C.3       19 UNK        -0.1800 
    107 C         -1.5880  -23.7886  -53.5613 C.2       19 UNK         0.5000 
    108 O         -0.5792  -24.4220  -53.8661 O.2       19 UNK        -0.5000 
    109 N         -2.2519  -23.0913  -54.4981 N.am      20 UNK        -0.5000 
    110 CA        -3.4069  -22.2054  -54.3839 C.3       20 UNK         0.1400 
    111 CB        -4.6051  -22.8733  -55.0760 C.3       20 UNK        -0.1800 
    112 C         -3.1018  -20.8779  -55.0909 C.2       20 UNK         0.5000 
    113 O         -2.4834  -20.8893  -56.1582 O.2       20 UNK        -0.5000 
    114 N         -3.5817  -19.7752  -54.5014 N.am      21 UNK        -0.5000 
    115 CA        -3.5604  -18.3886  -54.9807 C.3       21 UNK         0.1400 
    116 CB        -4.3581  -18.2344  -56.2912 C.3       21 UNK        -0.1800 
    117 C         -2.1553  -17.7659  -55.0879 C.2       21 UNK         0.5000 
    118 O         -1.8550  -16.8362  -54.3381 O.2       21 UNK        -0.5000 
    119 N         -1.3291  -18.2879  -56.0038 N.am      22 UNK        -0.5000 
    120 CA         0.0161  -17.8002  -56.3606 C.3       22 UNK         0.1400 
    121 C          0.0256  -16.3442  -56.9317 C.2       22 UNK         0.5000 
    122 N          1.1871  -15.7251  -57.1019 N.am      22 UNK        -0.7600 
    123 O         -1.0065  -15.7777  -57.2868 O.2       22 UNK        -0.5000 
    124 C124        1.0516  -18.0369  -55.2202 C.3       23 UNK        -0.0398 
    125 S125        1.4238  -19.8083  -54.9809 S.3       23 UNK        -0.2404 
    126 C126        0.2853  -20.2831  -53.6459 C.3       23 UNK        -0.0205 
    127 H127        2.3468  -12.0606  -44.7662 H         1 UNK         0.0600 
    128 H128        3.1310  -13.1390  -45.9274 H         1 UNK         0.0600 
    129 H129        2.4308  -13.7961  -44.4451 H         1 UNK         0.0600 
    130 H130        1.8415  -13.5076  -47.7288 H         1 UNK         0.3000 
    131 H131       -0.7996  -14.5040  -47.5866 H         1 UNK         0.0600 
    132 H132        0.6334  -13.3199  -50.0128 H         1 UNK         0.0800 
    133 H133       -0.8156  -14.2812  -50.0722 H         1 UNK         0.0800 
    134 H134       -0.8719  -16.5314  -50.5651 H         1 UNK         0.0800 
    135 H135       -0.6129  -17.1563  -48.9533 H         1 UNK         0.0800 
    136 H136       -0.5826  -18.0634  -52.3121 H         1 UNK         0.1150 
    137 H137        2.0967  -21.3889  -51.9541 H         1 UNK         0.1150 
    138 H138        1.7269  -18.5809  -48.7436 H         1 UNK         0.1150 
    139 H139        3.8469  -21.1846  -50.0555 H         1 UNK         0.0800 
    140 H140        3.3991  -20.3171  -48.6063 H         1 UNK         0.0800 
    141 H141        0.2547  -21.0281  -48.3627 H         1 UNK         0.0800 
    142 H142        1.3818  -20.9794  -47.0222 H         1 UNK         0.0800 
    143 H143       -0.4334  -23.3145  -47.7881 H         1 UNK         0.0600 
    144 H144        1.7620  -23.2679  -45.9160 H         1 UNK         0.3000 
    145 H145        0.8351  -26.2385  -44.1990 H         1 UNK         0.0600 
    146 H146        3.0922  -26.9275  -44.9757 H         1 UNK         0.0600 
    147 H147        1.9351  -27.0469  -46.2919 H         1 UNK         0.0600 
    148 H148        3.0629  -25.6973  -46.2399 H         1 UNK         0.0600 
    149 H149        3.1137  -24.4952  -44.0671 H         1 UNK         0.3000 
    150 H150        1.7407  -22.1210  -41.8008 H         1 UNK         0.0600 
    151 H151        2.3577  -24.0389  -40.3215 H         1 UNK         0.0600 
    152 H152        3.6347  -22.8353  -40.3793 H         1 UNK         0.0600 
    153 H153        3.7957  -24.3371  -41.2908 H         1 UNK         0.0600 
    154 H154        4.3792  -22.4056  -42.7553 H         1 UNK         0.3000 
    155 H155        5.1218  -20.6213  -44.0464 H         1 UNK         0.0600 
    156 H156        4.1852  -22.1114  -46.5741 H         1 UNK         0.0600 
    157 H157        5.2425  -22.7757  -45.3352 H         1 UNK         0.0600 
    158 H158        5.7943  -21.4391  -46.3301 H         1 UNK         0.0600 
    159 H159        2.9539  -19.5442  -45.6283 H         1 UNK         0.3000 
    160 H160        4.5008  -16.4867  -45.9173 H         1 UNK         0.0600 
    161 H161        4.3197  -18.1105  -48.5103 H         1 UNK         0.0600 
    162 H162        5.7309  -17.2266  -47.9479 H         1 UNK         0.0600 
    163 H163        4.2725  -16.3536  -48.3854 H         1 UNK         0.0600 
    164 H164        2.2438  -17.5016  -47.3587 H         1 UNK         0.3000 
    165 H165        0.2725  -16.4424  -46.6481 H         1 UNK         0.0600 
    166 H166       -1.2827  -18.3432  -45.9681 H         1 UNK         0.0600 
    167 H167        0.1906  -18.8616  -46.7639 H         1 UNK         0.0600 
    168 H168        0.0443  -19.0184  -45.0222 H         1 UNK         0.0600 
    169 H169       -0.5708  -15.2319  -45.0214 H         1 UNK         0.3000 
    170 H170       -1.9829  -15.7952  -41.9156 H         1 UNK         0.0600 
    171 H171        0.3011  -15.1293  -41.1811 H         1 UNK         0.0600 
    172 H172        0.4374  -14.0125  -42.5338 H         1 UNK         0.0600 
    173 H173       -0.7525  -13.7246  -41.2649 H         1 UNK         0.0600 
    174 H174       -1.5464  -13.6630  -43.9208 H         1 UNK         0.3000 
    175 H175       -3.8102  -14.0401  -45.8712 H         1 UNK         0.0600 
    176 H176       -5.6315  -12.9498  -43.6642 H         1 UNK         0.0600 
    177 H177       -5.8044  -12.5917  -45.3826 H         1 UNK         0.0600 
    178 H178       -6.0033  -14.2358  -44.8009 H         1 UNK         0.0600 
    179 H179       -2.6493  -12.1866  -45.8075 H         1 UNK         0.3000 
    180 H180       -2.5379   -9.3228  -44.0956 H         1 UNK         0.0600 
    181 H181       -0.1365   -9.5079  -43.4130 H         1 UNK         0.0600 
    182 H182       -0.2877  -11.2625  -43.3247 H         1 UNK         0.0600 
    183 H183       -1.1965  -10.2398  -42.2205 H         1 UNK         0.0600 
    184 H184       -0.6504  -10.9059  -45.7336 H         1 UNK         0.3000 
    185 H185       -2.0889   -9.9949  -48.7935 H         1 UNK         0.0600 
    186 H186        0.1056   -8.9795  -49.3585 H         1 UNK         0.0600 
    187 H187       -0.8340   -7.8771  -48.3659 H         1 UNK         0.0600 
    188 H188        0.4879   -8.7887  -47.6467 H         1 UNK         0.0600 
    189 H189        0.4156  -11.2099  -48.1161 H         1 UNK         0.3000 
    190 H190        0.1584  -21.8701  -44.5903 H         1 UNK         0.3000 
    191 H191       -2.2394  -20.3646  -44.3755 H         1 UNK         0.0600 
    192 H192       -1.6974  -20.2445  -42.0107 H         1 UNK         0.0600 
    193 H193       -0.1744  -20.1771  -42.8834 H         1 UNK         0.0600 
    194 H194       -0.6694  -21.6652  -42.0870 H         1 UNK         0.0600 
    195 H195       -1.4623  -23.7554  -43.4550 H         1 UNK         0.3000 
    196 H196       -4.0321  -24.4762  -42.4763 H         1 UNK         0.0600 
    197 H197       -1.8548  -26.2167  -43.7531 H         1 UNK         0.0600 
    198 H198       -1.9747  -25.8003  -42.0456 H         1 UNK         0.0600 
    199 H199       -3.2067  -26.8057  -42.7944 H         1 UNK         0.0600 
    200 H200       -2.6918  -24.4389  -45.7622 H         1 UNK         0.3000 
    201 H201       -5.0597  -25.5079  -47.0722 H         1 UNK         0.0600 
    202 H202       -2.6032  -24.0322  -48.1627 H         1 UNK         0.0600 
    203 H203       -3.7793  -24.8893  -49.1290 H         1 UNK         0.0600 
    204 H204       -2.7628  -25.7791  -48.0104 H         1 UNK         0.0600 
    205 H205       -4.5523  -22.5894  -45.5445 H         1 UNK         0.3000 
    206 H206       -5.4154  -20.5732  -45.4665 H         1 UNK         0.0600 
    207 H207       -7.5515  -21.8879  -45.3405 H         1 UNK         0.0600 
    208 H208       -7.7986  -20.3023  -46.0500 H         1 UNK         0.0600 
    209 H209       -7.7519  -21.7238  -47.0846 H         1 UNK         0.0600 
    210 H210       -3.6794  -21.2096  -47.7747 H         1 UNK         0.3000 
    211 H211       -2.9025  -20.5693  -49.7271 H         1 UNK         0.0600 
    212 H212       -3.0256  -18.2250  -50.4251 H         1 UNK         0.0600 
    213 H213       -2.8321  -18.2999  -48.6806 H         1 UNK         0.0600 
    214 H214       -4.4079  -17.9308  -49.3802 H         1 UNK         0.0600 
    215 H215       -5.9414  -21.5371  -49.4679 H         1 UNK         0.3000 
    216 H216       -7.0099  -20.7505  -52.1086 H         1 UNK         0.0600 
    217 H217       -8.2623  -22.2310  -49.7309 H         1 UNK         0.0600 
    218 H218       -9.1125  -21.7093  -51.1820 H         1 UNK         0.0600 
    219 H219       -8.4406  -20.5134  -50.0826 H         1 UNK         0.0600 
    220 H220       -5.8895  -23.6126  -50.3006 H         1 UNK         0.3000 
    221 H221       -6.2010  -25.3333  -52.7293 H         1 UNK         0.0600 
    222 H222       -7.1288  -26.2514  -50.6467 H         1 UNK         0.0600 
    223 H223       -5.6021  -26.0279  -49.8061 H         1 UNK         0.0600 
    224 H224       -5.7224  -27.1856  -51.1247 H         1 UNK         0.0600 
    225 H225       -3.9753  -23.2412  -51.4562 H         1 UNK         0.3000 
    226 H226       -1.5409  -24.6890  -51.6277 H         1 UNK         0.0600 
    227 H227       -0.4613  -22.5007  -51.3799 H         1 UNK         0.0600 
    228 H228       -1.9716  -21.6650  -51.7058 H         1 UNK         0.0600 
    229 H229       -1.7922  -22.6561  -50.2534 H         1 UNK         0.0600 
    230 H230       -1.8547  -23.0813  -55.4274 H         1 UNK         0.3000 
    231 H231       -3.6526  -21.9894  -53.3472 H         1 UNK         0.0600 
    232 H232       -4.3947  -23.0898  -56.1242 H         1 UNK         0.0600 
    233 H233       -5.4817  -22.2251  -55.0499 H         1 UNK         0.0600 
    234 H234       -4.8768  -23.8120  -54.5969 H         1 UNK         0.0600 
    235 H235       -4.0239  -19.8830  -53.5893 H         1 UNK         0.3000 
    236 H236       -4.0915  -17.8157  -54.2186 H         1 UNK         0.0600 
    237 H237       -5.3890  -18.5647  -56.1634 H         1 UNK         0.0600 
    238 H238       -4.3880  -17.1906  -56.6061 H         1 UNK         0.0600 
    239 H239       -3.9238  -18.8077  -57.1104 H         1 UNK         0.0600 
    240 H240       -1.6576  -19.1026  -56.5110 H         1 UNK         0.3000 
    241 H241        0.3173  -18.4128  -57.2110 H         1 UNK         0.0600 
    242 H242        1.1875  -14.7954  -57.4926 H         1 UNK         0.3800 
    243 H243        2.0660  -16.1615  -56.8725 H         1 UNK         0.3800 
    244 H244        0.7243  -17.5805  -54.2871 H         1 UNK         0.0800 
    245 H245        2.0085  -17.5697  -55.4514 H         1 UNK         0.0800 
    246 H246       -0.7194  -19.9350  -53.8695 H         1 UNK         0.0800 
    247 H247        0.2274  -21.3714  -53.6192 H         1 UNK         0.0800 
@<TRIPOS>BOND
     1    1    2 1    
     2    1  127 1    
     3    1  128 1    
     4    1  129 1    
     5    2    3 2    
     6    2    4 am   BACKBONE|DICT|INTERRES
     7    4    5 1    
     8    4  130 1    
     9    5    6 1    
    10    5   65 1    
    11    5  131 1    
    12    6    7 1    
    13    6  132 1    
    14    6  133 1    
    15    7    8 1    
    16    8    9 1    
    17    8  134 1    
    18    8  135 1    
    19    9   10 ar   
    20    9   14 ar   
    21   10   11 ar   
    22   10  136 1    
    23   11   12 ar   
    24   11  126 1    
    25   12   13 ar   
    26   12  137 1    
    27   13   14 ar   
    28   13   15 1    
    29   14  138 1    
    30   15   16 1    
    31   15  139 1    
    32   15  140 1    
    33   16   17 1    
    34   17   18 1    
    35   17  141 1    
    36   17  142 1    
    37   18   19 1    
    38   18   67 1    
    39   18  143 1    
    40   19   20 am   BACKBONE|DICT|INTERRES
    41   19  144 1    
    42   20   21 2    
    43   20   22 1    
    44   22   23 1    
    45   22   24 1    
    46   22  145 1    
    47   23  146 1    
    48   23  147 1    
    49   23  148 1    
    50   24   25 am   BACKBONE|DICT|INTERRES
    51   24  149 1    
    52   25   26 2    
    53   25   27 1    
    54   27   28 1    
    55   27   29 1    
    56   27  150 1    
    57   28  151 1    
    58   28  152 1    
    59   28  153 1    
    60   29   30 am   BACKBONE|DICT|INTERRES
    61   29  154 1    
    62   30   31 2    
    63   30   32 1    
    64   32   33 1    
    65   32   34 1    
    66   32  155 1    
    67   33  156 1    
    68   33  157 1    
    69   33  158 1    
    70   34   35 am   BACKBONE|DICT|INTERRES
    71   34  159 1    
    72   35   36 2    
    73   35   37 1    
    74   37   38 1    
    75   37   39 1    
    76   37  160 1    
    77   38  161 1    
    78   38  162 1    
    79   38  163 1    
    80   39   40 am   BACKBONE|DICT|INTERRES
    81   39  164 1    
    82   40   41 2    
    83   40   42 1    
    84   42   43 1    
    85   42   44 1    
    86   42  165 1    
    87   43  166 1    
    88   43  167 1    
    89   43  168 1    
    90   44   45 am   BACKBONE|DICT|INTERRES
    91   44  169 1    
    92   45   46 2    
    93   45   47 1    
    94   47   48 1    
    95   47   49 1    
    96   47  170 1    
    97   48  171 1    
    98   48  172 1    
    99   48  173 1    
   100   49   50 am   BACKBONE|DICT|INTERRES
   101   49  174 1    
   102   50   51 2    
   103   50   52 1    
   104   52   53 1    
   105   52   54 1    
   106   52  175 1    
   107   53  176 1    
   108   53  177 1    
   109   53  178 1    
   110   54   55 am   BACKBONE|DICT|INTERRES
   111   54  179 1    
   112   55   56 2    
   113   55   57 1    
   114   57   58 1    
   115   57   59 1    
   116   57  180 1    
   117   58  181 1    
   118   58  182 1    
   119   58  183 1    
   120   59   60 am   BACKBONE|DICT|INTERRES
   121   59  184 1    
   122   60   61 2    
   123   60   62 1    
   124   62   63 1    
   125   62   64 1    
   126   62  185 1    
   127   63  186 1    
   128   63  187 1    
   129   63  188 1    
   130   64   65 am   BACKBONE|DICT|INTERRES
   131   64  189 1    
   132   65   66 2    
   133   67   68 2    
   134   67   69 am   BACKBONE|DICT|INTERRES
   135   69   70 1    
   136   69  190 1    
   137   70   71 1    
   138   70   72 1    
   139   70  191 1    
   140   71  192 1    
   141   71  193 1    
   142   71  194 1    
   143   72   73 2    
   144   72   74 am   BACKBONE|DICT|INTERRES
   145   74   75 1    
   146   74  195 1    
   147   75   76 1    
   148   75   77 1    
   149   75  196 1    
   150   76  197 1    
   151   76  198 1    
   152   76  199 1    
   153   77   78 2    
   154   77   79 am   BACKBONE|DICT|INTERRES
   155   79   80 1    
   156   79  200 1    
   157   80   81 1    
   158   80   82 1    
   159   80  201 1    
   160   81  202 1    
   161   81  203 1    
   162   81  204 1    
   163   82   83 2    
   164   82   84 am   BACKBONE|DICT|INTERRES
   165   84   85 1    
   166   84  205 1    
   167   85   86 1    
   168   85   87 1    
   169   85  206 1    
   170   86  207 1    
   171   86  208 1    
   172   86  209 1    
   173   87   88 2    
   174   87   89 am   BACKBONE|DICT|INTERRES
   175   89   90 1    
   176   89  210 1    
   177   90   91 1    
   178   90   92 1    
   179   90  211 1    
   180   91  212 1    
   181   91  213 1    
   182   91  214 1    
   183   92   93 2    
   184   92   94 am   BACKBONE|DICT|INTERRES
   185   94   95 1    
   186   94  215 1    
   187   95   96 1    
   188   95   97 1    
   189   95  216 1    
   190   96  217 1    
   191   96  218 1    
   192   96  219 1    
   193   97   98 2    
   194   97   99 am   BACKBONE|DICT|INTERRES
   195   99  100 1    
   196   99  220 1    
   197  100  101 1    
   198  100  102 1    
   199  100  221 1    
   200  101  222 1    
   201  101  223 1    
   202  101  224 1    
   203  102  103 2    
   204  102  104 am   BACKBONE|DICT|INTERRES
   205  104  105 1    
   206  104  225 1    
   207  105  106 1    
   208  105  107 1    
   209  105  226 1    
   210  106  227 1    
   211  106  228 1    
   212  106  229 1    
   213  107  108 2    
   214  107  109 am   BACKBONE|DICT|INTERRES
   215  109  110 1    
   216  109  230 1    
   217  110  111 1    
   218  110  112 1    
   219  110  231 1    
   220  111  232 1    
   221  111  233 1    
   222  111  234 1    
   223  112  113 2    
   224  112  114 am   BACKBONE|DICT|INTERRES
   225  114  115 1    
   226  114  235 1    
   227  115  116 1    
   228  115  117 1    
   229  115  236 1    
   230  116  237 1    
   231  116  238 1    
   232  116  239 1    
   233  117  118 2    
   234  117  119 am   BACKBONE|DICT|INTERRES
   235  119  120 1    
   236  119  240 1    
   237  120  121 1    
   238  120  124 1    
   239  120  241 1    
   240  121  122 am   BACKBONE|DICT|INTERRES
   241  121  123 2    
   242  122  242 1    
   243  122  243 1    
   244  124  125 1    
   245  124  244 1    
   246  124  245 1    
   247  125  126 1    
   248  126  246 1    
   249  126  247 1    
@<TRIPOS>SUBSTRUCTURE
     1 UNK         1 GROUP             0       ****    0 ROOT    
