@<TRIPOS>MOLECULE
3R540
247   249    1
SMALL
USER_CHARGES


@<TRIPOS>ATOM
      1 CA         -3.9658  -12.9901  -49.1924 C.3       0 UNK        -0.1800 
      2 C          -2.7524  -13.8226  -48.8098 C.2       0 UNK         0.5000 
      3 O          -2.8132  -15.0503  -48.8521 O.2       0 UNK        -0.5000 
      4 N          -1.6557  -13.1511  -48.4372 N.am      1 UNK        -0.5000 
      5 CA         -0.3341  -13.7125  -48.1070 C.3       1 UNK         0.1400 
      6 C6          0.2853  -14.5937  -49.2253 C.3       23 UNK        -0.0398 
      7 S7          0.3255  -13.7904  -50.8620 S.3       23 UNK        -0.2404 
      8 C8          1.8212  -14.5372  -51.5851 C.3       23 UNK        -0.0205 
      9 C9          1.7835  -16.0612  -51.5825 C.ar      23 UNK        -0.0193 
     10 C10         0.8077  -16.7470  -52.3128 C.ar      23 UNK        -0.1150 
     11 C11         0.7988  -18.1435  -52.3410 C.ar      23 UNK        -0.0193 
     12 C12         1.7833  -18.8514  -51.6485 C.ar      23 UNK        -0.1150 
     13 C13         2.7459  -18.1850  -50.8837 C.ar      23 UNK        -0.0193 
     14 C14         2.7394  -16.7865  -50.8619 C.ar      23 UNK        -0.1150 
     15 C15         3.8344  -18.9428  -50.1229 C.3       23 UNK        -0.0205 
     16 S16         3.3594  -20.6064  -49.5278 S.3       23 UNK        -0.2404 
     17 C17         2.3852  -20.2345  -48.0308 C.3       23 UNK        -0.0398 
     18 CA          1.0218  -20.9794  -47.9911 C.3       11 UNK         0.1400 
     19 N           0.6599  -21.3544  -46.6193 N.am      11 UNK        -0.5000 
     20 C          -0.2663  -22.2663  -46.2916 C.2       10 UNK         0.5000 
     21 O          -0.8940  -22.9308  -47.1161 O.2       10 UNK        -0.5000 
     22 CA         -0.5370  -22.4743  -44.7887 C.3       10 UNK         0.1400 
     23 CB          0.4527  -23.4876  -44.1939 C.3       10 UNK        -0.1800 
     24 N          -0.4754  -21.2254  -44.0275 N.am      10 UNK        -0.5000 
     25 C          -1.4069  -20.2636  -44.0851 C.2       9 UNK         0.5000 
     26 O          -2.4575  -20.3751  -44.7138 O.2       9 UNK        -0.5000 
     27 CA         -1.1150  -18.9454  -43.3404 C.3       9 UNK         0.1400 
     28 CB         -1.6368  -19.0048  -41.8980 C.3       9 UNK        -0.1800 
     29 N           0.3022  -18.5788  -43.3267 N.am      9 UNK        -0.5000 
     30 C           1.0413  -18.3175  -44.4137 C.2       8 UNK         0.5000 
     31 O           0.6025  -18.3382  -45.5608 O.2       8 UNK        -0.5000 
     32 CA          2.5386  -18.0604  -44.1843 C.3       8 UNK         0.1400 
     33 CB          2.7874  -16.6355  -43.6673 C.3       8 UNK        -0.1800 
     34 N           3.1140  -19.0376  -43.2608 N.am      8 UNK        -0.5000 
     35 C           3.2659  -20.3399  -43.5421 C.2       7 UNK         0.5000 
     36 O           2.9659  -20.8448  -44.6235 O.2       7 UNK        -0.5000 
     37 CA          3.8000  -21.2336  -42.4087 C.3       7 UNK         0.1400 
     38 CB          5.3315  -21.1500  -42.3267 C.3       7 UNK        -0.1800 
     39 N           3.2233  -20.8883  -41.1089 N.am      7 UNK        -0.5000 
     40 C           1.9317  -21.0502  -40.7880 C.2       6 UNK         0.5000 
     41 O           1.0974  -21.5494  -41.5413 O.2       6 UNK        -0.5000 
     42 CA          1.4904  -20.5167  -39.4127 C.3       6 UNK         0.1400 
     43 CB          1.7265  -21.5716  -38.3218 C.3       6 UNK        -0.1800 
     44 N           2.1590  -19.2673  -39.0369 N.am      6 UNK        -0.5000 
     45 C           2.0534  -18.1174  -39.7153 C.2       5 UNK         0.5000 
     46 O           1.4055  -17.9947  -40.7572 O.2       5 UNK        -0.5000 
     47 CA          2.8565  -16.9245  -39.1709 C.3       5 UNK         0.1400 
     48 CB          4.2491  -16.8839  -39.8188 C.3       5 UNK        -0.1800 
     49 N           2.1845  -15.6521  -39.4234 N.am      5 UNK        -0.5000 
     50 C           1.0314  -15.2575  -38.8740 C.2       4 UNK         0.5000 
     51 O           0.4145  -15.9228  -38.0404 O.2       4 UNK        -0.5000 
     52 CA          0.4673  -13.8875  -39.3039 C.3       4 UNK         0.1400 
     53 CB          1.0649  -12.7578  -38.4440 C.3       4 UNK        -0.1800 
     54 N           0.5691  -13.5663  -40.7354 N.am      4 UNK        -0.5000 
     55 C           1.6493  -13.3580  -41.4995 C.2       3 UNK         0.5000 
     56 O           2.8065  -13.5091  -41.1034 O.2       3 UNK        -0.5000 
     57 CA          1.3801  -12.9016  -42.9513 C.3       3 UNK         0.1400 
     58 CB          2.6761  -12.6677  -43.7488 C.3       3 UNK        -0.1800 
     59 N           0.5317  -13.8224  -43.7109 N.am      3 UNK        -0.5000 
     60 C          -0.7870  -14.0005  -43.5734 C.2       2 UNK         0.5000 
     61 O          -1.4627  -13.4303  -42.7145 O.2       2 UNK        -0.5000 
     62 CA         -1.4534  -14.9418  -44.5982 C.3       2 UNK         0.1400 
     63 CB         -2.9309  -15.2236  -44.2699 C.3       2 UNK        -0.1800 
     64 N          -1.3629  -14.3967  -45.9552 N.am      2 UNK        -0.5000 
     65 C          -0.2726  -14.4254  -46.7346 C.2       1 UNK         0.5000 
     66 O           0.7827  -14.9526  -46.3792 O.2       1 UNK        -0.5000 
     67 C          -0.0855  -20.1516  -48.6800 C.2       11 UNK         0.5000 
     68 O          -0.2747  -20.2840  -49.8867 O.2       11 UNK        -0.5000 
     69 N          -0.7609  -19.3080  -47.8877 N.am      12 UNK        -0.5000 
     70 CA         -1.6893  -18.2445  -48.2637 C.3       12 UNK         0.1400 
     71 CB         -2.4671  -17.8189  -47.0099 C.3       12 UNK        -0.1800 
     72 C          -2.6834  -18.5478  -49.3979 C.2       12 UNK         0.5000 
     73 O          -3.3409  -19.5891  -49.3959 O.2       12 UNK        -0.5000 
     74 N          -2.8701  -17.5523  -50.2733 N.am      13 UNK        -0.5000 
     75 CA         -3.9682  -17.4862  -51.2360 C.3       13 UNK         0.1400 
     76 CB         -3.7023  -16.3413  -52.2242 C.3       13 UNK        -0.1800 
     77 C          -5.3295  -17.2982  -50.5376 C.2       13 UNK         0.5000 
     78 O          -6.3448  -17.7724  -51.0472 O.2       13 UNK        -0.5000 
     79 N          -5.3165  -16.6649  -49.3533 N.am      14 UNK        -0.5000 
     80 CA         -6.4597  -16.5300  -48.4459 C.3       14 UNK         0.1400 
     81 CB         -6.0844  -15.5804  -47.2980 C.3       14 UNK        -0.1800 
     82 C          -6.9724  -17.8728  -47.8827 C.2       14 UNK         0.5000 
     83 O          -8.1342  -17.9506  -47.4840 O.2       14 UNK        -0.5000 
     84 N          -6.1228  -18.9107  -47.8919 N.am      15 UNK        -0.5000 
     85 CA         -6.4677  -20.2901  -47.5355 C.3       15 UNK         0.1400 
     86 CB         -5.2658  -20.9357  -46.8238 C.3       15 UNK        -0.1800 
     87 C          -6.9233  -21.1133  -48.7626 C.2       15 UNK         0.5000 
     88 O          -6.9459  -22.3419  -48.6855 O.2       15 UNK        -0.5000 
     89 N          -7.2837  -20.4163  -49.8523 N.am      16 UNK        -0.5000 
     90 CA         -7.6277  -20.8865  -51.1933 C.3       16 UNK         0.1400 
     91 CB         -8.7235  -21.9710  -51.1921 C.3       16 UNK        -0.1800 
     92 C          -6.3662  -21.3218  -51.9529 C.2       16 UNK         0.5000 
     93 O          -5.8064  -22.3818  -51.6727 O.2       16 UNK        -0.5000 
     94 N          -5.9520  -20.4971  -52.9240 N.am      17 UNK        -0.5000 
     95 CA         -4.7584  -20.6828  -53.7560 C.3       17 UNK         0.1400 
     96 CB         -4.6524  -19.5082  -54.7402 C.3       17 UNK        -0.1800 
     97 C          -4.7084  -22.0237  -54.5153 C.2       17 UNK         0.5000 
     98 O          -3.6197  -22.5597  -54.7230 O.2       17 UNK        -0.5000 
     99 N          -5.8809  -22.5533  -54.8893 N.am      18 UNK        -0.5000 
    100 CA        -6.0337  -23.8609  -55.5273 C.3       18 UNK         0.1400 
    101 CB        -7.4442  -23.9681  -56.1262 C.3       18 UNK        -0.1800 
    102 C         -5.7655  -25.0331  -54.5636 C.2       18 UNK         0.5000 
    103 O         -5.1995  -26.0416  -54.9851 O.2       18 UNK        -0.5000 
    104 N         -6.1553  -24.8774  -53.2902 N.am      19 UNK        -0.5000 
    105 CA        -5.9298  -25.8620  -52.2293 C.3       19 UNK         0.1400 
    106 CB        -6.9404  -25.6389  -51.0940 C.3       19 UNK        -0.1800 
    107 C         -4.4888  -25.7941  -51.6970 C.2       19 UNK         0.5000 
    108 O         -3.8920  -26.8335  -51.4149 O.2       19 UNK        -0.5000 
    109 N         -3.9458  -24.5720  -51.6093 N.am      20 UNK        -0.5000 
    110 CA        -2.5550  -24.2883  -51.2510 C.3       20 UNK         0.1400 
    111 CB        -2.4259  -22.7935  -50.9265 C.3       20 UNK        -0.1800 
    112 C         -1.5442  -24.6902  -52.3465 C.2       20 UNK         0.5000 
    113 O         -0.3526  -24.7916  -52.0535 O.2       20 UNK        -0.5000 
    114 N         -2.0390  -24.9113  -53.5744 N.am      21 UNK        -0.5000 
    115 CA        -1.3083  -25.2718  -54.7914 C.3       21 UNK         0.1400 
    116 CB        -0.6431  -26.6572  -54.6514 C.3       21 UNK        -0.1800 
    117 C         -0.3342  -24.1601  -55.2282 C.2       21 UNK         0.5000 
    118 O          0.8487  -24.4176  -55.4603 O.2       21 UNK        -0.5000 
    119 N         -0.8627  -22.9331  -55.3204 N.am      22 UNK        -0.5000 
    120 CA        -0.1299  -21.7249  -55.7337 C.3       22 UNK         0.1400 
    121 C          0.3185  -21.7083  -57.2277 C.2       22 UNK         0.5000 
    122 N         -0.2713  -22.5119  -58.1053 N.am      22 UNK        -0.7600 
    123 O          1.2221  -20.9637  -57.5967 O.2       22 UNK        -0.5000 
    124 C124       -0.9236  -20.4403  -55.3689 C.3       23 UNK        -0.0398 
    125 S125        0.1611  -19.0630  -54.8633 S.3       23 UNK        -0.2404 
    126 C126       -0.2741  -18.9000  -53.1058 C.3       23 UNK        -0.0205 
    127 H127       -4.6405  -13.5664  -49.8258 H         1 UNK         0.0600 
    128 H128       -3.6685  -12.0969  -49.7420 H         1 UNK         0.0600 
    129 H129       -4.5095  -12.6813  -48.3001 H         1 UNK         0.0600 
    130 H130       -1.6966  -12.1414  -48.4213 H         1 UNK         0.3000 
    131 H131        0.3175  -12.8446  -47.9961 H         1 UNK         0.0600 
    132 H132        1.3058  -14.8711  -48.9552 H         1 UNK         0.0800 
    133 H133       -0.2606  -15.5274  -49.3349 H         1 UNK         0.0800 
    134 H134        1.9280  -14.1874  -52.6127 H         1 UNK         0.0800 
    135 H135        2.6950  -14.1691  -51.0452 H         1 UNK         0.0800 
    136 H136        0.0583  -16.1935  -52.8611 H         1 UNK         0.1150 
    137 H137        1.7793  -19.9308  -51.6935 H         1 UNK         0.1150 
    138 H138        3.4940  -16.2595  -50.2947 H         1 UNK         0.1150 
    139 H139        4.6894  -19.0545  -50.7906 H         1 UNK         0.0800 
    140 H140        4.1858  -18.3536  -49.2742 H         1 UNK         0.0800 
    141 H141        2.2617  -19.1565  -47.9067 H         1 UNK         0.0800 
    142 H142        3.0099  -20.5502  -47.1955 H         1 UNK         0.0800 
    143 H143        1.1214  -21.9122  -48.5509 H         1 UNK         0.0600 
    144 H144        1.1610  -20.8847  -45.8748 H         1 UNK         0.3000 
    145 H145       -1.5426  -22.8882  -44.6872 H         1 UNK         0.0600 
    146 H146        0.4171  -24.4332  -44.7363 H         1 UNK         0.0600 
    147 H147        1.4792  -23.1227  -44.2364 H         1 UNK         0.0600 
    148 H148        0.2172  -23.7020  -43.1514 H         1 UNK         0.0600 
    149 H149        0.3192  -21.1027  -43.4100 H         1 UNK         0.3000 
    150 H150       -1.6554  -18.1527  -43.8601 H         1 UNK         0.0600 
    151 H151       -1.4918  -18.0532  -41.3860 H         1 UNK         0.0600 
    152 H152       -1.1283  -19.7768  -41.3204 H         1 UNK         0.0600 
    153 H153       -2.7043  -19.2276  -41.8774 H         1 UNK         0.0600 
    154 H154        0.7426  -18.5078  -42.4116 H         1 UNK         0.3000 
    155 H155        3.0471  -18.1631  -45.1455 H         1 UNK         0.0600 
    156 H156        2.4468  -15.9023  -44.3978 H         1 UNK         0.0600 
    157 H157        3.8491  -16.4538  -43.5009 H         1 UNK         0.0600 
    158 H158        2.2617  -16.4366  -42.7332 H         1 UNK         0.0600 
    159 H159        3.3281  -18.7136  -42.3301 H         1 UNK         0.3000 
    160 H160        3.5255  -22.2651  -42.6401 H         1 UNK         0.0600 
    161 H161        5.7878  -21.4169  -43.2809 H         1 UNK         0.0600 
    162 H162        5.7238  -21.8373  -41.5769 H         1 UNK         0.0600 
    163 H163        5.6691  -20.1449  -42.0707 H         1 UNK         0.0600 
    164 H164        3.8410  -20.4724  -40.4279 H         1 UNK         0.3000 
    165 H165        0.4184  -20.3166  -39.4655 H         1 UNK         0.0600 
    166 H166        1.3361  -21.2387  -37.3599 H         1 UNK         0.0600 
    167 H167        1.2229  -22.5073  -38.5687 H         1 UNK         0.0600 
    168 H168        2.7871  -21.7928  -38.1962 H         1 UNK         0.0600 
    169 H169        2.7191  -19.2925  -38.1968 H         1 UNK         0.3000 
    170 H170        2.9723  -17.0395  -38.0913 H         1 UNK         0.0600 
    171 H171        4.8494  -16.0714  -39.4089 H         1 UNK         0.0600 
    172 H172        4.7949  -17.8113  -39.6406 H         1 UNK         0.0600 
    173 H173        4.1871  -16.7395  -40.8980 H         1 UNK         0.0600 
    174 H174        2.6134  -15.0245  -40.0988 H         1 UNK         0.3000 
    175 H175       -0.6032  -13.9205  -39.0949 H         1 UNK         0.0600 
    176 H176        2.1400  -12.6564  -38.5950 H         1 UNK         0.0600 
    177 H177        0.6014  -11.7988  -38.6754 H         1 UNK         0.0600 
    178 H178        0.9025  -12.9490  -37.3825 H         1 UNK         0.0600 
    179 H179       -0.3245  -13.4665  -41.2114 H         1 UNK         0.3000 
    180 H180        0.8609  -11.9432  -42.8856 H         1 UNK         0.0600 
    181 H181        2.4618  -12.2906  -44.7491 H         1 UNK         0.0600 
    182 H182        3.2563  -13.5850  -43.8540 H         1 UNK         0.0600 
    183 H183        3.3122  -11.9313  -43.2562 H         1 UNK         0.0600 
    184 H184        0.9786  -14.3101  -44.4802 H         1 UNK         0.3000 
    185 H185       -0.9168  -15.8915  -44.5612 H         1 UNK         0.0600 
    186 H186       -3.5331  -14.3150  -44.3050 H         1 UNK         0.0600 
    187 H187       -3.3649  -15.9372  -44.9688 H         1 UNK         0.0600 
    188 H188       -3.0339  -15.6494  -43.2709 H         1 UNK         0.0600 
    189 H189       -2.1794  -13.9185  -46.3061 H         1 UNK         0.3000 
    190 H190       -0.4594  -19.2693  -46.9196 H         1 UNK         0.3000 
    191 H191       -1.0641  -17.4095  -48.5725 H         1 UNK         0.0600 
    192 H192       -3.0616  -18.6410  -46.6116 H         1 UNK         0.0600 
    193 H193       -3.1520  -17.0006  -47.2228 H         1 UNK         0.0600 
    194 H194       -1.7949  -17.4760  -46.2262 H         1 UNK         0.0600 
    195 H195       -2.3721  -16.6837  -50.1188 H         1 UNK         0.3000 
    196 H196       -3.9985  -18.4276  -51.7868 H         1 UNK         0.0600 
    197 H197       -4.4992  -16.2720  -52.9657 H         1 UNK         0.0600 
    198 H198       -2.7680  -16.4926  -52.7645 H         1 UNK         0.0600 
    199 H199       -3.6415  -15.3777  -51.7163 H         1 UNK         0.0600 
    200 H200       -4.4391  -16.2610  -49.0419 H         1 UNK         0.3000 
    201 H201       -7.2798  -16.0796  -49.0086 H         1 UNK         0.0600 
    202 H202       -5.8328  -14.5899  -47.6728 H         1 UNK         0.0600 
    203 H203       -5.2340  -15.9515  -46.7262 H         1 UNK         0.0600 
    204 H204       -6.9165  -15.4573  -46.6035 H         1 UNK         0.0600 
    205 H205       -5.1966  -18.7814  -48.2778 H         1 UNK         0.3000 
    206 H206       -7.3017  -20.2859  -46.8310 H         1 UNK         0.0600 
    207 H207       -5.5162  -21.9293  -46.4508 H         1 UNK         0.0600 
    208 H208       -4.4090  -21.0446  -47.4887 H         1 UNK         0.0600 
    209 H209       -4.9504  -20.3415  -45.9662 H         1 UNK         0.0600 
    210 H210       -7.1758  -19.4120  -49.7954 H         1 UNK         0.3000 
    211 H211       -8.0467  -20.0188  -51.7054 H         1 UNK         0.0600 
    212 H212       -8.3841  -22.9055  -50.7475 H         1 UNK         0.0600 
    213 H213       -9.0412  -22.1981  -52.2102 H         1 UNK         0.0600 
    214 H214       -9.6044  -21.6396  -50.6424 H         1 UNK         0.0600 
    215 H215       -6.4654  -19.6395  -53.0723 H         1 UNK         0.3000 
    216 H216       -3.8916  -20.6521  -53.0939 H         1 UNK         0.0600 
    217 H217       -3.7781  -19.6071  -55.3829 H         1 UNK         0.0600 
    218 H218       -4.5605  -18.5572  -54.2164 H         1 UNK         0.0600 
    219 H219       -5.5269  -19.4492  -55.3893 H         1 UNK         0.0600 
    220 H220       -6.7260  -22.0395  -54.6892 H         1 UNK         0.3000 
    221 H221       -5.3114  -23.9300  -56.3438 H         1 UNK         0.0600 
    222 H222       -8.2158  -23.8849  -55.3598 H         1 UNK         0.0600 
    223 H223       -7.6189  -23.1862  -56.8656 H         1 UNK         0.0600 
    224 H224       -7.5828  -24.9261  -56.6291 H         1 UNK         0.0600 
    225 H225       -6.5336  -23.9860  -52.9991 H         1 UNK         0.3000 
    226 H226       -6.0949  -26.8621  -52.6362 H         1 UNK         0.0600 
    227 H227       -7.9655  -25.6648  -51.4639 H         1 UNK         0.0600 
    228 H228       -6.8477  -26.4166  -50.3351 H         1 UNK         0.0600 
    229 H229       -6.7853  -24.6810  -50.5966 H         1 UNK         0.0600 
    230 H230       -4.5440  -23.7670  -51.7806 H         1 UNK         0.3000 
    231 H231       -2.3119  -24.8565  -50.3509 H         1 UNK         0.0600 
    232 H232       -2.6144  -22.1727  -51.8020 H         1 UNK         0.0600 
    233 H233       -3.1221  -22.4907  -50.1435 H         1 UNK         0.0600 
    234 H234       -1.4212  -22.5636  -50.5718 H         1 UNK         0.0600 
    235 H235       -3.0278  -24.7469  -53.7004 H         1 UNK         0.3000 
    236 H236       -2.0571  -25.3495  -55.5812 H         1 UNK         0.0600 
    237 H237        0.1547  -26.6551  -53.9083 H         1 UNK         0.0600 
    238 H238       -1.3709  -27.4145  -54.3598 H         1 UNK         0.0600 
    239 H239       -0.2052  -26.9751  -55.5982 H         1 UNK         0.0600 
    240 H240       -1.8514  -22.8137  -55.1079 H         1 UNK         0.3000 
    241 H241        0.7905  -21.7299  -55.1462 H         1 UNK         0.0600 
    242 H242       -1.0138  -23.1291  -57.8190 H         1 UNK         0.3800 
    243 H243        0.0286  -22.5009  -59.0677 H         1 UNK         0.3800 
    244 H244       -1.5515  -20.1120  -56.1989 H         1 UNK         0.0800 
    245 H245       -1.6145  -20.6425  -54.5500 H         1 UNK         0.0800 
    246 H246       -0.4069  -19.8893  -52.6638 H         1 UNK         0.0800 
    247 H247       -1.2342  -18.3917  -53.0109 H         1 UNK         0.0800 
@<TRIPOS>BOND
     1    1    2 1    
     2    1  127 1    
     3    1  128 1    
     4    1  129 1    
     5    2    3 2    
     6    2    4 am   BACKBONE|DICT|INTERRES
     7    4    5 1    
     8    4  130 1    
     9    5    6 1    
    10    5   65 1    
    11    5  131 1    
    12    6    7 1    
    13    6  132 1    
    14    6  133 1    
    15    7    8 1    
    16    8    9 1    
    17    8  134 1    
    18    8  135 1    
    19    9   10 ar   
    20    9   14 ar   
    21   10   11 ar   
    22   10  136 1    
    23   11   12 ar   
    24   11  126 1    
    25   12   13 ar   
    26   12  137 1    
    27   13   14 ar   
    28   13   15 1    
    29   14  138 1    
    30   15   16 1    
    31   15  139 1    
    32   15  140 1    
    33   16   17 1    
    34   17   18 1    
    35   17  141 1    
    36   17  142 1    
    37   18   19 1    
    38   18   67 1    
    39   18  143 1    
    40   19   20 am   BACKBONE|DICT|INTERRES
    41   19  144 1    
    42   20   21 2    
    43   20   22 1    
    44   22   23 1    
    45   22   24 1    
    46   22  145 1    
    47   23  146 1    
    48   23  147 1    
    49   23  148 1    
    50   24   25 am   BACKBONE|DICT|INTERRES
    51   24  149 1    
    52   25   26 2    
    53   25   27 1    
    54   27   28 1    
    55   27   29 1    
    56   27  150 1    
    57   28  151 1    
    58   28  152 1    
    59   28  153 1    
    60   29   30 am   BACKBONE|DICT|INTERRES
    61   29  154 1    
    62   30   31 2    
    63   30   32 1    
    64   32   33 1    
    65   32   34 1    
    66   32  155 1    
    67   33  156 1    
    68   33  157 1    
    69   33  158 1    
    70   34   35 am   BACKBONE|DICT|INTERRES
    71   34  159 1    
    72   35   36 2    
    73   35   37 1    
    74   37   38 1    
    75   37   39 1    
    76   37  160 1    
    77   38  161 1    
    78   38  162 1    
    79   38  163 1    
    80   39   40 am   BACKBONE|DICT|INTERRES
    81   39  164 1    
    82   40   41 2    
    83   40   42 1    
    84   42   43 1    
    85   42   44 1    
    86   42  165 1    
    87   43  166 1    
    88   43  167 1    
    89   43  168 1    
    90   44   45 am   BACKBONE|DICT|INTERRES
    91   44  169 1    
    92   45   46 2    
    93   45   47 1    
    94   47   48 1    
    95   47   49 1    
    96   47  170 1    
    97   48  171 1    
    98   48  172 1    
    99   48  173 1    
   100   49   50 am   BACKBONE|DICT|INTERRES
   101   49  174 1    
   102   50   51 2    
   103   50   52 1    
   104   52   53 1    
   105   52   54 1    
   106   52  175 1    
   107   53  176 1    
   108   53  177 1    
   109   53  178 1    
   110   54   55 am   BACKBONE|DICT|INTERRES
   111   54  179 1    
   112   55   56 2    
   113   55   57 1    
   114   57   58 1    
   115   57   59 1    
   116   57  180 1    
   117   58  181 1    
   118   58  182 1    
   119   58  183 1    
   120   59   60 am   BACKBONE|DICT|INTERRES
   121   59  184 1    
   122   60   61 2    
   123   60   62 1    
   124   62   63 1    
   125   62   64 1    
   126   62  185 1    
   127   63  186 1    
   128   63  187 1    
   129   63  188 1    
   130   64   65 am   BACKBONE|DICT|INTERRES
   131   64  189 1    
   132   65   66 2    
   133   67   68 2    
   134   67   69 am   BACKBONE|DICT|INTERRES
   135   69   70 1    
   136   69  190 1    
   137   70   71 1    
   138   70   72 1    
   139   70  191 1    
   140   71  192 1    
   141   71  193 1    
   142   71  194 1    
   143   72   73 2    
   144   72   74 am   BACKBONE|DICT|INTERRES
   145   74   75 1    
   146   74  195 1    
   147   75   76 1    
   148   75   77 1    
   149   75  196 1    
   150   76  197 1    
   151   76  198 1    
   152   76  199 1    
   153   77   78 2    
   154   77   79 am   BACKBONE|DICT|INTERRES
   155   79   80 1    
   156   79  200 1    
   157   80   81 1    
   158   80   82 1    
   159   80  201 1    
   160   81  202 1    
   161   81  203 1    
   162   81  204 1    
   163   82   83 2    
   164   82   84 am   BACKBONE|DICT|INTERRES
   165   84   85 1    
   166   84  205 1    
   167   85   86 1    
   168   85   87 1    
   169   85  206 1    
   170   86  207 1    
   171   86  208 1    
   172   86  209 1    
   173   87   88 2    
   174   87   89 am   BACKBONE|DICT|INTERRES
   175   89   90 1    
   176   89  210 1    
   177   90   91 1    
   178   90   92 1    
   179   90  211 1    
   180   91  212 1    
   181   91  213 1    
   182   91  214 1    
   183   92   93 2    
   184   92   94 am   BACKBONE|DICT|INTERRES
   185   94   95 1    
   186   94  215 1    
   187   95   96 1    
   188   95   97 1    
   189   95  216 1    
   190   96  217 1    
   191   96  218 1    
   192   96  219 1    
   193   97   98 2    
   194   97   99 am   BACKBONE|DICT|INTERRES
   195   99  100 1    
   196   99  220 1    
   197  100  101 1    
   198  100  102 1    
   199  100  221 1    
   200  101  222 1    
   201  101  223 1    
   202  101  224 1    
   203  102  103 2    
   204  102  104 am   BACKBONE|DICT|INTERRES
   205  104  105 1    
   206  104  225 1    
   207  105  106 1    
   208  105  107 1    
   209  105  226 1    
   210  106  227 1    
   211  106  228 1    
   212  106  229 1    
   213  107  108 2    
   214  107  109 am   BACKBONE|DICT|INTERRES
   215  109  110 1    
   216  109  230 1    
   217  110  111 1    
   218  110  112 1    
   219  110  231 1    
   220  111  232 1    
   221  111  233 1    
   222  111  234 1    
   223  112  113 2    
   224  112  114 am   BACKBONE|DICT|INTERRES
   225  114  115 1    
   226  114  235 1    
   227  115  116 1    
   228  115  117 1    
   229  115  236 1    
   230  116  237 1    
   231  116  238 1    
   232  116  239 1    
   233  117  118 2    
   234  117  119 am   BACKBONE|DICT|INTERRES
   235  119  120 1    
   236  119  240 1    
   237  120  121 1    
   238  120  124 1    
   239  120  241 1    
   240  121  122 am   BACKBONE|DICT|INTERRES
   241  121  123 2    
   242  122  242 1    
   243  122  243 1    
   244  124  125 1    
   245  124  244 1    
   246  124  245 1    
   247  125  126 1    
   248  126  246 1    
   249  126  247 1    
@<TRIPOS>SUBSTRUCTURE
     1 UNK         1 GROUP             0       ****    0 ROOT    
