@<TRIPOS>MOLECULE
3R540
247   249    1
SMALL
USER_CHARGES


@<TRIPOS>ATOM
      1 CA          4.3458  -17.0894  -49.0696 C.3       0 UNK        -0.1800 
      2 C           3.2074  -16.5468  -48.2173 C.2       0 UNK         0.5000 
      3 O           2.6090  -17.2903  -47.4390 O.2       0 UNK        -0.5000 
      4 N           2.9021  -15.2526  -48.3614 N.am      1 UNK        -0.5000 
      5 CA          1.9071  -14.5407  -47.5470 C.3       1 UNK         0.1400 
      6 C6          1.1920  -13.4271  -48.3475 C.3       23 UNK        -0.0398 
      7 S7          0.0740  -14.1499  -49.5934 S.3       23 UNK        -0.2404 
      8 C8          1.0346  -14.0025  -51.1331 C.3       23 UNK        -0.0205 
      9 C9          0.7349  -15.1801  -52.0462 C.ar      23 UNK        -0.0193 
     10 C10        -0.4031  -15.1789  -52.8559 C.ar      23 UNK        -0.1150 
     11 C11        -0.7368  -16.2965  -53.6283 C.ar      23 UNK        -0.0193 
     12 C12         0.0950  -17.4242  -53.5850 C.ar      23 UNK        -0.1150 
     13 C13         1.2510  -17.4273  -52.7987 C.ar      23 UNK        -0.0193 
     14 C14         1.5720  -16.2962  -52.0437 C.ar      23 UNK        -0.1150 
     15 C15         2.1506  -18.6550  -52.7518 C.3       23 UNK        -0.0205 
     16 S16         1.4761  -19.9859  -51.7024 S.3       23 UNK        -0.2404 
     17 C17         1.3954  -19.1903  -50.0569 C.3       23 UNK        -0.0398 
     18 CA          0.0898  -19.4242  -49.2612 C.3       11 UNK         0.1400 
     19 N           0.1300  -18.7170  -47.9749 N.am      11 UNK        -0.5000 
     20 C          -0.8018  -18.8050  -47.0189 C.2       10 UNK         0.5000 
     21 O          -1.8127  -19.5067  -47.1103 O.2       10 UNK        -0.5000 
     22 CA         -0.6152  -17.9002  -45.7921 C.3       10 UNK         0.1400 
     23 CB         -1.3437  -16.5647  -46.0114 C.3       10 UNK        -0.1800 
     24 N          -1.1462  -18.5349  -44.5887 N.am      10 UNK        -0.5000 
     25 C          -0.5827  -19.5813  -43.9754 C.2       9 UNK         0.5000 
     26 O           0.5027  -20.0691  -44.2982 O.2       9 UNK        -0.5000 
     27 CA         -1.3743  -20.1969  -42.8076 C.3       9 UNK         0.1400 
     28 CB         -1.9151  -21.5837  -43.1909 C.3       9 UNK        -0.1800 
     29 N          -0.5450  -20.3103  -41.6080 N.am      9 UNK        -0.5000 
     30 C          -0.0996  -19.2603  -40.9073 C.2       8 UNK         0.5000 
     31 O          -0.4132  -18.0948  -41.1652 O.2       8 UNK        -0.5000 
     32 CA          0.8385  -19.5713  -39.7263 C.3       8 UNK         0.1400 
     33 CB          2.1986  -20.1022  -40.2092 C.3       8 UNK        -0.1800 
     34 N           1.0702  -18.3597  -38.9463 N.am      8 UNK        -0.5000 
     35 C           0.4298  -18.0319  -37.8182 C.2       7 UNK         0.5000 
     36 O          -0.3590  -18.7838  -37.2420 O.2       7 UNK        -0.5000 
     37 CA          0.6945  -16.6186  -37.2544 C.3       7 UNK         0.1400 
     38 CB          0.4981  -16.5298  -35.7262 C.3       7 UNK        -0.1800 
     39 N           1.9888  -16.0581  -37.6574 N.am      7 UNK        -0.5000 
     40 C           3.2165  -16.4931  -37.3290 C.2       6 UNK         0.5000 
     41 O           3.4263  -17.4394  -36.5691 O.2       6 UNK        -0.5000 
     42 CA          4.4187  -15.7623  -37.9665 C.3       6 UNK         0.1400 
     43 CB          5.3153  -16.7453  -38.7390 C.3       6 UNK        -0.1800 
     44 N           4.0008  -14.6963  -38.8788 N.am      6 UNK        -0.5000 
     45 C           3.7712  -13.4231  -38.5297 C.2       5 UNK         0.5000 
     46 O           3.9799  -12.9753  -37.4020 O.2       5 UNK        -0.5000 
     47 CA          3.1730  -12.5031  -39.6126 C.3       5 UNK         0.1400 
     48 CB          4.2694  -11.6464  -40.2633 C.3       5 UNK        -0.1800 
     49 N           2.4499  -13.2459  -40.6503 N.am      5 UNK        -0.5000 
     50 C           1.2515  -13.8228  -40.4673 C.2       4 UNK         0.5000 
     51 O           0.6278  -13.7631  -39.4077 O.2       4 UNK        -0.5000 
     52 CA          0.6725  -14.6479  -41.6339 C.3       4 UNK         0.1400 
     53 CB         -0.2166  -13.7688  -42.5247 C.3       4 UNK        -0.1800 
     54 N           1.6982  -15.2886  -42.4578 N.am      4 UNK        -0.5000 
     55 C           2.5608  -16.2163  -42.0148 C.2       3 UNK         0.5000 
     56 O           2.5556  -16.6522  -40.8631 O.2       3 UNK        -0.5000 
     57 CA          3.6565  -16.6873  -42.9934 C.3       3 UNK         0.1400 
     58 CB          3.2266  -17.9769  -43.7067 C.3       3 UNK        -0.1800 
     59 N           4.0146  -15.6933  -44.0077 N.am      3 UNK        -0.5000 
     60 C           4.4598  -14.4502  -43.7717 C.2       2 UNK         0.5000 
     61 O           4.6766  -14.0086  -42.6438 O.2       2 UNK        -0.5000 
     62 CA          4.6415  -13.5275  -44.9939 C.3       2 UNK         0.1400 
     63 CB          6.1250  -13.4378  -45.3811 C.3       2 UNK        -0.1800 
     64 N           3.8659  -13.9394  -46.1692 N.am      2 UNK        -0.5000 
     65 C           2.5261  -14.0000  -46.2406 C.2       1 UNK         0.5000 
     66 O           1.7864  -13.6976  -45.3039 O.2       1 UNK        -0.5000 
     67 C          -1.1996  -19.1193  -50.0623 C.2       11 UNK         0.5000 
     68 O          -1.7655  -20.0377  -50.6511 O.2       11 UNK        -0.5000 
     69 N          -1.7023  -17.8780  -49.9757 N.am      12 UNK        -0.5000 
     70 CA         -2.9745  -17.4469  -50.5651 C.3       12 UNK         0.1400 
     71 CB         -3.1205  -15.9290  -50.3844 C.3       12 UNK        -0.1800 
     72 C          -4.2272  -18.1616  -50.0109 C.2       12 UNK         0.5000 
     73 O          -5.2732  -18.1141  -50.6594 O.2       12 UNK        -0.5000 
     74 N          -4.1181  -18.7895  -48.8329 N.am      13 UNK        -0.5000 
     75 CA         -5.1562  -19.6337  -48.2469 C.3       13 UNK         0.1400 
     76 CB         -5.2931  -19.3107  -46.7501 C.3       13 UNK        -0.1800 
     77 C          -4.8160  -21.1173  -48.4556 C.2       13 UNK         0.5000 
     78 O          -5.6839  -21.8908  -48.8615 O.2       13 UNK        -0.5000 
     79 N          -3.5579  -21.4912  -48.1834 N.am      14 UNK        -0.5000 
     80 CA         -3.0722  -22.8683  -48.2413 C.3       14 UNK         0.1400 
     81 CB         -1.6584  -22.9433  -47.6472 C.3       14 UNK        -0.1800 
     82 C          -3.1105  -23.4746  -49.6542 C.2       14 UNK         0.5000 
     83 O          -3.5711  -24.6049  -49.8066 O.2       14 UNK        -0.5000 
     84 N          -2.6670  -22.7187  -50.6683 N.am      15 UNK        -0.5000 
     85 CA         -2.6590  -23.1632  -52.0636 C.3       15 UNK         0.1400 
     86 CB         -1.6978  -22.2924  -52.8843 C.3       15 UNK        -0.1800 
     87 C          -4.0678  -23.1764  -52.6822 C.2       15 UNK         0.5000 
     88 O          -4.3322  -24.0005  -53.5584 O.2       15 UNK        -0.5000 
     89 N          -4.9648  -22.3114  -52.1898 N.am      16 UNK        -0.5000 
     90 CA         -6.3841  -22.3144  -52.5438 C.3       16 UNK         0.1400 
     91 CB         -7.0624  -21.0423  -52.0147 C.3       16 UNK        -0.1800 
     92 C          -7.1020  -23.5706  -52.0218 C.2       16 UNK         0.5000 
     93 O          -7.9425  -24.1266  -52.7274 O.2       16 UNK        -0.5000 
     94 N          -6.7407  -24.0090  -50.8093 N.am      17 UNK        -0.5000 
     95 CA         -7.2511  -25.2294  -50.1935 C.3       17 UNK         0.1400 
     96 CB         -6.9871  -25.1840  -48.6799 C.3       17 UNK        -0.1800 
     97 C          -6.6490  -26.4998  -50.8217 C.2       17 UNK         0.5000 
     98 O          -7.3962  -27.4109  -51.1799 O.2       17 UNK        -0.5000 
     99 N          -5.3136  -26.5516  -50.9176 N.am      18 UNK        -0.5000 
    100 CA        -4.5709  -27.7561  -51.2874 C.3       18 UNK         0.1400 
    101 CB        -3.1446  -27.6672  -50.7217 C.3       18 UNK        -0.1800 
    102 C         -4.5236  -28.0230  -52.8002 C.2       18 UNK         0.5000 
    103 O         -4.6847  -29.1739  -53.2092 O.2       18 UNK        -0.5000 
    104 N         -4.2634  -26.9787  -53.5972 N.am      19 UNK        -0.5000 
    105 CA        -3.9546  -27.0953  -55.0264 C.3       19 UNK         0.1400 
    106 CB        -2.5990  -26.4138  -55.2860 C.3       19 UNK        -0.1800 
    107 C         -5.0410  -26.4928  -55.9336 C.2       19 UNK         0.5000 
    108 O         -4.9343  -26.6267  -57.1534 O.2       19 UNK        -0.5000 
    109 N         -6.0434  -25.8259  -55.3406 N.am      20 UNK        -0.5000 
    110 CA        -7.0865  -25.0338  -56.0059 C.3       20 UNK         0.1400 
    111 CB        -8.0137  -25.9295  -56.8548 C.3       20 UNK        -0.1800 
    112 C         -6.5122  -23.8315  -56.7894 C.2       20 UNK         0.5000 
    113 O         -7.0615  -23.4455  -57.8234 O.2       20 UNK        -0.5000 
    114 N         -5.4070  -23.2695  -56.2816 N.am      21 UNK        -0.5000 
    115 CA        -4.7195  -22.1033  -56.8319 C.3       21 UNK         0.1400 
    116 CB        -3.2161  -22.2478  -56.5333 C.3       21 UNK        -0.1800 
    117 C         -5.3107  -20.7937  -56.2667 C.2       21 UNK         0.5000 
    118 O         -6.4490  -20.7794  -55.7906 O.2       21 UNK        -0.5000 
    119 N         -4.5328  -19.7061  -56.3340 N.am      22 UNK        -0.5000 
    120 CA        -4.8476  -18.4252  -55.6859 C.3       22 UNK         0.1400 
    121 C         -4.8447  -18.5181  -54.1316 C.2       22 UNK         0.5000 
    122 N         -5.6052  -17.6731  -53.4499 N.am      22 UNK        -0.7600 
    123 O         -4.1358  -19.3255  -53.5367 O.2       22 UNK        -0.5000 
    124 C124       -3.9407  -17.2795  -56.2106 C.3       23 UNK        -0.0398 
    125 S125       -2.1644  -17.4531  -55.8055 S.3       23 UNK        -0.2404 
    126 C126       -2.0373  -16.2564  -54.4297 C.3       23 UNK        -0.0205 
    127 H127        3.9823  -17.8505  -49.7582 H         1 UNK         0.0600 
    128 H128        5.1046  -17.5427  -48.4319 H         1 UNK         0.0600 
    129 H129        4.8222  -16.3035  -49.6559 H         1 UNK         0.0600 
    130 H130        3.4078  -14.6929  -49.0330 H         1 UNK         0.3000 
    131 H131        1.1428  -15.2506  -47.2272 H         1 UNK         0.0600 
    132 H132        1.9058  -12.7482  -48.8167 H         1 UNK         0.0800 
    133 H133        0.5753  -12.8131  -47.6884 H         1 UNK         0.0800 
    134 H134        2.1022  -13.9644  -50.9142 H         1 UNK         0.0800 
    135 H135        0.7858  -13.0635  -51.6294 H         1 UNK         0.0800 
    136 H136       -1.0542  -14.3158  -52.8518 H         1 UNK         0.1150 
    137 H137       -0.1563  -18.3130  -54.1452 H         1 UNK         0.1150 
    138 H138        2.4574  -16.2970  -51.4243 H         1 UNK         0.1150 
    139 H139        3.1466  -18.3885  -52.3947 H         1 UNK         0.0800 
    140 H140        2.2852  -19.0404  -53.7635 H         1 UNK         0.0800 
    141 H141        1.5594  -18.1210  -50.1559 H         1 UNK         0.0800 
    142 H142        2.2393  -19.5642  -49.4757 H         1 UNK         0.0800 
    143 H143        0.0559  -20.4880  -49.0247 H         1 UNK         0.0600 
    144 H144        0.9539  -18.1460  -47.8008 H         1 UNK         0.3000 
    145 H145        0.4489  -17.7033  -45.6535 H         1 UNK         0.0600 
    146 H146       -1.0205  -16.0820  -46.9340 H         1 UNK         0.0600 
    147 H147       -1.1454  -15.8704  -45.1952 H         1 UNK         0.0600 
    148 H148       -2.4237  -16.7024  -46.0819 H         1 UNK         0.0600 
    149 H149       -2.0476  -18.2095  -44.2730 H         1 UNK         0.3000 
    150 H150       -2.2261  -19.5542  -42.5739 H         1 UNK         0.0600 
    151 H151       -1.1088  -22.2849  -43.4100 H         1 UNK         0.0600 
    152 H152       -2.5459  -21.5232  -44.0791 H         1 UNK         0.0600 
    153 H153       -2.5212  -22.0072  -42.3899 H         1 UNK         0.0600 
    154 H154       -0.2309  -21.2379  -41.3635 H         1 UNK         0.3000 
    155 H155        0.3651  -20.3393  -39.1113 H         1 UNK         0.0600 
    156 H156        2.0855  -20.9899  -40.8324 H         1 UNK         0.0600 
    157 H157        2.8292  -20.3790  -39.3642 H         1 UNK         0.0600 
    158 H158        2.7393  -19.3568  -40.7904 H         1 UNK         0.0600 
    159 H159        1.6374  -17.6546  -39.4078 H         1 UNK         0.3000 
    160 H160       -0.0582  -15.9763  -37.7136 H         1 UNK         0.0600 
    161 H161        1.1570  -17.2135  -35.1907 H         1 UNK         0.0600 
    162 H162       -0.5259  -16.7818  -35.4486 H         1 UNK         0.0600 
    163 H163        0.6917  -15.5209  -35.3617 H         1 UNK         0.0600 
    164 H164        1.9289  -15.2749  -38.2944 H         1 UNK         0.3000 
    165 H165        5.0088  -15.3360  -37.1528 H         1 UNK         0.0600 
    166 H166        5.7203  -17.5099  -38.0751 H         1 UNK         0.0600 
    167 H167        4.7683  -17.2581  -39.5302 H         1 UNK         0.0600 
    168 H168        6.1623  -16.2322  -39.1949 H         1 UNK         0.0600 
    169 H169        3.7732  -14.9859  -39.8207 H         1 UNK         0.3000 
    170 H170        2.4676  -11.8297  -39.1209 H         1 UNK         0.0600 
    171 H171        3.8594  -10.9978  -41.0376 H         1 UNK         0.0600 
    172 H172        5.0485  -12.2606  -40.7152 H         1 UNK         0.0600 
    173 H173        4.7504  -11.0056  -39.5233 H         1 UNK         0.0600 
    174 H174        2.9393  -13.3867  -41.5263 H         1 UNK         0.3000 
    175 H175        0.0515  -15.4350  -41.2024 H         1 UNK         0.0600 
    176 H176       -1.0154  -13.3057  -41.9441 H         1 UNK         0.0600 
    177 H177        0.3540  -12.9680  -42.9968 H         1 UNK         0.0600 
    178 H178       -0.6869  -14.3551  -43.3136 H         1 UNK         0.0600 
    179 H179        1.7849  -14.9538  -43.4091 H         1 UNK         0.3000 
    180 H180        4.5504  -16.8985  -42.4033 H         1 UNK         0.0600 
    181 H181        2.3737  -17.8049  -44.3623 H         1 UNK         0.0600 
    182 H182        2.9371  -18.7502  -42.9960 H         1 UNK         0.0600 
    183 H183        4.0363  -18.3823  -44.3135 H         1 UNK         0.0600 
    184 H184        3.8650  -15.9644  -44.9683 H         1 UNK         0.3000 
    185 H185        4.3013  -12.5321  -44.7012 H         1 UNK         0.0600 
    186 H186        6.2799  -12.7225  -46.1890 H         1 UNK         0.0600 
    187 H187        6.7303  -13.1065  -44.5360 H         1 UNK         0.0600 
    188 H188        6.5153  -14.4031  -45.7060 H         1 UNK         0.0600 
    189 H189        4.3986  -14.2241  -46.9775 H         1 UNK         0.3000 
    190 H190       -1.1843  -17.1799  -49.4636 H         1 UNK         0.3000 
    191 H191       -2.9281  -17.6646  -51.6335 H         1 UNK         0.0600 
    192 H192       -2.3109  -15.3932  -50.8748 H         1 UNK         0.0600 
    193 H193       -4.0521  -15.5685  -50.8226 H         1 UNK         0.0600 
    194 H194       -3.1204  -15.6472  -49.3308 H         1 UNK         0.0600 
    195 H195       -3.2184  -18.8018  -48.3672 H         1 UNK         0.3000 
    196 H196       -6.1219  -19.4428  -48.7196 H         1 UNK         0.0600 
    197 H197       -6.0677  -19.9248  -46.2891 H         1 UNK         0.0600 
    198 H198       -5.5720  -18.2678  -46.5987 H         1 UNK         0.0600 
    199 H199       -4.3656  -19.4897  -46.2053 H         1 UNK         0.0600 
    200 H200       -2.9041  -20.7951  -47.8340 H         1 UNK         0.3000 
    201 H201       -3.7298  -23.4705  -47.6107 H         1 UNK         0.0600 
    202 H202       -1.3084  -23.9755  -47.6060 H         1 UNK         0.0600 
    203 H203       -1.6341  -22.5497  -46.6306 H         1 UNK         0.0600 
    204 H204       -0.9417  -22.3792  -48.2418 H         1 UNK         0.0600 
    205 H205       -2.3400  -21.7692  -50.4966 H         1 UNK         0.3000 
    206 H206       -2.2789  -24.1868  -52.0893 H         1 UNK         0.0600 
    207 H207       -2.0924  -21.2869  -53.0384 H         1 UNK         0.0600 
    208 H208       -0.7295  -22.1995  -52.3924 H         1 UNK         0.0600 
    209 H209       -1.5169  -22.7343  -53.8638 H         1 UNK         0.0600 
    210 H210       -4.6668  -21.6536  -51.4846 H         1 UNK         0.3000 
    211 H211       -6.4624  -22.3151  -53.6316 H         1 UNK         0.0600 
    212 H212       -6.5848  -20.1478  -52.4097 H         1 UNK         0.0600 
    213 H213       -8.1102  -21.0080  -52.3150 H         1 UNK         0.0600 
    214 H214       -7.0311  -20.9826  -50.9274 H         1 UNK         0.0600 
    215 H215       -6.0786  -23.4641  -50.2689 H         1 UNK         0.3000 
    216 H216       -8.3327  -25.2641  -50.3412 H         1 UNK         0.0600 
    217 H217       -5.9226  -25.1137  -48.4544 H         1 UNK         0.0600 
    218 H218       -7.3691  -26.0801  -48.1894 H         1 UNK         0.0600 
    219 H219       -7.4799  -24.3263  -48.2215 H         1 UNK         0.0600 
    220 H220       -4.7613  -25.7687  -50.5725 H         1 UNK         0.3000 
    221 H221       -5.0546  -28.6153  -50.8171 H         1 UNK         0.0600 
    222 H222       -2.5938  -26.8262  -51.1449 H         1 UNK         0.0600 
    223 H223       -3.1571  -27.5464  -49.6383 H         1 UNK         0.0600 
    224 H224       -2.5790  -28.5736  -50.9414 H         1 UNK         0.0600 
    225 H225       -4.1843  -26.0494  -53.2009 H         1 UNK         0.3000 
    226 H226       -3.8559  -28.1435  -55.3152 H         1 UNK         0.0600 
    227 H227       -1.8128  -26.8553  -54.6735 H         1 UNK         0.0600 
    228 H228       -2.2969  -26.5250  -56.3281 H         1 UNK         0.0600 
    229 H229       -2.6318  -25.3459  -55.0693 H         1 UNK         0.0600 
    230 H230       -6.0233  -25.7610  -54.3327 H         1 UNK         0.3000 
    231 H231       -7.6980  -24.6029  -55.2152 H         1 UNK         0.0600 
    232 H232       -7.5034  -26.3338  -57.7291 H         1 UNK         0.0600 
    233 H233       -8.8761  -25.3668  -57.2138 H         1 UNK         0.0600 
    234 H234       -8.3951  -26.7668  -56.2704 H         1 UNK         0.0600 
    235 H235       -5.0448  -23.6275  -55.4037 H         1 UNK         0.3000 
    236 H236       -4.8506  -22.0847  -57.9156 H         1 UNK         0.0600 
    237 H237       -3.0119  -22.1029  -55.4736 H         1 UNK         0.0600 
    238 H238       -2.8484  -23.2353  -56.8137 H         1 UNK         0.0600 
    239 H239       -2.6251  -21.5187  -57.0882 H         1 UNK         0.0600 
    240 H240       -3.5966  -19.7923  -56.7004 H         1 UNK         0.3000 
    241 H241       -5.8695  -18.1771  -55.9802 H         1 UNK         0.0600 
    242 H242       -6.2067  -17.0005  -53.8976 H         1 UNK         0.3800 
    243 H243       -5.5994  -17.7541  -52.4356 H         1 UNK         0.3800 
    244 H244       -4.0280  -17.2200  -57.2962 H         1 UNK         0.0800 
    245 H245       -4.3050  -16.3184  -55.8442 H         1 UNK         0.0800 
    246 H246       -2.1776  -15.2556  -54.8412 H         1 UNK         0.0800 
    247 H247       -2.8590  -16.4214  -53.7330 H         1 UNK         0.0800 
@<TRIPOS>BOND
     1    1    2 1    
     2    1  127 1    
     3    1  128 1    
     4    1  129 1    
     5    2    3 2    
     6    2    4 am   BACKBONE|DICT|INTERRES
     7    4    5 1    
     8    4  130 1    
     9    5    6 1    
    10    5   65 1    
    11    5  131 1    
    12    6    7 1    
    13    6  132 1    
    14    6  133 1    
    15    7    8 1    
    16    8    9 1    
    17    8  134 1    
    18    8  135 1    
    19    9   10 ar   
    20    9   14 ar   
    21   10   11 ar   
    22   10  136 1    
    23   11   12 ar   
    24   11  126 1    
    25   12   13 ar   
    26   12  137 1    
    27   13   14 ar   
    28   13   15 1    
    29   14  138 1    
    30   15   16 1    
    31   15  139 1    
    32   15  140 1    
    33   16   17 1    
    34   17   18 1    
    35   17  141 1    
    36   17  142 1    
    37   18   19 1    
    38   18   67 1    
    39   18  143 1    
    40   19   20 am   BACKBONE|DICT|INTERRES
    41   19  144 1    
    42   20   21 2    
    43   20   22 1    
    44   22   23 1    
    45   22   24 1    
    46   22  145 1    
    47   23  146 1    
    48   23  147 1    
    49   23  148 1    
    50   24   25 am   BACKBONE|DICT|INTERRES
    51   24  149 1    
    52   25   26 2    
    53   25   27 1    
    54   27   28 1    
    55   27   29 1    
    56   27  150 1    
    57   28  151 1    
    58   28  152 1    
    59   28  153 1    
    60   29   30 am   BACKBONE|DICT|INTERRES
    61   29  154 1    
    62   30   31 2    
    63   30   32 1    
    64   32   33 1    
    65   32   34 1    
    66   32  155 1    
    67   33  156 1    
    68   33  157 1    
    69   33  158 1    
    70   34   35 am   BACKBONE|DICT|INTERRES
    71   34  159 1    
    72   35   36 2    
    73   35   37 1    
    74   37   38 1    
    75   37   39 1    
    76   37  160 1    
    77   38  161 1    
    78   38  162 1    
    79   38  163 1    
    80   39   40 am   BACKBONE|DICT|INTERRES
    81   39  164 1    
    82   40   41 2    
    83   40   42 1    
    84   42   43 1    
    85   42   44 1    
    86   42  165 1    
    87   43  166 1    
    88   43  167 1    
    89   43  168 1    
    90   44   45 am   BACKBONE|DICT|INTERRES
    91   44  169 1    
    92   45   46 2    
    93   45   47 1    
    94   47   48 1    
    95   47   49 1    
    96   47  170 1    
    97   48  171 1    
    98   48  172 1    
    99   48  173 1    
   100   49   50 am   BACKBONE|DICT|INTERRES
   101   49  174 1    
   102   50   51 2    
   103   50   52 1    
   104   52   53 1    
   105   52   54 1    
   106   52  175 1    
   107   53  176 1    
   108   53  177 1    
   109   53  178 1    
   110   54   55 am   BACKBONE|DICT|INTERRES
   111   54  179 1    
   112   55   56 2    
   113   55   57 1    
   114   57   58 1    
   115   57   59 1    
   116   57  180 1    
   117   58  181 1    
   118   58  182 1    
   119   58  183 1    
   120   59   60 am   BACKBONE|DICT|INTERRES
   121   59  184 1    
   122   60   61 2    
   123   60   62 1    
   124   62   63 1    
   125   62   64 1    
   126   62  185 1    
   127   63  186 1    
   128   63  187 1    
   129   63  188 1    
   130   64   65 am   BACKBONE|DICT|INTERRES
   131   64  189 1    
   132   65   66 2    
   133   67   68 2    
   134   67   69 am   BACKBONE|DICT|INTERRES
   135   69   70 1    
   136   69  190 1    
   137   70   71 1    
   138   70   72 1    
   139   70  191 1    
   140   71  192 1    
   141   71  193 1    
   142   71  194 1    
   143   72   73 2    
   144   72   74 am   BACKBONE|DICT|INTERRES
   145   74   75 1    
   146   74  195 1    
   147   75   76 1    
   148   75   77 1    
   149   75  196 1    
   150   76  197 1    
   151   76  198 1    
   152   76  199 1    
   153   77   78 2    
   154   77   79 am   BACKBONE|DICT|INTERRES
   155   79   80 1    
   156   79  200 1    
   157   80   81 1    
   158   80   82 1    
   159   80  201 1    
   160   81  202 1    
   161   81  203 1    
   162   81  204 1    
   163   82   83 2    
   164   82   84 am   BACKBONE|DICT|INTERRES
   165   84   85 1    
   166   84  205 1    
   167   85   86 1    
   168   85   87 1    
   169   85  206 1    
   170   86  207 1    
   171   86  208 1    
   172   86  209 1    
   173   87   88 2    
   174   87   89 am   BACKBONE|DICT|INTERRES
   175   89   90 1    
   176   89  210 1    
   177   90   91 1    
   178   90   92 1    
   179   90  211 1    
   180   91  212 1    
   181   91  213 1    
   182   91  214 1    
   183   92   93 2    
   184   92   94 am   BACKBONE|DICT|INTERRES
   185   94   95 1    
   186   94  215 1    
   187   95   96 1    
   188   95   97 1    
   189   95  216 1    
   190   96  217 1    
   191   96  218 1    
   192   96  219 1    
   193   97   98 2    
   194   97   99 am   BACKBONE|DICT|INTERRES
   195   99  100 1    
   196   99  220 1    
   197  100  101 1    
   198  100  102 1    
   199  100  221 1    
   200  101  222 1    
   201  101  223 1    
   202  101  224 1    
   203  102  103 2    
   204  102  104 am   BACKBONE|DICT|INTERRES
   205  104  105 1    
   206  104  225 1    
   207  105  106 1    
   208  105  107 1    
   209  105  226 1    
   210  106  227 1    
   211  106  228 1    
   212  106  229 1    
   213  107  108 2    
   214  107  109 am   BACKBONE|DICT|INTERRES
   215  109  110 1    
   216  109  230 1    
   217  110  111 1    
   218  110  112 1    
   219  110  231 1    
   220  111  232 1    
   221  111  233 1    
   222  111  234 1    
   223  112  113 2    
   224  112  114 am   BACKBONE|DICT|INTERRES
   225  114  115 1    
   226  114  235 1    
   227  115  116 1    
   228  115  117 1    
   229  115  236 1    
   230  116  237 1    
   231  116  238 1    
   232  116  239 1    
   233  117  118 2    
   234  117  119 am   BACKBONE|DICT|INTERRES
   235  119  120 1    
   236  119  240 1    
   237  120  121 1    
   238  120  124 1    
   239  120  241 1    
   240  121  122 am   BACKBONE|DICT|INTERRES
   241  121  123 2    
   242  122  242 1    
   243  122  243 1    
   244  124  125 1    
   245  124  244 1    
   246  124  245 1    
   247  125  126 1    
   248  126  246 1    
   249  126  247 1    
@<TRIPOS>SUBSTRUCTURE
     1 UNK         1 GROUP             0       ****    0 ROOT    
