@<TRIPOS>MOLECULE
3R540
247   249    1
SMALL
USER_CHARGES


@<TRIPOS>ATOM
      1 CA         -0.4805  -10.4076  -47.4316 C.3       0 UNK        -0.1800 
      2 C          -1.1996  -11.5074  -46.6523 C.2       0 UNK         0.5000 
      3 O          -1.8385  -11.2107  -45.6452 O.2       0 UNK        -0.5000 
      4 N          -1.1409  -12.7810  -47.0685 N.am      1 UNK        -0.5000 
      5 CA         -0.4174  -13.3164  -48.2326 C.3       1 UNK         0.1400 
      6 C6         -0.7862  -14.7937  -48.5019 C.3       23 UNK        -0.0398 
      7 S7         -2.5620  -15.1127  -48.7753 S.3       23 UNK        -0.2404 
      8 C8         -2.7467  -16.7821  -48.0562 C.3       23 UNK        -0.0205 
      9 C9         -2.0365  -17.8568  -48.8716 C.ar      23 UNK        -0.0193 
     10 C10        -2.7525  -18.6881  -49.7371 C.ar      23 UNK        -0.1150 
     11 C11        -2.1014  -19.6937  -50.4625 C.ar      23 UNK        -0.0193 
     12 C12        -0.7174  -19.8539  -50.3293 C.ar      23 UNK        -0.1150 
     13 C13         0.0082  -19.0297  -49.4645 C.ar      23 UNK        -0.0193 
     14 C14        -0.6618  -18.0515  -48.7305 C.ar      23 UNK        -0.1150 
     15 C15         1.5190  -19.1517  -49.3356 C.3       23 UNK        -0.0205 
     16 S16         2.0450  -19.4561  -47.6151 S.3       23 UNK        -0.2404 
     17 C17         2.3823  -21.2456  -47.6192 C.3       23 UNK        -0.0398 
     18 CA          1.3919  -22.1260  -46.8250 C.3       11 UNK         0.1400 
     19 N           1.3331  -21.8390  -45.3882 N.am      11 UNK        -0.5000 
     20 C           0.9532  -22.7640  -44.4926 C.2       10 UNK         0.5000 
     21 O           0.6299  -23.9129  -44.7996 O.2       10 UNK        -0.5000 
     22 CA          0.8823  -22.3402  -43.0167 C.3       10 UNK         0.1400 
     23 CB          2.2872  -22.2072  -42.4099 C.3       10 UNK        -0.1800 
     24 N           0.1247  -21.1066  -42.8173 N.am      10 UNK        -0.5000 
     25 C          -1.1755  -20.9623  -43.1123 C.2       9 UNK         0.5000 
     26 O          -1.8765  -21.8623  -43.5751 O.2       9 UNK        -0.5000 
     27 CA         -1.7952  -19.5739  -42.8767 C.3       9 UNK         0.1400 
     28 CB         -2.2069  -19.4089  -41.4064 C.3       9 UNK        -0.1800 
     29 N          -0.9097  -18.4770  -43.2665 N.am      9 UNK        -0.5000 
     30 C          -0.4724  -18.2609  -44.5153 C.2       8 UNK         0.5000 
     31 O          -0.7861  -18.9564  -45.4787 O.2       8 UNK        -0.5000 
     32 CA          0.5173  -17.0990  -44.7097 C.3       8 UNK         0.1400 
     33 CB         -0.2081  -15.7455  -44.6402 C.3       8 UNK        -0.1800 
     34 N           1.6029  -17.1240  -43.7302 N.am      8 UNK        -0.5000 
     35 C           2.4756  -18.1321  -43.5779 C.2       7 UNK         0.5000 
     36 O           2.4968  -19.1460  -44.2762 O.2       7 UNK        -0.5000 
     37 CA          3.4548  -18.0079  -42.3999 C.3       7 UNK         0.1400 
     38 CB          4.6199  -17.0677  -42.7467 C.3       7 UNK        -0.1800 
     39 N           2.7829  -17.5433  -41.1858 N.am      7 UNK        -0.5000 
     40 C           1.8808  -18.2621  -40.5008 C.2       6 UNK         0.5000 
     41 O           1.5469  -19.4078  -40.7999 O.2       6 UNK        -0.5000 
     42 CA          1.2086  -17.5665  -39.3038 C.3       6 UNK         0.1400 
     43 CB          2.0997  -17.6508  -38.0557 C.3       6 UNK        -0.1800 
     44 N           0.8885  -16.1657  -39.5790 N.am      6 UNK        -0.5000 
     45 C          -0.0121  -15.7581  -40.4847 C.2       5 UNK         0.5000 
     46 O          -0.6990  -16.5239  -41.1582 O.2       5 UNK        -0.5000 
     47 CA         -0.1303  -14.2401  -40.7076 C.3       5 UNK         0.1400 
     48 CB         -1.1479  -13.6286  -39.7333 C.3       5 UNK        -0.1800 
     49 N           1.1509  -13.5422  -40.5761 N.am      5 UNK        -0.5000 
     50 C           2.1985  -13.7236  -41.3896 C.2       4 UNK         0.5000 
     51 O           2.2076  -14.5167  -42.3360 O.2       4 UNK        -0.5000 
     52 CA          3.4610  -12.9199  -41.0619 C.3       4 UNK         0.1400 
     53 CB          4.4484  -13.7699  -40.2463 C.3       4 UNK        -0.1800 
     54 N           4.0856  -12.5191  -42.3154 N.am      4 UNK        -0.5000 
     55 C           4.5397  -11.2929  -42.5983 C.2       3 UNK         0.5000 
     56 O           4.5788  -10.3736  -41.7790 O.2       3 UNK        -0.5000 
     57 CA          5.0328  -11.0359  -44.0383 C.3       3 UNK         0.1400 
     58 CB          6.5689  -11.0080  -44.0809 C.3       3 UNK        -0.1800 
     59 N           4.5525  -12.0073  -45.0268 N.am      3 UNK        -0.5000 
     60 C           3.2782  -12.1518  -45.4130 C.2       2 UNK         0.5000 
     61 O           2.3452  -11.4806  -44.9642 O.2       2 UNK        -0.5000 
     62 CA          3.0156  -13.2382  -46.4679 C.3       2 UNK         0.1400 
     63 CB          3.3807  -14.6369  -45.9343 C.3       2 UNK        -0.1800 
     64 N           1.6036  -13.2348  -46.8385 N.am      2 UNK        -0.5000 
     65 C           1.1188  -13.2308  -48.0848 C.2       1 UNK         0.5000 
     66 O           1.8215  -13.1910  -49.0951 O.2       1 UNK        -0.5000 
     67 C          -0.0042  -22.2381  -47.4709 C.2       11 UNK         0.5000 
     68 O          -0.1591  -23.0420  -48.3897 O.2       11 UNK        -0.5000 
     69 N          -1.0091  -21.5155  -46.9491 N.am      12 UNK        -0.5000 
     70 CA         -2.4122  -21.6643  -47.3471 C.3       12 UNK         0.1400 
     71 CB         -3.2823  -20.5923  -46.6753 C.3       12 UNK        -0.1800 
     72 C          -2.9670  -23.0638  -47.0382 C.2       12 UNK         0.5000 
     73 O          -3.6434  -23.6465  -47.8872 O.2       12 UNK        -0.5000 
     74 N          -2.6430  -23.5853  -45.8464 N.am      13 UNK        -0.5000 
     75 CA         -2.9868  -24.9363  -45.4086 C.3       13 UNK         0.1400 
     76 CB         -2.7042  -25.0819  -43.9060 C.3       13 UNK        -0.1800 
     77 C          -2.2503  -26.0207  -46.2138 C.2       13 UNK         0.5000 
     78 O          -2.8721  -27.0159  -46.5848 O.2       13 UNK        -0.5000 
     79 N          -0.9586  -25.7990  -46.5014 N.am      14 UNK        -0.5000 
     80 CA         -0.1263  -26.6910  -47.3148 C.3       14 UNK         0.1400 
     81 CB          1.3411  -26.2448  -47.2397 C.3       14 UNK        -0.1800 
     82 C          -0.5943  -26.7737  -48.7804 C.2       14 UNK         0.5000 
     83 O          -0.6260  -27.8657  -49.3488 O.2       14 UNK        -0.5000 
     84 N          -0.9804  -25.6249  -49.3523 N.am      15 UNK        -0.5000 
     85 CA         -1.5735  -25.5099  -50.6867 C.3       15 UNK         0.1400 
     86 CB         -1.4866  -24.0437  -51.1351 C.3       15 UNK        -0.1800 
     87 C          -3.0361  -25.9951  -50.7472 C.2       15 UNK         0.5000 
     88 O          -3.5454  -26.2304  -51.8430 O.2       15 UNK        -0.5000 
     89 N          -3.6804  -26.1122  -49.5770 N.am      16 UNK        -0.5000 
     90 CA         -5.0784  -26.4813  -49.3450 C.3       16 UNK         0.1400 
     91 CB         -5.3303  -27.9485  -49.7502 C.3       16 UNK        -0.1800 
     92 C          -6.0662  -25.4872  -49.9903 C.2       16 UNK         0.5000 
     93 O          -7.0714  -25.9080  -50.5659 O.2       16 UNK        -0.5000 
     94 N          -5.7484  -24.1861  -49.8770 N.am      17 UNK        -0.5000 
     95 CA         -6.4734  -23.0403  -50.4425 C.3       17 UNK         0.1400 
     96 CB         -7.8062  -22.8260  -49.6963 C.3       17 UNK        -0.1800 
     97 C          -6.6466  -23.1618  -51.9728 C.2       17 UNK         0.5000 
     98 O          -7.7705  -23.2668  -52.4695 O.2       17 UNK        -0.5000 
     99 N          -5.5061  -23.2066  -52.6742 N.am      18 UNK        -0.5000 
    100 CA        -5.3817  -23.4245  -54.1167 C.3       18 UNK         0.1400 
    101 CB        -3.8892  -23.4135  -54.4849 C.3       18 UNK        -0.1800 
    102 C         -6.1625  -22.4260  -54.9978 C.2       18 UNK         0.5000 
    103 O         -6.3670  -21.2707  -54.6168 O.2       18 UNK        -0.5000 
    104 N         -6.5604  -22.9032  -56.1838 N.am      19 UNK        -0.5000 
    105 CA        -7.2740  -22.1463  -57.2130 C.3       19 UNK         0.1400 
    106 CB        -7.7458  -23.1303  -58.2966 C.3       19 UNK        -0.1800 
    107 C         -6.4240  -21.0211  -57.8371 C.2       19 UNK         0.5000 
    108 O         -5.2000  -21.0065  -57.6835 O.2       19 UNK        -0.5000 
    109 N         -7.1040  -20.1053  -58.5438 N.am      20 UNK        -0.5000 
    110 CA        -6.5478  -18.9383  -59.2438 C.3       20 UNK         0.1400 
    111 CB        -5.6805  -19.3809  -60.4413 C.3       20 UNK        -0.1800 
    112 C         -5.8147  -17.9718  -58.2901 C.2       20 UNK         0.5000 
    113 O         -4.7234  -17.4912  -58.6042 O.2       20 UNK        -0.5000 
    114 N         -6.4214  -17.7479  -57.1131 N.am      21 UNK        -0.5000 
    115 CA        -5.9245  -16.9288  -55.9989 C.3       21 UNK         0.1400 
    116 CB        -5.9684  -15.4323  -56.3727 C.3       21 UNK        -0.1800 
    117 C         -4.5389  -17.3768  -55.4814 C.2       21 UNK         0.5000 
    118 O         -3.7438  -16.5418  -55.0463 O.2       21 UNK        -0.5000 
    119 N         -4.2757  -18.6880  -55.5657 N.am      22 UNK        -0.5000 
    120 CA        -3.0016  -19.3513  -55.2450 C.3       22 UNK         0.1400 
    121 C         -1.8398  -19.0256  -56.2349 C.2       22 UNK         0.5000 
    122 N         -2.0936  -18.4327  -57.3968 N.am      22 UNK        -0.7600 
    123 O         -0.6852  -19.3442  -55.9638 O.2       22 UNK        -0.5000 
    124 C124       -2.5829  -19.1948  -53.7542 C.3       23 UNK        -0.0398 
    125 S125       -3.8815  -19.7650  -52.6033 S.3       23 UNK        -0.2404 
    126 C126       -2.9002  -20.6397  -51.3484 C.3       23 UNK        -0.0205 
    127 H127       -0.8837   -9.4306  -47.1646 H         1 UNK         0.0600 
    128 H128       -0.6009  -10.5254  -48.5077 H         1 UNK         0.0600 
    129 H129        0.5830  -10.4046  -47.1931 H         1 UNK         0.0600 
    130 H130       -1.6678  -13.4683  -46.5500 H         1 UNK         0.3000 
    131 H131       -0.7021  -12.7357  -49.1116 H         1 UNK         0.0600 
    132 H132       -0.2507  -15.1726  -49.3751 H         1 UNK         0.0800 
    133 H133       -0.4567  -15.3888  -47.6517 H         1 UNK         0.0800 
    134 H134       -3.8108  -17.0128  -47.9877 H         1 UNK         0.0800 
    135 H135       -2.3745  -16.7915  -47.0313 H         1 UNK         0.0800 
    136 H136       -3.8216  -18.5644  -49.8367 H         1 UNK         0.1150 
    137 H137       -0.2075  -20.6259  -50.8881 H         1 UNK         0.1150 
    138 H138       -0.0954  -17.4502  -48.0384 H         1 UNK         0.1150 
    139 H139        1.9112  -19.9162  -50.0069 H         1 UNK         0.0800 
    140 H140        1.9634  -18.2115  -49.6647 H         1 UNK         0.0800 
    141 H141        3.3799  -21.3774  -47.1984 H         1 UNK         0.0800 
    142 H142        2.4597  -21.6106  -48.6442 H         1 UNK         0.0800 
    143 H143        1.8149  -23.1287  -46.9080 H         1 UNK         0.0600 
    144 H144        1.5762  -20.9002  -45.0869 H         1 UNK         0.3000 
    145 H145        0.3615  -23.1329  -42.4754 H         1 UNK         0.0600 
    146 H146        2.2359  -22.0233  -41.3368 H         1 UNK         0.0600 
    147 H147        2.8629  -23.1222  -42.5542 H         1 UNK         0.0600 
    148 H148        2.8497  -21.3910  -42.8624 H         1 UNK         0.0600 
    149 H149        0.6244  -20.3282  -42.4012 H         1 UNK         0.3000 
    150 H150       -2.6956  -19.5050  -43.4900 H         1 UNK         0.0600 
    151 H151       -2.8732  -20.2137  -41.0935 H         1 UNK         0.0600 
    152 H152       -2.7363  -18.4690  -41.2491 H         1 UNK         0.0600 
    153 H153       -1.3413  -19.4203  -40.7431 H         1 UNK         0.0600 
    154 H154       -0.6388  -17.8309  -42.5297 H         1 UNK         0.3000 
    155 H155        0.9627  -17.1993  -45.7014 H         1 UNK         0.0600 
    156 H156       -0.6547  -15.5775  -43.6612 H         1 UNK         0.0600 
    157 H157       -1.0129  -15.6925  -45.3721 H         1 UNK         0.0600 
    158 H158        0.4721  -14.9188  -44.8371 H         1 UNK         0.0600 
    159 H159        1.6845  -16.3178  -43.1195 H         1 UNK         0.3000 
    160 H160        3.8674  -18.9994  -42.2011 H         1 UNK         0.0600 
    161 H161        4.2786  -16.0550  -42.9607 H         1 UNK         0.0600 
    162 H162        5.1546  -17.4231  -43.6284 H         1 UNK         0.0600 
    163 H163        5.3401  -17.0141  -41.9302 H         1 UNK         0.0600 
    164 H164        2.9615  -16.5921  -40.9024 H         1 UNK         0.3000 
    165 H165        0.2750  -18.0929  -39.0938 H         1 UNK         0.0600 
    166 H166        1.5984  -17.2290  -37.1844 H         1 UNK         0.0600 
    167 H167        2.3420  -18.6878  -37.8194 H         1 UNK         0.0600 
    168 H168        3.0408  -17.1168  -38.1934 H         1 UNK         0.0600 
    169 H169        1.4057  -15.4675  -39.0661 H         1 UNK         0.3000 
    170 H170       -0.4951  -14.0819  -41.7244 H         1 UNK         0.0600 
    171 H171       -2.1184  -14.1183  -39.8253 H         1 UNK         0.0600 
    172 H172       -0.8259  -13.7302  -38.6962 H         1 UNK         0.0600 
    173 H173       -1.3003  -12.5684  -39.9361 H         1 UNK         0.0600 
    174 H174        1.2250  -12.8782  -39.8187 H         1 UNK         0.3000 
    175 H175        3.1738  -12.0427  -40.4781 H         1 UNK         0.0600 
    176 H176        4.7626  -14.6601  -40.7922 H         1 UNK         0.0600 
    177 H177        5.3434  -13.1992  -39.9982 H         1 UNK         0.0600 
    178 H178        4.0018  -14.0984  -39.3069 H         1 UNK         0.0600 
    179 H179        4.0248  -13.2013  -43.0584 H         1 UNK         0.3000 
    180 H180        4.6658  -10.0504  -44.3327 H         1 UNK         0.0600 
    181 H181        6.9958  -11.9756  -43.8138 H         1 UNK         0.0600 
    182 H182        6.9670  -10.2701  -43.3830 H         1 UNK         0.0600 
    183 H183        6.9323  -10.7414  -45.0736 H         1 UNK         0.0600 
    184 H184        5.2573  -12.5984  -45.4436 H         1 UNK         0.3000 
    185 H185        3.6385  -13.0116  -47.3357 H         1 UNK         0.0600 
    186 H186        2.8743  -14.8537  -44.9941 H         1 UNK         0.0600 
    187 H187        3.1073  -15.4164  -46.6460 H         1 UNK         0.0600 
    188 H188        4.4523  -14.7284  -45.7556 H         1 UNK         0.0600 
    189 H189        0.9564  -13.1567  -46.0661 H         1 UNK         0.3000 
    190 H190       -0.8065  -20.8127  -46.2446 H         1 UNK         0.3000 
    191 H191       -2.4663  -21.5224  -48.4262 H         1 UNK         0.0600 
    192 H192       -3.2846  -20.6945  -45.5907 H         1 UNK         0.0600 
    193 H193       -4.3163  -20.6611  -47.0148 H         1 UNK         0.0600 
    194 H194       -2.9311  -19.5903  -46.9117 H         1 UNK         0.0600 
    195 H195       -2.1277  -23.0119  -45.1848 H         1 UNK         0.3000 
    196 H196       -4.0583  -25.0764  -45.5659 H         1 UNK         0.0600 
    197 H197       -2.9654  -26.0805  -43.5537 H         1 UNK         0.0600 
    198 H198       -3.2893  -24.3684  -43.3255 H         1 UNK         0.0600 
    199 H199       -1.6519  -24.9155  -43.6744 H         1 UNK         0.0600 
    200 H200       -0.5051  -24.9812  -46.1068 H         1 UNK         0.3000 
    201 H201       -0.1971  -27.6922  -46.8847 H         1 UNK         0.0600 
    202 H202        1.6851  -26.1806  -46.2072 H         1 UNK         0.0600 
    203 H203        1.4887  -25.2717  -47.7067 H         1 UNK         0.0600 
    204 H204        1.9888  -26.9545  -47.7557 H         1 UNK         0.0600 
    205 H205       -0.8517  -24.7538  -48.8428 H         1 UNK         0.3000 
    206 H206       -0.9919  -26.1188  -51.3817 H         1 UNK         0.0600 
    207 H207       -0.4538  -23.6953  -51.1497 H         1 UNK         0.0600 
    208 H208       -1.8862  -23.9135  -52.1406 H         1 UNK         0.0600 
    209 H209       -2.0490  -23.3923  -50.4652 H         1 UNK         0.0600 
    210 H210       -3.1662  -25.8549  -48.7454 H         1 UNK         0.3000 
    211 H211       -5.2352  -26.4068  -48.2680 H         1 UNK         0.0600 
    212 H212       -5.2428  -28.0935  -50.8273 H         1 UNK         0.0600 
    213 H213       -6.3307  -28.2685  -49.4571 H         1 UNK         0.0600 
    214 H214       -4.6208  -28.6172  -49.2624 H         1 UNK         0.0600 
    215 H215       -4.9172  -23.9614  -49.3358 H         1 UNK         0.3000 
    216 H216       -5.8556  -22.1588  -50.2648 H         1 UNK         0.0600 
    217 H217       -8.3174  -21.9348  -50.0620 H         1 UNK         0.0600 
    218 H218       -7.6403  -22.6899  -48.6276 H         1 UNK         0.0600 
    219 H219       -8.4860  -23.6688  -49.8246 H         1 UNK         0.0600 
    220 H220       -4.6380  -23.1277  -52.1693 H         1 UNK         0.3000 
    221 H221       -5.7753  -24.4229  -54.3177 H         1 UNK         0.0600 
    222 H222       -3.4046  -22.4887  -54.1718 H         1 UNK         0.0600 
    223 H223       -3.3648  -24.2452  -54.0146 H         1 UNK         0.0600 
    224 H224       -3.7442  -23.5115  -55.5617 H         1 UNK         0.0600 
    225 H225       -6.3124  -23.8501  -56.4298 H         1 UNK         0.3000 
    226 H226       -8.1499  -21.6905  -56.7467 H         1 UNK         0.0600 
    227 H227       -8.3796  -23.9099  -57.8734 H         1 UNK         0.0600 
    228 H228       -8.3311  -22.6243  -59.0654 H         1 UNK         0.0600 
    229 H229       -6.9037  -23.6146  -58.7929 H         1 UNK         0.0600 
    230 H230       -8.1075  -20.2071  -58.6116 H         1 UNK         0.3000 
    231 H231       -7.3973  -18.3826  -59.6432 H         1 UNK         0.0600 
    232 H232       -6.2325  -20.0495  -61.1018 H         1 UNK         0.0600 
    233 H233       -4.7764  -19.8987  -60.1196 H         1 UNK         0.0600 
    234 H234       -5.3696  -18.5217  -61.0366 H         1 UNK         0.0600 
    235 H235       -7.3007  -18.2170  -56.9465 H         1 UNK         0.3000 
    236 H236       -6.6178  -17.0831  -55.1710 H         1 UNK         0.0600 
    237 H237       -5.7311  -14.8057  -55.5121 H         1 UNK         0.0600 
    238 H238       -5.2533  -15.1915  -57.1600 H         1 UNK         0.0600 
    239 H239       -6.9598  -15.1413  -56.7195 H         1 UNK         0.0600 
    240 H240       -4.9854  -19.2968  -55.9503 H         1 UNK         0.3000 
    241 H241       -3.1965  -20.4110  -55.4102 H         1 UNK         0.0600 
    242 H242       -1.3326  -18.2409  -58.0283 H         1 UNK         0.3800 
    243 H243       -3.0368  -18.1649  -57.6565 H         1 UNK         0.3800 
    244 H244       -1.6724  -19.7635  -53.5602 H         1 UNK         0.0800 
    245 H245       -2.3414  -18.1575  -53.5203 H         1 UNK         0.0800 
    246 H246       -3.5740  -21.2191  -50.7171 H         1 UNK         0.0800 
    247 H247       -2.2475  -21.3572  -51.8461 H         1 UNK         0.0800 
@<TRIPOS>BOND
     1    1    2 1    
     2    1  127 1    
     3    1  128 1    
     4    1  129 1    
     5    2    3 2    
     6    2    4 am   BACKBONE|DICT|INTERRES
     7    4    5 1    
     8    4  130 1    
     9    5    6 1    
    10    5   65 1    
    11    5  131 1    
    12    6    7 1    
    13    6  132 1    
    14    6  133 1    
    15    7    8 1    
    16    8    9 1    
    17    8  134 1    
    18    8  135 1    
    19    9   10 ar   
    20    9   14 ar   
    21   10   11 ar   
    22   10  136 1    
    23   11   12 ar   
    24   11  126 1    
    25   12   13 ar   
    26   12  137 1    
    27   13   14 ar   
    28   13   15 1    
    29   14  138 1    
    30   15   16 1    
    31   15  139 1    
    32   15  140 1    
    33   16   17 1    
    34   17   18 1    
    35   17  141 1    
    36   17  142 1    
    37   18   19 1    
    38   18   67 1    
    39   18  143 1    
    40   19   20 am   BACKBONE|DICT|INTERRES
    41   19  144 1    
    42   20   21 2    
    43   20   22 1    
    44   22   23 1    
    45   22   24 1    
    46   22  145 1    
    47   23  146 1    
    48   23  147 1    
    49   23  148 1    
    50   24   25 am   BACKBONE|DICT|INTERRES
    51   24  149 1    
    52   25   26 2    
    53   25   27 1    
    54   27   28 1    
    55   27   29 1    
    56   27  150 1    
    57   28  151 1    
    58   28  152 1    
    59   28  153 1    
    60   29   30 am   BACKBONE|DICT|INTERRES
    61   29  154 1    
    62   30   31 2    
    63   30   32 1    
    64   32   33 1    
    65   32   34 1    
    66   32  155 1    
    67   33  156 1    
    68   33  157 1    
    69   33  158 1    
    70   34   35 am   BACKBONE|DICT|INTERRES
    71   34  159 1    
    72   35   36 2    
    73   35   37 1    
    74   37   38 1    
    75   37   39 1    
    76   37  160 1    
    77   38  161 1    
    78   38  162 1    
    79   38  163 1    
    80   39   40 am   BACKBONE|DICT|INTERRES
    81   39  164 1    
    82   40   41 2    
    83   40   42 1    
    84   42   43 1    
    85   42   44 1    
    86   42  165 1    
    87   43  166 1    
    88   43  167 1    
    89   43  168 1    
    90   44   45 am   BACKBONE|DICT|INTERRES
    91   44  169 1    
    92   45   46 2    
    93   45   47 1    
    94   47   48 1    
    95   47   49 1    
    96   47  170 1    
    97   48  171 1    
    98   48  172 1    
    99   48  173 1    
   100   49   50 am   BACKBONE|DICT|INTERRES
   101   49  174 1    
   102   50   51 2    
   103   50   52 1    
   104   52   53 1    
   105   52   54 1    
   106   52  175 1    
   107   53  176 1    
   108   53  177 1    
   109   53  178 1    
   110   54   55 am   BACKBONE|DICT|INTERRES
   111   54  179 1    
   112   55   56 2    
   113   55   57 1    
   114   57   58 1    
   115   57   59 1    
   116   57  180 1    
   117   58  181 1    
   118   58  182 1    
   119   58  183 1    
   120   59   60 am   BACKBONE|DICT|INTERRES
   121   59  184 1    
   122   60   61 2    
   123   60   62 1    
   124   62   63 1    
   125   62   64 1    
   126   62  185 1    
   127   63  186 1    
   128   63  187 1    
   129   63  188 1    
   130   64   65 am   BACKBONE|DICT|INTERRES
   131   64  189 1    
   132   65   66 2    
   133   67   68 2    
   134   67   69 am   BACKBONE|DICT|INTERRES
   135   69   70 1    
   136   69  190 1    
   137   70   71 1    
   138   70   72 1    
   139   70  191 1    
   140   71  192 1    
   141   71  193 1    
   142   71  194 1    
   143   72   73 2    
   144   72   74 am   BACKBONE|DICT|INTERRES
   145   74   75 1    
   146   74  195 1    
   147   75   76 1    
   148   75   77 1    
   149   75  196 1    
   150   76  197 1    
   151   76  198 1    
   152   76  199 1    
   153   77   78 2    
   154   77   79 am   BACKBONE|DICT|INTERRES
   155   79   80 1    
   156   79  200 1    
   157   80   81 1    
   158   80   82 1    
   159   80  201 1    
   160   81  202 1    
   161   81  203 1    
   162   81  204 1    
   163   82   83 2    
   164   82   84 am   BACKBONE|DICT|INTERRES
   165   84   85 1    
   166   84  205 1    
   167   85   86 1    
   168   85   87 1    
   169   85  206 1    
   170   86  207 1    
   171   86  208 1    
   172   86  209 1    
   173   87   88 2    
   174   87   89 am   BACKBONE|DICT|INTERRES
   175   89   90 1    
   176   89  210 1    
   177   90   91 1    
   178   90   92 1    
   179   90  211 1    
   180   91  212 1    
   181   91  213 1    
   182   91  214 1    
   183   92   93 2    
   184   92   94 am   BACKBONE|DICT|INTERRES
   185   94   95 1    
   186   94  215 1    
   187   95   96 1    
   188   95   97 1    
   189   95  216 1    
   190   96  217 1    
   191   96  218 1    
   192   96  219 1    
   193   97   98 2    
   194   97   99 am   BACKBONE|DICT|INTERRES
   195   99  100 1    
   196   99  220 1    
   197  100  101 1    
   198  100  102 1    
   199  100  221 1    
   200  101  222 1    
   201  101  223 1    
   202  101  224 1    
   203  102  103 2    
   204  102  104 am   BACKBONE|DICT|INTERRES
   205  104  105 1    
   206  104  225 1    
   207  105  106 1    
   208  105  107 1    
   209  105  226 1    
   210  106  227 1    
   211  106  228 1    
   212  106  229 1    
   213  107  108 2    
   214  107  109 am   BACKBONE|DICT|INTERRES
   215  109  110 1    
   216  109  230 1    
   217  110  111 1    
   218  110  112 1    
   219  110  231 1    
   220  111  232 1    
   221  111  233 1    
   222  111  234 1    
   223  112  113 2    
   224  112  114 am   BACKBONE|DICT|INTERRES
   225  114  115 1    
   226  114  235 1    
   227  115  116 1    
   228  115  117 1    
   229  115  236 1    
   230  116  237 1    
   231  116  238 1    
   232  116  239 1    
   233  117  118 2    
   234  117  119 am   BACKBONE|DICT|INTERRES
   235  119  120 1    
   236  119  240 1    
   237  120  121 1    
   238  120  124 1    
   239  120  241 1    
   240  121  122 am   BACKBONE|DICT|INTERRES
   241  121  123 2    
   242  122  242 1    
   243  122  243 1    
   244  124  125 1    
   245  124  244 1    
   246  124  245 1    
   247  125  126 1    
   248  126  246 1    
   249  126  247 1    
@<TRIPOS>SUBSTRUCTURE
     1 UNK         1 GROUP             0       ****    0 ROOT    
