@<TRIPOS>MOLECULE
3R540
247   249    1
SMALL
USER_CHARGES


@<TRIPOS>ATOM
      1 CA          0.7568  -13.7917  -51.1256 C.3       0 UNK        -0.1800 
      2 C           2.0770  -13.2865  -50.5648 C.2       0 UNK         0.5000 
      3 O           2.1411  -12.1600  -50.0731 O.2       0 UNK        -0.5000 
      4 N           3.1292  -14.1125  -50.6352 N.am      1 UNK        -0.5000 
      5 CA          4.4778  -13.7960  -50.1418 C.3       1 UNK         0.1400 
      6 C6          5.5522  -14.7844  -50.6624 C.3       23 UNK        -0.0398 
      7 S7          5.5368  -15.0086  -52.4745 S.3       23 UNK        -0.2404 
      8 C8          5.1226  -16.7774  -52.6226 C.3       23 UNK        -0.0205 
      9 C9          3.6471  -17.0466  -52.3643 C.ar      23 UNK        -0.0193 
     10 C10         2.7250  -16.9227  -53.4068 C.ar      23 UNK        -0.1150 
     11 C11         1.3700  -17.1904  -53.1943 C.ar      23 UNK        -0.0193 
     12 C12         0.9361  -17.5746  -51.9216 C.ar      23 UNK        -0.1150 
     13 C13         1.8461  -17.6856  -50.8658 C.ar      23 UNK        -0.0193 
     14 C14         3.2019  -17.4325  -51.0957 C.ar      23 UNK        -0.1150 
     15 C15         1.3631  -18.0557  -49.4726 C.3       23 UNK        -0.0205 
     16 S16         1.4117  -19.8519  -49.1993 S.3       23 UNK        -0.2404 
     17 C17         0.8869  -19.9104  -47.4546 C.3       23 UNK        -0.0398 
     18 CA          0.4249  -21.3132  -46.9903 C.3       11 UNK         0.1400 
     19 N           0.4157  -21.4157  -45.5290 N.am      11 UNK        -0.5000 
     20 C           0.1981  -22.5363  -44.8272 C.2       10 UNK         0.5000 
     21 O           0.0319  -23.6431  -45.3386 O.2       10 UNK        -0.5000 
     22 CA          0.0976  -22.3855  -43.2974 C.3       10 UNK         0.1400 
     23 CB          1.4914  -22.3228  -42.6556 C.3       10 UNK        -0.1800 
     24 N          -0.6860  -21.2139  -42.8993 N.am      10 UNK        -0.5000 
     25 C          -1.9928  -21.0595  -43.1590 C.2       9 UNK         0.5000 
     26 O          -2.6828  -21.9138  -43.7148 O.2       9 UNK        -0.5000 
     27 CA         -2.6264  -19.7079  -42.7832 C.3       9 UNK         0.1400 
     28 CB         -2.9557  -19.6542  -41.2841 C.3       9 UNK        -0.1800 
     29 N          -1.7808  -18.5706  -43.1467 N.am      9 UNK        -0.5000 
     30 C          -1.4333  -18.2528  -44.4020 C.2       8 UNK         0.5000 
     31 O          -1.8382  -18.8534  -45.3963 O.2       8 UNK        -0.5000 
     32 CA         -0.4118  -17.1165  -44.5773 C.3       8 UNK         0.1400 
     33 CB         -1.0892  -15.7410  -44.5095 C.3       8 UNK        -0.1800 
     34 N           0.6716  -17.1848  -43.5977 N.am      8 UNK        -0.5000 
     35 C           1.5579  -18.1871  -43.5161 C.2       7 UNK         0.5000 
     36 O           1.5758  -19.1450  -44.2862 O.2       7 UNK        -0.5000 
     37 CA          2.5645  -18.1338  -42.3561 C.3       7 UNK         0.1400 
     38 CB          3.7539  -17.2223  -42.6934 C.3       7 UNK        -0.1800 
     39 N           1.9339  -17.6904  -41.1145 N.am      7 UNK        -0.5000 
     40 C           1.0376  -18.4128  -40.4277 C.2       6 UNK         0.5000 
     41 O           0.6856  -19.5495  -40.7449 O.2       6 UNK        -0.5000 
     42 CA          0.3969  -17.7262  -39.2082 C.3       6 UNK         0.1400 
     43 CB          1.3085  -17.8427  -37.9776 C.3       6 UNK        -0.1800 
     44 N           0.0934  -16.3153  -39.4581 N.am      6 UNK        -0.5000 
     45 C          -0.8329  -15.8870  -40.3274 C.2       5 UNK         0.5000 
     46 O          -1.5451  -16.6389  -40.9913 O.2       5 UNK        -0.5000 
     47 CA         -0.9549  -14.3642  -40.5178 C.3       5 UNK         0.1400 
     48 CB         -1.8816  -13.7596  -39.4526 C.3       5 UNK        -0.1800 
     49 N           0.3337  -13.6657  -40.4963 N.am      5 UNK        -0.5000 
     50 C           1.3167  -13.8563  -41.3855 C.2       4 UNK         0.5000 
     51 O           1.2734  -14.6968  -42.2862 O.2       4 UNK        -0.5000 
     52 CA          2.5803  -13.0003  -41.2097 C.3       4 UNK         0.1400 
     53 CB          3.6670  -13.7936  -40.4675 C.3       4 UNK        -0.1800 
     54 N           3.0991  -12.5723  -42.5077 N.am      4 UNK        -0.5000 
     55 C           2.6118  -11.5447  -43.2166 C.2       3 UNK         0.5000 
     56 O           1.7016  -10.8140  -42.8228 O.2       3 UNK        -0.5000 
     57 CA          3.2552  -11.2780  -44.5909 C.3       3 UNK         0.1400 
     58 CB          4.4440  -10.3146  -44.4501 C.3       3 UNK        -0.1800 
     59 N           3.7080  -12.5033  -45.2521 N.am      3 UNK        -0.5000 
     60 C           2.8958  -13.3575  -45.8862 C.2       2 UNK         0.5000 
     61 O           1.6831  -13.1832  -46.0194 O.2       2 UNK        -0.5000 
     62 CA          3.5552  -14.6105  -46.4880 C.3       2 UNK         0.1400 
     63 CB          2.7583  -15.8774  -46.1489 C.3       2 UNK        -0.1800 
     64 N           3.6601  -14.5024  -47.9379 N.am      2 UNK        -0.5000 
     65 C           4.5421  -13.7420  -48.5994 C.2       1 UNK         0.5000 
     66 O           5.3951  -13.0460  -48.0469 O.2       1 UNK        -0.5000 
     67 C          -0.9391  -21.7086  -47.5952 C.2       11 UNK         0.5000 
     68 O          -0.9783  -22.5164  -48.5224 O.2       11 UNK        -0.5000 
     69 N          -2.0341  -21.1832  -47.0253 N.am      12 UNK        -0.5000 
     70 CA         -3.4068  -21.5204  -47.4015 C.3       12 UNK         0.1400 
     71 CB         -4.3956  -20.6164  -46.6518 C.3       12 UNK        -0.1800 
     72 C          -3.7401  -23.0038  -47.1708 C.2       12 UNK         0.5000 
     73 O          -4.3440  -23.6230  -48.0461 O.2       12 UNK        -0.5000 
     74 N          -3.3158  -23.5573  -46.0261 N.am      13 UNK        -0.5000 
     75 CA         -3.4650  -24.9727  -45.6836 C.3       13 UNK         0.1400 
     76 CB         -3.0357  -25.2066  -44.2278 C.3       13 UNK        -0.1800 
     77 C          -2.6958  -25.8991  -46.6429 C.2       13 UNK         0.5000 
     78 O          -3.2630  -26.8861  -47.1130 O.2       13 UNK        -0.5000 
     79 N          -1.4443  -25.5374  -46.9630 N.am      14 UNK        -0.5000 
     80 CA         -0.6013  -26.2228  -47.9481 C.3       14 UNK         0.1400 
     81 CB          0.8144  -25.6280  -47.9138 C.3       14 UNK        -0.1800 
     82 C          -1.1817  -26.1701  -49.3754 C.2       14 UNK         0.5000 
     83 O          -1.0502  -27.1381  -50.1245 O.2       14 UNK        -0.5000 
     84 N          -1.8612  -25.0638  -49.7010 N.am      15 UNK        -0.5000 
     85 CA         -2.6170  -24.8468  -50.9340 C.3       15 UNK         0.1400 
     86 CB         -2.6446  -23.3377  -51.2340 C.3       15 UNK        -0.1800 
     87 C          -4.0402  -25.4496  -50.8998 C.2       15 UNK         0.5000 
     88 O          -4.8612  -25.0771  -51.7363 O.2       15 UNK        -0.5000 
     89 N          -4.3228  -26.3559  -49.9504 N.am      16 UNK        -0.5000 
     90 CA         -5.5710  -27.1105  -49.7876 C.3       16 UNK         0.1400 
     91 CB         -5.7677  -28.0925  -50.9620 C.3       16 UNK        -0.1800 
     92 C          -6.7923  -26.1997  -49.5488 C.2       16 UNK         0.5000 
     93 O          -7.8034  -26.3169  -50.2429 O.2       16 UNK        -0.5000 
     94 N          -6.6496  -25.2961  -48.5699 N.am      17 UNK        -0.5000 
     95 CA         -7.5821  -24.2270  -48.1990 C.3       17 UNK         0.1400 
     96 CB         -8.9561  -24.7817  -47.7658 C.3       17 UNK        -0.1800 
     97 C          -7.6624  -23.1422  -49.2914 C.2       17 UNK         0.5000 
     98 O          -8.7534  -22.6967  -49.6517 O.2       17 UNK        -0.5000 
     99 N          -6.4799  -22.7389  -49.7801 N.am      18 UNK        -0.5000 
    100 CA        -6.2324  -21.6954  -50.7797 C.3       18 UNK         0.1400 
    101 CB        -6.5775  -20.3086  -50.1975 C.3       18 UNK        -0.1800 
    102 C         -6.9073  -21.9679  -52.1420 C.2       18 UNK         0.5000 
    103 O         -7.4111  -21.0406  -52.7801 O.2       18 UNK        -0.5000 
    104 N         -6.8996  -23.2361  -52.5733 N.am      19 UNK        -0.5000 
    105 CA        -7.4552  -23.6892  -53.8453 C.3       19 UNK         0.1400 
    106 CB        -7.5556  -25.2234  -53.8411 C.3       19 UNK        -0.1800 
    107 C         -6.5985  -23.1788  -55.0171 C.2       19 UNK         0.5000 
    108 O         -5.4645  -23.6310  -55.1872 O.2       19 UNK        -0.5000 
    109 N         -7.1523  -22.2209  -55.7742 N.am      20 UNK        -0.5000 
    110 CA        -6.5271  -21.5089  -56.8962 C.3       20 UNK         0.1400 
    111 CB        -6.2704  -22.4654  -58.0803 C.3       20 UNK        -0.1800 
    112 C         -5.2744  -20.6988  -56.4897 C.2       20 UNK         0.5000 
    113 O         -4.3492  -20.5491  -57.2909 O.2       20 UNK        -0.5000 
    114 N         -5.2671  -20.1846  -55.2514 N.am      21 UNK        -0.5000 
    115 CA        -4.2180  -19.3148  -54.7182 C.3       21 UNK         0.1400 
    116 CB        -4.3772  -19.2214  -53.1937 C.3       21 UNK        -0.1800 
    117 C         -4.2446  -17.9110  -55.3552 C.2       21 UNK         0.5000 
    118 O         -5.2717  -17.4900  -55.8955 O.2       21 UNK        -0.5000 
    119 N         -3.1082  -17.2122  -55.2669 N.am      22 UNK        -0.5000 
    120 CA        -2.9235  -15.8362  -55.7489 C.3       22 UNK         0.1400 
    121 C         -3.7448  -14.7717  -54.9612 C.2       22 UNK         0.5000 
    122 N         -4.0069  -13.6184  -55.5623 N.am      22 UNK        -0.7600 
    123 O         -4.1271  -14.9658  -53.8089 O.2       22 UNK        -0.5000 
    124 C124       -1.4179  -15.4721  -55.8465 C.3       23 UNK        -0.0398 
    125 S125       -0.5168  -15.4804  -54.2545 S.3       23 UNK        -0.2404 
    126 C126        0.3787  -17.0615  -54.3397 C.3       23 UNK        -0.0205 
    127 H127        0.0016  -13.8257  -50.3405 H         1 UNK         0.0600 
    128 H128        0.8550  -14.7912  -51.5454 H         1 UNK         0.0600 
    129 H129        0.4030  -13.1280  -51.9146 H         1 UNK         0.0600 
    130 H130        3.0296  -15.0094  -51.0918 H         1 UNK         0.3000 
    131 H131        4.7357  -12.8006  -50.5101 H         1 UNK         0.0600 
    132 H132        6.5463  -14.4246  -50.3910 H         1 UNK         0.0800 
    133 H133        5.4514  -15.7554  -50.1761 H         1 UNK         0.0800 
    134 H134        5.7460  -17.3651  -51.9468 H         1 UNK         0.0800 
    135 H135        5.3798  -17.1105  -53.6293 H         1 UNK         0.0800 
    136 H136        3.0654  -16.6206  -54.3875 H         1 UNK         0.1150 
    137 H137       -0.1129  -17.7727  -51.7507 H         1 UNK         0.1150 
    138 H138        3.9081  -17.5376  -50.2842 H         1 UNK         0.1150 
    139 H139        0.3451  -17.6924  -49.3220 H         1 UNK         0.0800 
    140 H140        1.9813  -17.5603  -48.7226 H         1 UNK         0.0800 
    141 H141        0.1083  -19.1669  -47.2781 H         1 UNK         0.0800 
    142 H142        1.7469  -19.5915  -46.8647 H         1 UNK         0.0800 
    143 H143        1.1586  -22.0413  -47.3428 H         1 UNK         0.0600 
    144 H144        0.6069  -20.5575  -45.0177 H         1 UNK         0.3000 
    145 H145       -0.4105  -23.2713  -42.9108 H         1 UNK         0.0600 
    146 H146        1.4224  -22.2795  -41.5685 H         1 UNK         0.0600 
    147 H147        2.0774  -23.2067  -42.9102 H         1 UNK         0.0600 
    148 H148        2.0527  -21.4502  -42.9888 H         1 UNK         0.0600 
    149 H149       -0.1935  -20.4805  -42.4011 H         1 UNK         0.3000 
    150 H150       -3.5623  -19.6157  -43.3380 H         1 UNK         0.0600 
    151 H151       -3.5972  -20.4876  -40.9949 H         1 UNK         0.0600 
    152 H152       -3.4830  -18.7345  -41.0302 H         1 UNK         0.0600 
    153 H153       -2.0560  -19.7030  -40.6705 H         1 UNK         0.0600 
    154 H154       -1.4517  -17.9855  -42.3841 H         1 UNK         0.3000 
    155 H155        0.0306  -17.2247  -45.5691 H         1 UNK         0.0600 
    156 H156       -1.5512  -15.5665  -43.5381 H         1 UNK         0.0600 
    157 H157       -1.8700  -15.6533  -45.2658 H         1 UNK         0.0600 
    158 H158       -0.3709  -14.9400  -44.6877 H         1 UNK         0.0600 
    159 H159        0.7646  -16.3947  -42.9647 H         1 UNK         0.3000 
    160 H160        2.9480  -19.1446  -42.2018 H         1 UNK         0.0600 
    161 H161        3.4443  -16.1884  -42.8429 H         1 UNK         0.0600 
    162 H162        4.2486  -17.5514  -43.6081 H         1 UNK         0.0600 
    163 H163        4.4991  -17.2372  -41.8980 H         1 UNK         0.0600 
    164 H164        2.1292  -16.7475  -40.8145 H         1 UNK         0.3000 
    165 H165       -0.5401  -18.2430  -38.9895 H         1 UNK         0.0600 
    166 H166        0.8291  -17.4261  -37.0915 H         1 UNK         0.0600 
    167 H167        1.5386  -18.8867  -37.7607 H         1 UNK         0.0600 
    168 H168        2.2552  -17.3212  -38.1241 H         1 UNK         0.0600 
    169 H169        0.6349  -15.6306  -38.9516 H         1 UNK         0.3000 
    170 H170       -1.4074  -14.1915  -41.4963 H         1 UNK         0.0600 
    171 H171       -2.8563  -14.2494  -39.4600 H         1 UNK         0.0600 
    172 H172       -1.4678  -13.8668  -38.4491 H         1 UNK         0.0600 
    173 H173       -2.0521  -12.6983  -39.6345 H         1 UNK         0.0600 
    174 H174        0.4520  -12.9659  -39.7778 H         1 UNK         0.3000 
    175 H175        2.3343  -12.1172  -40.6158 H         1 UNK         0.0600 
    176 H176        3.9729  -14.6811  -41.0212 H         1 UNK         0.0600 
    177 H177        4.5543  -13.1824  -40.3015 H         1 UNK         0.0600 
    178 H178        3.3133  -14.1222  -39.4894 H         1 UNK         0.0600 
    179 H179        3.8138  -13.1497  -42.9232 H         1 UNK         0.3000 
    180 H180        2.5046  -10.7958  -45.2212 H         1 UNK         0.0600 
    181 H181        5.2390  -10.7405  -43.8367 H         1 UNK         0.0600 
    182 H182        4.1346   -9.3787  -43.9830 H         1 UNK         0.0600 
    183 H183        4.8671  -10.0663  -45.4238 H         1 UNK         0.0600 
    184 H184        4.7008  -12.6891  -45.2351 H         1 UNK         0.3000 
    185 H185        4.5568  -14.7226  -46.0670 H         1 UNK         0.0600 
    186 H186        2.6056  -15.9456  -45.0741 H         1 UNK         0.0600 
    187 H187        1.7747  -15.8763  -46.6197 H         1 UNK         0.0600 
    188 H188        3.2842  -16.7786  -46.4646 H         1 UNK         0.0600 
    189 H189        2.9643  -14.9944  -48.4772 H         1 UNK         0.3000 
    190 H190       -1.9236  -20.4896  -46.2891 H         1 UNK         0.3000 
    191 H191       -3.5145  -21.3208  -48.4694 H         1 UNK         0.0600 
    192 H192       -4.3056  -20.7282  -45.5713 H         1 UNK         0.0600 
    193 H193       -5.4254  -20.8537  -46.9217 H         1 UNK         0.0600 
    194 H194       -4.2288  -19.5666  -46.8933 H         1 UNK         0.0600 
    195 H195       -2.8732  -22.9644  -45.3292 H         1 UNK         0.3000 
    196 H196       -4.5252  -25.2212  -45.7645 H         1 UNK         0.0600 
    197 H197       -3.1626  -26.2526  -43.9463 H         1 UNK         0.0600 
    198 H198       -3.6352  -24.6096  -43.5404 H         1 UNK         0.0600 
    199 H199       -1.9891  -24.9480  -44.0680 H         1 UNK         0.0600 
    200 H200       -1.0344  -24.7299  -46.4999 H         1 UNK         0.3000 
    201 H201       -0.5368  -27.2730  -47.6567 H         1 UNK         0.0600 
    202 H202        1.2606  -25.7305  -46.9245 H         1 UNK         0.0600 
    203 H203        0.8122  -24.5683  -48.1705 H         1 UNK         0.0600 
    204 H204        1.4700  -26.1368  -48.6214 H         1 UNK         0.0600 
    205 H205       -1.8617  -24.2933  -49.0407 H         1 UNK         0.3000 
    206 H206       -2.0925  -25.3370  -51.7563 H         1 UNK         0.0600 
    207 H207       -1.6344  -22.9400  -51.3337 H         1 UNK         0.0600 
    208 H208       -3.1684  -23.1221  -52.1663 H         1 UNK         0.0600 
    209 H209       -3.1392  -22.7841  -50.4371 H         1 UNK         0.0600 
    210 H210       -3.6105  -26.5527  -49.2585 H         1 UNK         0.3000 
    211 H211       -5.4521  -27.7057  -48.8810 H         1 UNK         0.0600 
    212 H212       -5.9297  -27.5711  -51.9060 H         1 UNK         0.0600 
    213 H213       -6.6322  -28.7351  -50.7921 H         1 UNK         0.0600 
    214 H214       -4.9001  -28.7413  -51.0821 H         1 UNK         0.0600 
    215 H215       -5.7357  -25.2243  -48.1381 H         1 UNK         0.3000 
    216 H216       -7.1450  -23.7401  -47.3260 H         1 UNK         0.0600 
    217 H217       -9.5760  -23.9904  -47.3431 H         1 UNK         0.0600 
    218 H218       -8.8477  -25.5516  -47.0020 H         1 UNK         0.0600 
    219 H219       -9.5082  -25.2117  -48.6015 H         1 UNK         0.0600 
    220 H220       -5.6522  -23.1797  -49.3891 H         1 UNK         0.3000 
    221 H221       -5.1605  -21.7080  -50.9724 H         1 UNK         0.0600 
    222 H222       -7.6458  -20.2050  -50.0058 H         1 UNK         0.0600 
    223 H223       -6.0500  -20.1320  -49.2607 H         1 UNK         0.0600 
    224 H224       -6.2922  -19.5094  -50.8806 H         1 UNK         0.0600 
    225 H225       -6.3686  -23.9288  -52.0517 H         1 UNK         0.3000 
    226 H226       -8.4674  -23.2900  -53.9380 H         1 UNK         0.0600 
    227 H227       -8.1775  -25.5752  -53.0177 H         1 UNK         0.0600 
    228 H228       -8.0021  -25.5867  -54.7673 H         1 UNK         0.0600 
    229 H229       -6.5767  -25.6939  -53.7423 H         1 UNK         0.0600 
    230 H230       -8.0746  -21.8943  -55.5197 H         1 UNK         0.3000 
    231 H231       -7.2588  -20.7713  -57.2287 H         1 UNK         0.0600 
    232 H232       -7.1744  -23.0116  -58.3493 H         1 UNK         0.0600 
    233 H233       -5.4927  -23.1947  -57.8521 H         1 UNK         0.0600 
    234 H234       -5.9510  -21.9149  -58.9658 H         1 UNK         0.0600 
    235 H235       -6.0726  -20.3382  -54.6596 H         1 UNK         0.3000 
    236 H236       -3.2510  -19.7729  -54.9374 H         1 UNK         0.0600 
    237 H237       -3.6002  -18.5966  -52.7514 H         1 UNK         0.0600 
    238 H238       -5.3402  -18.7878  -52.9225 H         1 UNK         0.0600 
    239 H239       -4.3027  -20.2047  -52.7305 H         1 UNK         0.0600 
    240 H240       -2.3303  -17.6031  -54.7591 H         1 UNK         0.3000 
    241 H241       -3.3154  -15.8213  -56.7681 H         1 UNK         0.0600 
    242 H242       -4.5295  -12.9156  -55.0623 H         1 UNK         0.3800 
    243 H243       -3.7064  -13.4296  -56.5063 H         1 UNK         0.3800 
    244 H244       -0.9244  -16.1509  -56.5432 H         1 UNK         0.0800 
    245 H245       -1.3019  -14.4810  -56.2879 H         1 UNK         0.0800 
    246 H246        0.9001  -17.1349  -55.2955 H         1 UNK         0.0800 
    247 H247       -0.3285  -17.8909  -54.3080 H         1 UNK         0.0800 
@<TRIPOS>BOND
     1    1    2 1    
     2    1  127 1    
     3    1  128 1    
     4    1  129 1    
     5    2    3 2    
     6    2    4 am   BACKBONE|DICT|INTERRES
     7    4    5 1    
     8    4  130 1    
     9    5    6 1    
    10    5   65 1    
    11    5  131 1    
    12    6    7 1    
    13    6  132 1    
    14    6  133 1    
    15    7    8 1    
    16    8    9 1    
    17    8  134 1    
    18    8  135 1    
    19    9   10 ar   
    20    9   14 ar   
    21   10   11 ar   
    22   10  136 1    
    23   11   12 ar   
    24   11  126 1    
    25   12   13 ar   
    26   12  137 1    
    27   13   14 ar   
    28   13   15 1    
    29   14  138 1    
    30   15   16 1    
    31   15  139 1    
    32   15  140 1    
    33   16   17 1    
    34   17   18 1    
    35   17  141 1    
    36   17  142 1    
    37   18   19 1    
    38   18   67 1    
    39   18  143 1    
    40   19   20 am   BACKBONE|DICT|INTERRES
    41   19  144 1    
    42   20   21 2    
    43   20   22 1    
    44   22   23 1    
    45   22   24 1    
    46   22  145 1    
    47   23  146 1    
    48   23  147 1    
    49   23  148 1    
    50   24   25 am   BACKBONE|DICT|INTERRES
    51   24  149 1    
    52   25   26 2    
    53   25   27 1    
    54   27   28 1    
    55   27   29 1    
    56   27  150 1    
    57   28  151 1    
    58   28  152 1    
    59   28  153 1    
    60   29   30 am   BACKBONE|DICT|INTERRES
    61   29  154 1    
    62   30   31 2    
    63   30   32 1    
    64   32   33 1    
    65   32   34 1    
    66   32  155 1    
    67   33  156 1    
    68   33  157 1    
    69   33  158 1    
    70   34   35 am   BACKBONE|DICT|INTERRES
    71   34  159 1    
    72   35   36 2    
    73   35   37 1    
    74   37   38 1    
    75   37   39 1    
    76   37  160 1    
    77   38  161 1    
    78   38  162 1    
    79   38  163 1    
    80   39   40 am   BACKBONE|DICT|INTERRES
    81   39  164 1    
    82   40   41 2    
    83   40   42 1    
    84   42   43 1    
    85   42   44 1    
    86   42  165 1    
    87   43  166 1    
    88   43  167 1    
    89   43  168 1    
    90   44   45 am   BACKBONE|DICT|INTERRES
    91   44  169 1    
    92   45   46 2    
    93   45   47 1    
    94   47   48 1    
    95   47   49 1    
    96   47  170 1    
    97   48  171 1    
    98   48  172 1    
    99   48  173 1    
   100   49   50 am   BACKBONE|DICT|INTERRES
   101   49  174 1    
   102   50   51 2    
   103   50   52 1    
   104   52   53 1    
   105   52   54 1    
   106   52  175 1    
   107   53  176 1    
   108   53  177 1    
   109   53  178 1    
   110   54   55 am   BACKBONE|DICT|INTERRES
   111   54  179 1    
   112   55   56 2    
   113   55   57 1    
   114   57   58 1    
   115   57   59 1    
   116   57  180 1    
   117   58  181 1    
   118   58  182 1    
   119   58  183 1    
   120   59   60 am   BACKBONE|DICT|INTERRES
   121   59  184 1    
   122   60   61 2    
   123   60   62 1    
   124   62   63 1    
   125   62   64 1    
   126   62  185 1    
   127   63  186 1    
   128   63  187 1    
   129   63  188 1    
   130   64   65 am   BACKBONE|DICT|INTERRES
   131   64  189 1    
   132   65   66 2    
   133   67   68 2    
   134   67   69 am   BACKBONE|DICT|INTERRES
   135   69   70 1    
   136   69  190 1    
   137   70   71 1    
   138   70   72 1    
   139   70  191 1    
   140   71  192 1    
   141   71  193 1    
   142   71  194 1    
   143   72   73 2    
   144   72   74 am   BACKBONE|DICT|INTERRES
   145   74   75 1    
   146   74  195 1    
   147   75   76 1    
   148   75   77 1    
   149   75  196 1    
   150   76  197 1    
   151   76  198 1    
   152   76  199 1    
   153   77   78 2    
   154   77   79 am   BACKBONE|DICT|INTERRES
   155   79   80 1    
   156   79  200 1    
   157   80   81 1    
   158   80   82 1    
   159   80  201 1    
   160   81  202 1    
   161   81  203 1    
   162   81  204 1    
   163   82   83 2    
   164   82   84 am   BACKBONE|DICT|INTERRES
   165   84   85 1    
   166   84  205 1    
   167   85   86 1    
   168   85   87 1    
   169   85  206 1    
   170   86  207 1    
   171   86  208 1    
   172   86  209 1    
   173   87   88 2    
   174   87   89 am   BACKBONE|DICT|INTERRES
   175   89   90 1    
   176   89  210 1    
   177   90   91 1    
   178   90   92 1    
   179   90  211 1    
   180   91  212 1    
   181   91  213 1    
   182   91  214 1    
   183   92   93 2    
   184   92   94 am   BACKBONE|DICT|INTERRES
   185   94   95 1    
   186   94  215 1    
   187   95   96 1    
   188   95   97 1    
   189   95  216 1    
   190   96  217 1    
   191   96  218 1    
   192   96  219 1    
   193   97   98 2    
   194   97   99 am   BACKBONE|DICT|INTERRES
   195   99  100 1    
   196   99  220 1    
   197  100  101 1    
   198  100  102 1    
   199  100  221 1    
   200  101  222 1    
   201  101  223 1    
   202  101  224 1    
   203  102  103 2    
   204  102  104 am   BACKBONE|DICT|INTERRES
   205  104  105 1    
   206  104  225 1    
   207  105  106 1    
   208  105  107 1    
   209  105  226 1    
   210  106  227 1    
   211  106  228 1    
   212  106  229 1    
   213  107  108 2    
   214  107  109 am   BACKBONE|DICT|INTERRES
   215  109  110 1    
   216  109  230 1    
   217  110  111 1    
   218  110  112 1    
   219  110  231 1    
   220  111  232 1    
   221  111  233 1    
   222  111  234 1    
   223  112  113 2    
   224  112  114 am   BACKBONE|DICT|INTERRES
   225  114  115 1    
   226  114  235 1    
   227  115  116 1    
   228  115  117 1    
   229  115  236 1    
   230  116  237 1    
   231  116  238 1    
   232  116  239 1    
   233  117  118 2    
   234  117  119 am   BACKBONE|DICT|INTERRES
   235  119  120 1    
   236  119  240 1    
   237  120  121 1    
   238  120  124 1    
   239  120  241 1    
   240  121  122 am   BACKBONE|DICT|INTERRES
   241  121  123 2    
   242  122  242 1    
   243  122  243 1    
   244  124  125 1    
   245  124  244 1    
   246  124  245 1    
   247  125  126 1    
   248  126  246 1    
   249  126  247 1    
@<TRIPOS>SUBSTRUCTURE
     1 UNK         1 GROUP             0       ****    0 ROOT    
