@<TRIPOS>MOLECULE
3R540
247   249    1
SMALL
USER_CHARGES


@<TRIPOS>ATOM
      1 CA         -3.8212  -12.8428  -49.6282 C.3       0 UNK        -0.1800 
      2 C          -2.3643  -12.5483  -49.3081 C.2       0 UNK         0.5000 
      3 O          -2.0234  -11.4092  -48.9897 O.2       0 UNK        -0.5000 
      4 N          -1.5024  -13.5713  -49.3860 N.am      1 UNK        -0.5000 
      5 CA         -0.0593  -13.4637  -49.1294 C.3       1 UNK         0.1400 
      6 C6          0.7499  -14.5526  -49.8895 C.3       23 UNK        -0.0398 
      7 S7          0.7637  -16.2257  -49.1443 S.3       23 UNK        -0.2404 
      8 C8         -0.3000  -17.1842  -50.2683 C.3       23 UNK        -0.0205 
      9 C9         -1.7722  -16.8201  -50.1425 C.ar      23 UNK        -0.0193 
     10 C10        -2.5188  -16.5153  -51.2833 C.ar      23 UNK        -0.1150 
     11 C11        -3.8808  -16.2214  -51.1823 C.ar      23 UNK        -0.0193 
     12 C12        -4.4940  -16.2216  -49.9266 C.ar      23 UNK        -0.1150 
     13 C13        -3.7527  -16.4953  -48.7736 C.ar      23 UNK        -0.0193 
     14 C14        -2.3952  -16.8051  -48.8905 C.ar      23 UNK        -0.1150 
     15 C15        -4.4139  -16.4078  -47.4065 C.3       23 UNK        -0.0205 
     16 S16        -4.8836  -18.0385  -46.7531 S.3       23 UNK        -0.2404 
     17 C17        -3.3603  -18.5783  -45.9002 C.3       23 UNK        -0.0398 
     18 CA         -2.9431  -20.0171  -46.2928 C.3       11 UNK         0.1400 
     19 N          -1.5294  -20.2882  -46.0094 N.am      11 UNK        -0.5000 
     20 C          -0.8886  -21.4257  -46.3189 C.2       10 UNK         0.5000 
     21 O          -1.4019  -22.3447  -46.9552 O.2       10 UNK        -0.5000 
     22 CA          0.5437  -21.5959  -45.7788 C.3       10 UNK         0.1400 
     23 CB          1.5635  -20.8906  -46.6846 C.3       10 UNK        -0.1800 
     24 N           0.6793  -21.1261  -44.3979 N.am      10 UNK        -0.5000 
     25 C           0.0431  -21.6755  -43.3520 C.2       9 UNK         0.5000 
     26 O          -0.6617  -22.6795  -43.4374 O.2       9 UNK        -0.5000 
     27 CA          0.1619  -20.9576  -41.9949 C.3       9 UNK         0.1400 
     28 CB          1.4457  -21.3711  -41.2611 C.3       9 UNK        -0.1800 
     29 N           0.1057  -19.5012  -42.1239 N.am      9 UNK        -0.5000 
     30 C          -0.9578  -18.8213  -42.5759 C.2       8 UNK         0.5000 
     31 O          -2.0318  -19.3496  -42.8649 O.2       8 UNK        -0.5000 
     32 CA         -0.7696  -17.3109  -42.8103 C.3       8 UNK         0.1400 
     33 CB         -0.9211  -16.5199  -41.5035 C.3       8 UNK        -0.1800 
     34 N           0.5221  -17.0062  -43.4285 N.am      8 UNK        -0.5000 
     35 C           0.8798  -17.3972  -44.6598 C.2       7 UNK         0.5000 
     36 O           0.1095  -17.9566  -45.4391 O.2       7 UNK        -0.5000 
     37 CA          2.3506  -17.1847  -45.0648 C.3       7 UNK         0.1400 
     38 CB          2.5793  -15.8071  -45.6939 C.3       7 UNK        -0.1800 
     39 N           3.2602  -17.3480  -43.9343 N.am      7 UNK        -0.5000 
     40 C           3.6053  -18.5305  -43.4111 C.2       6 UNK         0.5000 
     41 O           3.2143  -19.6106  -43.8525 O.2       6 UNK        -0.5000 
     42 CA          4.5075  -18.4910  -42.1635 C.3       6 UNK         0.1400 
     43 CB          5.9862  -18.3985  -42.5680 C.3       6 UNK        -0.1800 
     44 N           4.1789  -17.3792  -41.2675 N.am      6 UNK        -0.5000 
     45 C           3.0343  -17.2852  -40.5767 C.2       5 UNK         0.5000 
     46 O           2.1528  -18.1426  -40.6031 O.2       5 UNK        -0.5000 
     47 CA          2.8153  -16.0009  -39.7557 C.3       5 UNK         0.1400 
     48 CB          3.4263  -16.1486  -38.3545 C.3       5 UNK        -0.1800 
     49 N           3.3420  -14.7880  -40.3899 N.am      5 UNK        -0.5000 
     50 C           2.9502  -14.3083  -41.5772 C.2       4 UNK         0.5000 
     51 O           2.1455  -14.8804  -42.3183 O.2       4 UNK        -0.5000 
     52 CA          3.5930  -12.9888  -42.0249 C.3       4 UNK         0.1400 
     53 CB          4.9933  -13.2385  -42.6086 C.3       4 UNK        -0.1800 
     54 N           2.7528  -12.3803  -43.0499 N.am      4 UNK        -0.5000 
     55 C           2.4355  -11.0842  -43.1493 C.2       3 UNK         0.5000 
     56 O           2.8623  -10.2180  -42.3845 O.2       3 UNK        -0.5000 
     57 CA          1.4911  -10.6771  -44.3004 C.3       3 UNK         0.1400 
     58 CB          2.2558   -9.8765  -45.3664 C.3       3 UNK        -0.1800 
     59 N           0.8639  -11.8288  -44.9502 N.am      3 UNK        -0.5000 
     60 C          -0.2303  -12.4674  -44.5261 C.2       2 UNK         0.5000 
     61 O          -0.9006  -12.0865  -43.5654 O.2       2 UNK        -0.5000 
     62 CA         -0.6153  -13.7579  -45.2878 C.3       2 UNK         0.1400 
     63 CB         -1.9300  -14.3771  -44.7836 C.3       2 UNK        -0.1800 
     64 N          -0.6977  -13.6314  -46.7472 N.am      2 UNK        -0.5000 
     65 C           0.2918  -13.3937  -47.6229 C.2       1 UNK         0.5000 
     66 O           1.4518  -13.1454  -47.2913 O.2       1 UNK        -0.5000 
     67 C          -3.8628  -21.0680  -45.6336 C.2       11 UNK         0.5000 
     68 O          -4.6880  -21.6734  -46.3214 O.2       11 UNK        -0.5000 
     69 N          -3.6579  -21.2947  -44.3262 N.am      12 UNK        -0.5000 
     70 CA         -4.3764  -22.2798  -43.5151 C.3       12 UNK         0.1400 
     71 CB         -3.9478  -22.1448  -42.0466 C.3       12 UNK        -0.1800 
     72 C          -4.1954  -23.7273  -44.0092 C.2       12 UNK         0.5000 
     73 O          -5.1520  -24.5023  -43.9753 O.2       12 UNK        -0.5000 
     74 N          -3.0020  -24.0518  -44.5243 N.am      13 UNK        -0.5000 
     75 CA         -2.6600  -25.3085  -45.1950 C.3       13 UNK         0.1400 
     76 CB         -1.1324  -25.4932  -45.1580 C.3       13 UNK        -0.1800 
     77 C          -3.2307  -25.3937  -46.6301 C.2       13 UNK         0.5000 
     78 O          -2.5071  -25.7415  -47.5654 O.2       13 UNK        -0.5000 
     79 N          -4.5258  -25.0787  -46.7727 N.am      14 UNK        -0.5000 
     80 CA         -5.3427  -25.1364  -47.9868 C.3       14 UNK         0.1400 
     81 CB         -5.6407  -26.6074  -48.3457 C.3       14 UNK        -0.1800 
     82 C          -4.7460  -24.3447  -49.1681 C.2       14 UNK         0.5000 
     83 O          -4.6720  -24.8729  -50.2777 O.2       14 UNK        -0.5000 
     84 N          -4.3111  -23.1027  -48.9054 N.am      15 UNK        -0.5000 
     85 CA         -3.6728  -22.1892  -49.8632 C.3       15 UNK         0.1400 
     86 CB         -4.6949  -21.7195  -50.9192 C.3       15 UNK        -0.1800 
     87 C          -2.3921  -22.7972  -50.4764 C.2       15 UNK         0.5000 
     88 O          -2.2598  -22.8920  -51.6990 O.2       15 UNK        -0.5000 
     89 N          -1.4903  -23.2373  -49.5880 N.am      16 UNK        -0.5000 
     90 CA         -0.2304  -23.9320  -49.8575 C.3       16 UNK         0.1400 
     91 CB          0.7735  -22.9750  -50.5343 C.3       16 UNK        -0.1800 
     92 C          -0.4468  -25.2434  -50.6391 C.2       16 UNK         0.5000 
     93 O           0.2227  -25.4797  -51.6439 O.2       16 UNK        -0.5000 
     94 N          -1.4163  -26.0522  -50.1856 N.am      17 UNK        -0.5000 
     95 CA         -1.9115  -27.2770  -50.8266 C.3       17 UNK         0.1400 
     96 CB         -0.8606  -28.4023  -50.7339 C.3       17 UNK        -0.1800 
     97 C          -2.4084  -27.0232  -52.2680 C.2       17 UNK         0.5000 
     98 O          -2.0644  -27.7635  -53.1912 O.2       17 UNK        -0.5000 
     99 N          -3.1892  -25.9456  -52.4199 N.am      18 UNK        -0.5000 
    100 CA        -3.7666  -25.3963  -53.6479 C.3       18 UNK         0.1400 
    101 CB        -4.7594  -26.3937  -54.2803 C.3       18 UNK        -0.1800 
    102 C         -2.7382  -24.8560  -54.6661 C.2       18 UNK         0.5000 
    103 O         -3.1075  -24.6201  -55.8182 O.2       18 UNK        -0.5000 
    104 N         -1.4807  -24.6421  -54.2485 N.am      19 UNK        -0.5000 
    105 CA        -0.4377  -24.0449  -55.0862 C.3       19 UNK         0.1400 
    106 CB         0.9489  -24.3244  -54.4906 C.3       19 UNK        -0.1800 
    107 C         -0.6426  -22.5337  -55.2919 C.2       19 UNK         0.5000 
    108 O         -0.2984  -22.0213  -56.3583 O.2       19 UNK        -0.5000 
    109 N         -1.2148  -21.8484  -54.2917 N.am      20 UNK        -0.5000 
    110 CA        -1.6495  -20.4608  -54.4054 C.3       20 UNK         0.1400 
    111 CB        -1.5983  -19.7816  -53.0271 C.3       20 UNK        -0.1800 
    112 C         -3.0596  -20.4447  -55.0169 C.2       20 UNK         0.5000 
    113 O         -4.0364  -20.7209  -54.3197 O.2       20 UNK        -0.5000 
    114 N         -3.1319  -20.1732  -56.3261 N.am      21 UNK        -0.5000 
    115 CA        -4.3794  -20.1357  -57.0938 C.3       21 UNK         0.1400 
    116 CB        -4.0456  -20.1988  -58.5923 C.3       21 UNK        -0.1800 
    117 C         -5.2471  -18.8997  -56.7851 C.2       21 UNK         0.5000 
    118 O         -6.4672  -18.9668  -56.9382 O.2       21 UNK        -0.5000 
    119 N         -4.6007  -17.8034  -56.3626 N.am      22 UNK        -0.5000 
    120 CA        -5.2125  -16.5224  -55.9594 C.3       22 UNK         0.1400 
    121 C         -5.8941  -15.7245  -57.1150 C.2       22 UNK         0.5000 
    122 N         -5.6263  -16.0303  -58.3787 N.am      22 UNK        -0.7600 
    123 O         -6.6518  -14.7895  -56.8692 O.2       22 UNK        -0.5000 
    124 C124       -6.1234  -16.6471  -54.7033 C.3       23 UNK        -0.0398 
    125 S125       -5.2640  -17.3807  -53.2686 S.3       23 UNK        -0.2404 
    126 C126       -4.6822  -15.8795  -52.4269 C.3       23 UNK        -0.0205 
    127 H127       -4.3902  -11.9178  -49.7231 H         1 UNK         0.0600 
    128 H128       -4.2721  -13.4392  -48.8354 H         1 UNK         0.0600 
    129 H129       -3.9059  -13.3854  -50.5691 H         1 UNK         0.0600 
    130 H130       -1.8361  -14.4925  -49.6396 H         1 UNK         0.3000 
    131 H131        0.2644  -12.5068  -49.5449 H         1 UNK         0.0600 
    132 H132        0.4093  -14.6160  -50.9238 H         1 UNK         0.0800 
    133 H133        1.7916  -14.2341  -49.9543 H         1 UNK         0.0800 
    134 H134        0.0533  -17.0589  -51.2930 H         1 UNK         0.0800 
    135 H135       -0.1882  -18.2435  -50.0330 H         1 UNK         0.0800 
    136 H136       -2.0454  -16.5150  -52.2549 H         1 UNK         0.1150 
    137 H137       -5.5456  -15.9847  -49.8453 H         1 UNK         0.1150 
    138 H138       -1.8105  -17.0222  -48.0089 H         1 UNK         0.1150 
    139 H139       -3.7610  -15.8922  -46.7038 H         1 UNK         0.0800 
    140 H140       -5.3150  -15.7961  -47.4720 H         1 UNK         0.0800 
    141 H141       -3.5181  -18.4849  -44.8253 H         1 UNK         0.0800 
    142 H142       -2.5543  -17.8840  -46.1303 H         1 UNK         0.0800 
    143 H143       -3.0542  -20.1105  -47.3737 H         1 UNK         0.0600 
    144 H144       -1.0083  -19.5538  -45.5398 H         1 UNK         0.3000 
    145 H145        0.7758  -22.6626  -45.7858 H         1 UNK         0.0600 
    146 H146        2.5783  -21.0061  -46.3036 H         1 UNK         0.0600 
    147 H147        1.5437  -21.3131  -47.6893 H         1 UNK         0.0600 
    148 H148        1.3588  -19.8250  -46.7782 H         1 UNK         0.0600 
    149 H149        1.2995  -20.3410  -44.2365 H         1 UNK         0.3000 
    150 H150       -0.6876  -21.2669  -41.3828 H         1 UNK         0.0600 
    151 H151        1.4851  -22.4526  -41.1251 H         1 UNK         0.0600 
    152 H152        1.4972  -20.9167  -40.2715 H         1 UNK         0.0600 
    153 H153        2.3396  -21.0774  -41.8101 H         1 UNK         0.0600 
    154 H154        0.9317  -18.9855  -41.8344 H         1 UNK         0.3000 
    155 H155       -1.5548  -16.9874  -43.4951 H         1 UNK         0.0600 
    156 H156       -1.9177  -16.6556  -41.0821 H         1 UNK         0.0600 
    157 H157       -0.7777  -15.4516  -41.6674 H         1 UNK         0.0600 
    158 H158       -0.2025  -16.8413  -40.7506 H         1 UNK         0.0600 
    159 H159        1.1901  -16.4846  -42.8694 H         1 UNK         0.3000 
    160 H160        2.5934  -17.9358  -45.8192 H         1 UNK         0.0600 
    161 H161        2.4384  -14.9980  -44.9787 H         1 UNK         0.0600 
    162 H162        1.8892  -15.6479  -46.5197 H         1 UNK         0.0600 
    163 H163        3.5884  -15.7215  -46.0970 H         1 UNK         0.0600 
    164 H164        3.5762  -16.5045  -43.4791 H         1 UNK         0.3000 
    165 H165        4.3604  -19.4251  -41.6171 H         1 UNK         0.0600 
    166 H166        6.6372  -18.4457  -41.6949 H         1 UNK         0.0600 
    167 H167        6.2633  -19.2250  -43.2238 H         1 UNK         0.0600 
    168 H168        6.2027  -17.4708  -43.0993 H         1 UNK         0.0600 
    169 H169        4.8542  -16.6330  -41.1905 H         1 UNK         0.3000 
    170 H170        1.7379  -15.8673  -39.6413 H         1 UNK         0.0600 
    171 H171        3.0357  -17.0331  -37.8492 H         1 UNK         0.0600 
    172 H172        4.5118  -16.2467  -38.3960 H         1 UNK         0.0600 
    173 H173        3.1900  -15.2884  -37.7279 H         1 UNK         0.0600 
    174 H174        4.0193  -14.2646  -39.8537 H         1 UNK         0.3000 
    175 H175        3.6679  -12.3323  -41.1556 H         1 UNK         0.0600 
    176 H176        4.9572  -13.9075  -43.4696 H         1 UNK         0.0600 
    177 H177        5.4552  -12.3052  -42.9313 H         1 UNK         0.0600 
    178 H178        5.6560  -13.6882  -41.8683 H         1 UNK         0.0600 
    179 H179        2.2975  -13.0380  -43.6666 H         1 UNK         0.3000 
    180 H180        0.7150  -10.0344  -43.8799 H         1 UNK         0.0600 
    181 H181        3.0484  -10.4710  -45.8229 H         1 UNK         0.0600 
    182 H182        2.7175   -8.9878  -44.9344 H         1 UNK         0.0600 
    183 H183        1.5886   -9.5415  -46.1608 H         1 UNK         0.0600 
    184 H184        1.3278  -12.2002  -45.7779 H         1 UNK         0.3000 
    185 H185        0.1728  -14.4757  -45.0670 H         1 UNK         0.0600 
    186 H186       -1.9227  -14.5001  -43.7003 H         1 UNK         0.0600 
    187 H187       -2.7912  -13.7586  -45.0388 H         1 UNK         0.0600 
    188 H188       -2.0803  -15.3663  -45.2139 H         1 UNK         0.0600 
    189 H189       -1.6129  -13.7827  -47.1431 H         1 UNK         0.3000 
    190 H190       -2.9646  -20.7318  -43.8401 H         1 UNK         0.3000 
    191 H191       -5.4398  -22.0414  -43.5814 H         1 UNK         0.0600 
    192 H192       -2.8894  -22.3681  -41.9136 H         1 UNK         0.0600 
    193 H193       -4.1259  -21.1358  -41.6742 H         1 UNK         0.0600 
    194 H194       -4.5098  -22.8308  -41.4117 H         1 UNK         0.0600 
    195 H195       -2.2582  -23.3637  -44.4703 H         1 UNK         0.3000 
    196 H196       -3.1038  -26.1304  -44.6299 H         1 UNK         0.0600 
    197 H197       -0.8420  -26.4561  -45.5796 H         1 UNK         0.0600 
    198 H198       -0.7553  -25.4606  -44.1357 H         1 UNK         0.0600 
    199 H199       -0.6218  -24.7169  -45.7278 H         1 UNK         0.0600 
    200 H200       -5.0142  -24.7952  -45.9294 H         1 UNK         0.3000 
    201 H201       -6.2909  -24.6544  -47.7451 H         1 UNK         0.0600 
    202 H202       -6.3285  -26.6745  -49.1895 H         1 UNK         0.0600 
    203 H203       -6.1041  -27.1307  -47.5094 H         1 UNK         0.0600 
    204 H204       -4.7338  -27.1482  -48.6176 H         1 UNK         0.0600 
    205 H205       -4.4011  -22.7532  -47.9550 H         1 UNK         0.3000 
    206 H206       -3.3589  -21.3117  -49.2993 H         1 UNK         0.0600 
    207 H207       -5.5943  -21.3237  -50.4479 H         1 UNK         0.0600 
    208 H208       -4.2828  -20.9236  -51.5381 H         1 UNK         0.0600 
    209 H209       -4.9940  -22.5277  -51.5873 H         1 UNK         0.0600 
    210 H210       -1.6846  -23.0877  -48.5992 H         1 UNK         0.3000 
    211 H211        0.1797  -24.2146  -48.8869 H         1 UNK         0.0600 
    212 H212        0.9274  -22.0787  -49.9344 H         1 UNK         0.0600 
    213 H213        1.7455  -23.4526  -50.6616 H         1 UNK         0.0600 
    214 H214        0.4316  -22.6581  -51.5198 H         1 UNK         0.0600 
    215 H215       -1.8942  -25.7887  -49.3253 H         1 UNK         0.3000 
    216 H216       -2.7841  -27.5908  -50.2523 H         1 UNK         0.0600 
    217 H217       -1.2640  -29.3442  -51.1071 H         1 UNK         0.0600 
    218 H218        0.0314  -28.1742  -51.3179 H         1 UNK         0.0600 
    219 H219       -0.5525  -28.5679  -49.7015 H         1 UNK         0.0600 
    220 H220       -3.4484  -25.4326  -51.5794 H         1 UNK         0.3000 
    221 H221       -4.3406  -24.5254  -53.3279 H         1 UNK         0.0600 
    222 H222       -4.2508  -27.2658  -54.6918 H         1 UNK         0.0600 
    223 H223       -5.4872  -26.7426  -53.5476 H         1 UNK         0.0600 
    224 H224       -5.3186  -25.9291  -55.0931 H         1 UNK         0.0600 
    225 H225       -1.2378  -24.8492  -53.2873 H         1 UNK         0.3000 
    226 H226       -0.4768  -24.5214  -56.0681 H         1 UNK         0.0600 
    227 H227        1.1060  -25.3921  -54.3361 H         1 UNK         0.0600 
    228 H228        1.7361  -23.9724  -55.1583 H         1 UNK         0.0600 
    229 H229        1.0857  -23.8208  -53.5340 H         1 UNK         0.0600 
    230 H230       -1.5238  -22.3457  -53.4602 H         1 UNK         0.3000 
    231 H231       -0.9711  -19.9102  -55.0608 H         1 UNK         0.0600 
    232 H232       -1.9440  -18.7506  -53.0955 H         1 UNK         0.0600 
    233 H233       -0.5819  -19.7625  -52.6338 H         1 UNK         0.0600 
    234 H234       -2.2268  -20.2862  -52.2965 H         1 UNK         0.0600 
    235 H235       -2.2770  -20.0164  -56.8412 H         1 UNK         0.3000 
    236 H236       -4.9658  -21.0213  -56.8393 H         1 UNK         0.0600 
    237 H237       -3.4987  -21.1100  -58.8356 H         1 UNK         0.0600 
    238 H238       -4.9545  -20.1963  -59.1955 H         1 UNK         0.0600 
    239 H239       -3.4395  -19.3485  -58.9073 H         1 UNK         0.0600 
    240 H240       -3.5965  -17.8531  -56.2787 H         1 UNK         0.3000 
    241 H241       -4.3716  -15.8908  -55.6715 H         1 UNK         0.0600 
    242 H242       -6.0613  -15.5034  -59.1201 H         1 UNK         0.3800 
    243 H243       -4.9994  -16.7864  -58.6016 H         1 UNK         0.3800 
    244 H244       -6.5141  -15.6719  -54.4088 H         1 UNK         0.0800 
    245 H245       -6.9975  -17.2596  -54.9272 H         1 UNK         0.0800 
    246 H246       -5.5370  -15.2543  -52.1641 H         1 UNK         0.0800 
    247 H247       -4.0677  -15.2923  -53.1110 H         1 UNK         0.0800 
@<TRIPOS>BOND
     1    1    2 1    
     2    1  127 1    
     3    1  128 1    
     4    1  129 1    
     5    2    3 2    
     6    2    4 am   BACKBONE|DICT|INTERRES
     7    4    5 1    
     8    4  130 1    
     9    5    6 1    
    10    5   65 1    
    11    5  131 1    
    12    6    7 1    
    13    6  132 1    
    14    6  133 1    
    15    7    8 1    
    16    8    9 1    
    17    8  134 1    
    18    8  135 1    
    19    9   10 ar   
    20    9   14 ar   
    21   10   11 ar   
    22   10  136 1    
    23   11   12 ar   
    24   11  126 1    
    25   12   13 ar   
    26   12  137 1    
    27   13   14 ar   
    28   13   15 1    
    29   14  138 1    
    30   15   16 1    
    31   15  139 1    
    32   15  140 1    
    33   16   17 1    
    34   17   18 1    
    35   17  141 1    
    36   17  142 1    
    37   18   19 1    
    38   18   67 1    
    39   18  143 1    
    40   19   20 am   BACKBONE|DICT|INTERRES
    41   19  144 1    
    42   20   21 2    
    43   20   22 1    
    44   22   23 1    
    45   22   24 1    
    46   22  145 1    
    47   23  146 1    
    48   23  147 1    
    49   23  148 1    
    50   24   25 am   BACKBONE|DICT|INTERRES
    51   24  149 1    
    52   25   26 2    
    53   25   27 1    
    54   27   28 1    
    55   27   29 1    
    56   27  150 1    
    57   28  151 1    
    58   28  152 1    
    59   28  153 1    
    60   29   30 am   BACKBONE|DICT|INTERRES
    61   29  154 1    
    62   30   31 2    
    63   30   32 1    
    64   32   33 1    
    65   32   34 1    
    66   32  155 1    
    67   33  156 1    
    68   33  157 1    
    69   33  158 1    
    70   34   35 am   BACKBONE|DICT|INTERRES
    71   34  159 1    
    72   35   36 2    
    73   35   37 1    
    74   37   38 1    
    75   37   39 1    
    76   37  160 1    
    77   38  161 1    
    78   38  162 1    
    79   38  163 1    
    80   39   40 am   BACKBONE|DICT|INTERRES
    81   39  164 1    
    82   40   41 2    
    83   40   42 1    
    84   42   43 1    
    85   42   44 1    
    86   42  165 1    
    87   43  166 1    
    88   43  167 1    
    89   43  168 1    
    90   44   45 am   BACKBONE|DICT|INTERRES
    91   44  169 1    
    92   45   46 2    
    93   45   47 1    
    94   47   48 1    
    95   47   49 1    
    96   47  170 1    
    97   48  171 1    
    98   48  172 1    
    99   48  173 1    
   100   49   50 am   BACKBONE|DICT|INTERRES
   101   49  174 1    
   102   50   51 2    
   103   50   52 1    
   104   52   53 1    
   105   52   54 1    
   106   52  175 1    
   107   53  176 1    
   108   53  177 1    
   109   53  178 1    
   110   54   55 am   BACKBONE|DICT|INTERRES
   111   54  179 1    
   112   55   56 2    
   113   55   57 1    
   114   57   58 1    
   115   57   59 1    
   116   57  180 1    
   117   58  181 1    
   118   58  182 1    
   119   58  183 1    
   120   59   60 am   BACKBONE|DICT|INTERRES
   121   59  184 1    
   122   60   61 2    
   123   60   62 1    
   124   62   63 1    
   125   62   64 1    
   126   62  185 1    
   127   63  186 1    
   128   63  187 1    
   129   63  188 1    
   130   64   65 am   BACKBONE|DICT|INTERRES
   131   64  189 1    
   132   65   66 2    
   133   67   68 2    
   134   67   69 am   BACKBONE|DICT|INTERRES
   135   69   70 1    
   136   69  190 1    
   137   70   71 1    
   138   70   72 1    
   139   70  191 1    
   140   71  192 1    
   141   71  193 1    
   142   71  194 1    
   143   72   73 2    
   144   72   74 am   BACKBONE|DICT|INTERRES
   145   74   75 1    
   146   74  195 1    
   147   75   76 1    
   148   75   77 1    
   149   75  196 1    
   150   76  197 1    
   151   76  198 1    
   152   76  199 1    
   153   77   78 2    
   154   77   79 am   BACKBONE|DICT|INTERRES
   155   79   80 1    
   156   79  200 1    
   157   80   81 1    
   158   80   82 1    
   159   80  201 1    
   160   81  202 1    
   161   81  203 1    
   162   81  204 1    
   163   82   83 2    
   164   82   84 am   BACKBONE|DICT|INTERRES
   165   84   85 1    
   166   84  205 1    
   167   85   86 1    
   168   85   87 1    
   169   85  206 1    
   170   86  207 1    
   171   86  208 1    
   172   86  209 1    
   173   87   88 2    
   174   87   89 am   BACKBONE|DICT|INTERRES
   175   89   90 1    
   176   89  210 1    
   177   90   91 1    
   178   90   92 1    
   179   90  211 1    
   180   91  212 1    
   181   91  213 1    
   182   91  214 1    
   183   92   93 2    
   184   92   94 am   BACKBONE|DICT|INTERRES
   185   94   95 1    
   186   94  215 1    
   187   95   96 1    
   188   95   97 1    
   189   95  216 1    
   190   96  217 1    
   191   96  218 1    
   192   96  219 1    
   193   97   98 2    
   194   97   99 am   BACKBONE|DICT|INTERRES
   195   99  100 1    
   196   99  220 1    
   197  100  101 1    
   198  100  102 1    
   199  100  221 1    
   200  101  222 1    
   201  101  223 1    
   202  101  224 1    
   203  102  103 2    
   204  102  104 am   BACKBONE|DICT|INTERRES
   205  104  105 1    
   206  104  225 1    
   207  105  106 1    
   208  105  107 1    
   209  105  226 1    
   210  106  227 1    
   211  106  228 1    
   212  106  229 1    
   213  107  108 2    
   214  107  109 am   BACKBONE|DICT|INTERRES
   215  109  110 1    
   216  109  230 1    
   217  110  111 1    
   218  110  112 1    
   219  110  231 1    
   220  111  232 1    
   221  111  233 1    
   222  111  234 1    
   223  112  113 2    
   224  112  114 am   BACKBONE|DICT|INTERRES
   225  114  115 1    
   226  114  235 1    
   227  115  116 1    
   228  115  117 1    
   229  115  236 1    
   230  116  237 1    
   231  116  238 1    
   232  116  239 1    
   233  117  118 2    
   234  117  119 am   BACKBONE|DICT|INTERRES
   235  119  120 1    
   236  119  240 1    
   237  120  121 1    
   238  120  124 1    
   239  120  241 1    
   240  121  122 am   BACKBONE|DICT|INTERRES
   241  121  123 2    
   242  122  242 1    
   243  122  243 1    
   244  124  125 1    
   245  124  244 1    
   246  124  245 1    
   247  125  126 1    
   248  126  246 1    
   249  126  247 1    
@<TRIPOS>SUBSTRUCTURE
     1 UNK         1 GROUP             0       ****    0 ROOT    
