@<TRIPOS>MOLECULE
3R540
247   249    1
SMALL
USER_CHARGES


@<TRIPOS>ATOM
      1 CA         -1.4680  -16.6989  -47.7505 C.3       0 UNK        -0.1800 
      2 C          -0.9075  -15.5599  -48.5881 C.2       0 UNK         0.5000 
      3 O          -1.5317  -14.5049  -48.6838 O.2       0 UNK        -0.5000 
      4 N           0.2701  -15.7710  -49.1915 N.am      1 UNK        -0.5000 
      5 CA          0.9383  -14.8118  -50.0840 C.3       1 UNK         0.1400 
      6 C6          2.0663  -15.4797  -50.9074 C.3       23 UNK        -0.0398 
      7 S7          3.4277  -16.1738  -49.9053 S.3       23 UNK        -0.2404 
      8 C8          4.3069  -17.1554  -51.1609 C.3       23 UNK        -0.0205 
      9 C9          3.9335  -18.6266  -51.0769 C.ar      23 UNK        -0.0193 
     10 C10         2.7850  -19.1092  -51.7100 C.ar      23 UNK        -0.1150 
     11 C11         2.4261  -20.4565  -51.6009 C.ar      23 UNK        -0.0193 
     12 C12         3.2525  -21.3328  -50.8879 C.ar      23 UNK        -0.1150 
     13 C13         4.4241  -20.8673  -50.2831 C.ar      23 UNK        -0.0193 
     14 C14         4.7491  -19.5114  -50.3679 C.ar      23 UNK        -0.1150 
     15 C15         5.3655  -21.8220  -49.5656 C.3       23 UNK        -0.0205 
     16 S16         5.0805  -21.8309  -47.7705 S.3       23 UNK        -0.2404 
     17 C17         3.7295  -23.0476  -47.6169 C.3       23 UNK        -0.0398 
     18 CA          3.7906  -23.8087  -46.2675 C.3       11 UNK         0.1400 
     19 N           3.7531  -22.9062  -45.1079 N.am      11 UNK        -0.5000 
     20 C           4.4401  -23.1075  -43.9771 C.2       10 UNK         0.5000 
     21 O           5.1560  -24.0888  -43.7737 O.2       10 UNK        -0.5000 
     22 CA          4.3080  -22.0329  -42.8888 C.3       10 UNK         0.1400 
     23 CB          5.2494  -20.8547  -43.1842 C.3       10 UNK        -0.1800 
     24 N           2.9390  -21.5387  -42.7249 N.am      10 UNK        -0.5000 
     25 C           1.9900  -22.1876  -42.0357 C.2       9 UNK         0.5000 
     26 O           2.1131  -23.3438  -41.6309 O.2       9 UNK        -0.5000 
     27 CA          0.7080  -21.4034  -41.7042 C.3       9 UNK         0.1400 
     28 CB          1.0183  -20.1763  -40.8304 C.3       9 UNK        -0.1800 
     29 N          -0.0051  -20.9692  -42.8981 N.am      9 UNK        -0.5000 
     30 C          -0.8031  -21.7474  -43.6401 C.2       8 UNK         0.5000 
     31 O          -1.0359  -22.9330  -43.4040 O.2       8 UNK        -0.5000 
     32 CA         -1.4209  -21.0870  -44.8850 C.3       8 UNK         0.1400 
     33 CB         -2.6437  -20.2403  -44.5046 C.3       8 UNK        -0.1800 
     34 N          -0.4503  -20.2624  -45.6049 N.am      8 UNK        -0.5000 
     35 C           0.6541  -20.7501  -46.1858 C.2       7 UNK         0.5000 
     36 O           0.9197  -21.9513  -46.2269 O.2       7 UNK        -0.5000 
     37 CA          1.6354  -19.7331  -46.7951 C.3       7 UNK         0.1400 
     38 CB          1.3347  -19.5236  -48.2825 C.3       7 UNK        -0.1800 
     39 N           1.6244  -18.4426  -46.1028 N.am      7 UNK        -0.5000 
     40 C           2.1412  -18.2529  -44.8818 C.2       6 UNK         0.5000 
     41 O           2.6582  -19.1454  -44.2112 O.2       6 UNK        -0.5000 
     42 CA          2.0039  -16.8403  -44.2883 C.3       6 UNK         0.1400 
     43 CB          2.9501  -15.8599  -44.9953 C.3       6 UNK        -0.1800 
     44 N           0.6303  -16.3193  -44.3054 N.am      6 UNK        -0.5000 
     45 C          -0.4003  -16.9242  -43.6914 C.2       5 UNK         0.5000 
     46 O          -0.3052  -18.0316  -43.1615 O.2       5 UNK        -0.5000 
     47 CA         -1.7625  -16.2139  -43.6258 C.3       5 UNK         0.1400 
     48 CB         -2.0300  -15.7182  -42.1920 C.3       5 UNK        -0.1800 
     49 N          -1.9284  -15.1015  -44.5645 N.am      5 UNK        -0.5000 
     50 C          -3.1286  -14.6765  -44.9957 C.2       4 UNK         0.5000 
     51 O          -4.1761  -15.2908  -44.7860 O.2       4 UNK        -0.5000 
     52 CA         -3.1815  -13.3366  -45.7678 C.3       4 UNK         0.1400 
     53 CB         -4.5211  -12.5927  -45.5855 C.3       4 UNK        -0.1800 
     54 N          -2.0496  -12.4551  -45.4658 N.am      4 UNK        -0.5000 
     55 C          -1.6922  -11.9531  -44.2729 C.2       3 UNK         0.5000 
     56 O          -2.4012  -12.0118  -43.2676 O.2       3 UNK        -0.5000 
     57 CA         -0.2866  -11.3133  -44.1702 C.3       3 UNK         0.1400 
     58 CB          0.4662  -11.8210  -42.9223 C.3       3 UNK        -0.1800 
     59 N           0.5637  -11.4694  -45.3630 N.am      3 UNK        -0.5000 
     60 C           0.9768  -12.6115  -45.9304 C.2       2 UNK         0.5000 
     61 O           0.6442  -13.7374  -45.5398 O.2       2 UNK        -0.5000 
     62 CA          1.8697  -12.4658  -47.1685 C.3       2 UNK         0.1400 
     63 CB          3.3590  -12.4584  -46.7923 C.3       2 UNK        -0.1800 
     64 N           1.5892  -13.5892  -48.0500 N.am      2 UNK        -0.5000 
     65 C           1.4273  -13.5262  -49.3758 C.2       1 UNK         0.5000 
     66 O           1.6270  -12.5079  -50.0402 O.2       1 UNK        -0.5000 
     67 C           2.6944  -24.8917  -46.1789 C.2       11 UNK         0.5000 
     68 O           2.6777  -25.7966  -47.0143 O.2       11 UNK        -0.5000 
     69 N           1.8100  -24.7846  -45.1735 N.am      12 UNK        -0.5000 
     70 CA          0.6688  -25.6574  -44.8857 C.3       12 UNK         0.1400 
     71 CB          1.1470  -27.0640  -44.4691 C.3       12 UNK        -0.1800 
     72 C          -0.3688  -25.6841  -46.0280 C.2       12 UNK         0.5000 
     73 O          -0.9993  -26.7156  -46.2657 O.2       12 UNK        -0.5000 
     74 N          -0.5336  -24.5452  -46.7174 N.am      13 UNK        -0.5000 
     75 CA         -1.4166  -24.3925  -47.8772 C.3       13 UNK         0.1400 
     76 CB         -0.9315  -23.2017  -48.7171 C.3       13 UNK        -0.1800 
     77 C          -2.9169  -24.2760  -47.5255 C.2       13 UNK         0.5000 
     78 O          -3.7372  -24.1764  -48.4399 O.2       13 UNK        -0.5000 
     79 N          -3.2515  -24.3046  -46.2253 N.am      14 UNK        -0.5000 
     80 CA         -4.5958  -24.3144  -45.6401 C.3       14 UNK         0.1400 
     81 CB         -5.3221  -25.6384  -45.9657 C.3       14 UNK        -0.1800 
     82 C          -5.4012  -23.0575  -46.0176 C.2       14 UNK         0.5000 
     83 O          -5.2079  -22.0149  -45.3949 O.2       14 UNK        -0.5000 
     84 N          -6.2747  -23.1655  -47.0273 N.am      15 UNK        -0.5000 
     85 CA         -7.0196  -22.0435  -47.6006 C.3       15 UNK         0.1400 
     86 CB         -8.1001  -22.5885  -48.5439 C.3       15 UNK        -0.1800 
     87 C          -6.1086  -21.0387  -48.3316 C.2       15 UNK         0.5000 
     88 O          -6.3860  -19.8398  -48.2978 O.2       15 UNK        -0.5000 
     89 N          -5.0263  -21.5427  -48.9450 N.am      16 UNK        -0.5000 
     90 CA         -3.9317  -20.7962  -49.5657 C.3       16 UNK         0.1400 
     91 CB         -3.0510  -20.1830  -48.4537 C.3       16 UNK        -0.1800 
     92 C          -4.4275  -19.7724  -50.6096 C.2       16 UNK         0.5000 
     93 O          -4.8621  -20.1639  -51.6949 O.2       16 UNK        -0.5000 
     94 N          -4.3718  -18.4795  -50.2672 N.am      17 UNK        -0.5000 
     95 CA         -4.8462  -17.3700  -51.0920 C.3       17 UNK         0.1400 
     96 CB         -4.3555  -16.0474  -50.4874 C.3       17 UNK        -0.1800 
     97 C          -6.3739  -17.3524  -51.2930 C.2       17 UNK         0.5000 
     98 O          -6.8278  -16.8729  -52.3312 O.2       17 UNK        -0.5000 
     99 N          -7.1438  -17.9101  -50.3451 N.am      18 UNK        -0.5000 
    100 CA        -8.6039  -18.0272  -50.4441 C.3       18 UNK         0.1400 
    101 CB        -9.2002  -18.3234  -49.0595 C.3       18 UNK        -0.1800 
    102 C         -9.0467  -19.0917  -51.4671 C.2       18 UNK         0.5000 
    103 O        -10.1364  -18.9768  -52.0281 O.2       18 UNK        -0.5000 
    104 N         -8.1804  -20.0830  -51.7184 N.am      19 UNK        -0.5000 
    105 CA        -8.3331  -21.0815  -52.7793 C.3       19 UNK         0.1400 
    106 CB        -7.6990  -22.4006  -52.3084 C.3       19 UNK        -0.1800 
    107 C         -7.7071  -20.6228  -54.1125 C.2       19 UNK         0.5000 
    108 O         -7.7812  -21.3614  -55.0949 O.2       19 UNK        -0.5000 
    109 N         -7.0773  -19.4367  -54.1161 N.am      20 UNK        -0.5000 
    110 CA        -6.2998  -18.8312  -55.2024 C.3       20 UNK         0.1400 
    111 CB        -7.1862  -18.5454  -56.4324 C.3       20 UNK        -0.1800 
    112 C         -5.0178  -19.6163  -55.5570 C.2       20 UNK         0.5000 
    113 O         -4.4604  -19.4153  -56.6369 O.2       20 UNK        -0.5000 
    114 N         -4.5503  -20.4743  -54.6387 N.am      21 UNK        -0.5000 
    115 CA        -3.3249  -21.2590  -54.7855 C.3       21 UNK         0.1400 
    116 CB        -3.3935  -22.4814  -53.8562 C.3       21 UNK        -0.1800 
    117 C         -2.0734  -20.4200  -54.4795 C.2       21 UNK         0.5000 
    118 O         -1.0342  -20.6282  -55.1063 O.2       21 UNK        -0.5000 
    119 N         -2.2090  -19.4877  -53.5286 N.am      22 UNK        -0.5000 
    120 CA        -1.1412  -18.5996  -53.0396 C.3       22 UNK         0.1400 
    121 C         -1.4835  -17.0927  -53.2189 C.2       22 UNK         0.5000 
    122 N         -2.4639  -16.7302  -54.0372 N.am      22 UNK        -0.7600 
    123 O         -0.8461  -16.2340  -52.6189 O.2       22 UNK        -0.5000 
    124 C124       -0.7251  -18.9353  -51.5792 C.3       23 UNK        -0.0398 
    125 S125       -0.3388  -20.6995  -51.2853 S.3       23 UNK        -0.2404 
    126 C126        1.1662  -20.9737  -52.2801 C.3       23 UNK        -0.0205 
    127 H127       -0.9103  -16.8011  -46.8212 H         1 UNK         0.0600 
    128 H128       -1.4159  -17.6360  -48.2994 H         1 UNK         0.0600 
    129 H129       -2.5136  -16.5156  -47.5025 H         1 UNK         0.0600 
    130 H130        0.7485  -16.6522  -49.0818 H         1 UNK         0.3000 
    131 H131        0.1833  -14.4797  -50.7999 H         1 UNK         0.0600 
    132 H132        2.4873  -14.7675  -51.6193 H         1 UNK         0.0800 
    133 H133        1.6385  -16.2780  -51.5129 H         1 UNK         0.0800 
    134 H134        5.3801  -17.0342  -51.0063 H         1 UNK         0.0800 
    135 H135        4.1035  -16.7703  -52.1612 H         1 UNK         0.0800 
    136 H136        2.1673  -18.4341  -52.2828 H         1 UNK         0.1150 
    137 H137        2.9911  -22.3790  -50.8154 H         1 UNK         0.1150 
    138 H138        5.6461  -19.1467  -49.8872 H         1 UNK         0.1150 
    139 H139        5.2810  -22.8302  -49.9733 H         1 UNK         0.0800 
    140 H140        6.3961  -21.5145  -49.7488 H         1 UNK         0.0800 
    141 H141        2.7808  -22.5330  -47.7550 H         1 UNK         0.0800 
    142 H142        3.8030  -23.7579  -48.4419 H         1 UNK         0.0800 
    143 H143        4.7398  -24.3491  -46.2596 H         1 UNK         0.0600 
    144 H144        3.1715  -22.0849  -45.1933 H         1 UNK         0.3000 
    145 H145        4.6261  -22.4783  -41.9435 H         1 UNK         0.0600 
    146 H146        5.1792  -20.0886  -42.4118 H         1 UNK         0.0600 
    147 H147        5.0241  -20.3864  -44.1430 H         1 UNK         0.0600 
    148 H148        6.2877  -21.1866  -43.2207 H         1 UNK         0.0600 
    149 H149        2.7506  -20.6070  -43.0901 H         1 UNK         0.3000 
    150 H150        0.0546  -22.0624  -41.1283 H         1 UNK         0.0600 
    151 H151        1.5677  -20.4623  -39.9327 H         1 UNK         0.0600 
    152 H152        0.1006  -19.6840  -40.5080 H         1 UNK         0.0600 
    153 H153        1.6180  -19.4376  -41.3642 H         1 UNK         0.0600 
    154 H154        0.0948  -19.9913  -43.1535 H         1 UNK         0.3000 
    155 H155       -1.7542  -21.8814  -45.5551 H         1 UNK         0.0600 
    156 H156       -3.3700  -20.8384  -43.9541 H         1 UNK         0.0600 
    157 H157       -3.1475  -19.8478  -45.3876 H         1 UNK         0.0600 
    158 H158       -2.3787  -19.4008  -43.8653 H         1 UNK         0.0600 
    159 H159       -0.5772  -19.2636  -45.5643 H         1 UNK         0.3000 
    160 H160        2.6396  -20.1541  -46.7131 H         1 UNK         0.0600 
    161 H161        0.3355  -19.1251  -48.4475 H         1 UNK         0.0600 
    162 H162        1.3975  -20.4709  -48.8182 H         1 UNK         0.0600 
    163 H163        2.0545  -18.8461  -48.7410 H         1 UNK         0.0600 
    164 H164        1.2166  -17.6573  -46.5831 H         1 UNK         0.3000 
    165 H165        2.3124  -16.9010  -43.2425 H         1 UNK         0.0600 
    166 H166        2.9560  -14.8933  -44.4915 H         1 UNK         0.0600 
    167 H167        2.6640  -15.6980  -46.0348 H         1 UNK         0.0600 
    168 H168        3.9755  -16.2318  -44.9913 H         1 UNK         0.0600 
    169 H169        0.5169  -15.3978  -44.7168 H         1 UNK         0.3000 
    170 H170       -2.5011  -16.9817  -43.8640 H         1 UNK         0.0600 
    171 H171       -1.9020  -16.5208  -41.4643 H         1 UNK         0.0600 
    172 H172       -1.3499  -14.9110  -41.9170 H         1 UNK         0.0600 
    173 H173       -3.0489  -15.3466  -42.0830 H         1 UNK         0.0600 
    174 H174       -1.1070  -14.5542  -44.7941 H         1 UNK         0.3000 
    175 H175       -3.0969  -13.5935  -46.8231 H         1 UNK         0.0600 
    176 H176       -4.7268  -12.3767  -44.5369 H         1 UNK         0.0600 
    177 H177       -4.5252  -11.6486  -46.1302 H         1 UNK         0.0600 
    178 H178       -5.3532  -13.1871  -45.9646 H         1 UNK         0.0600 
    179 H179       -1.3820  -12.3518  -46.2164 H         1 UNK         0.3000 
    180 H180       -0.4507  -10.2417  -44.0487 H         1 UNK         0.0600 
    181 H181        1.4494  -11.3580  -42.8392 H         1 UNK         0.0600 
    182 H182        0.6061  -12.9024  -42.9450 H         1 UNK         0.0600 
    183 H183       -0.0794  -11.5829  -42.0085 H         1 UNK         0.0600 
    184 H184        0.8676  -10.5996  -45.7793 H         1 UNK         0.3000 
    185 H185        1.6195  -11.5259  -47.6653 H         1 UNK         0.0600 
    186 H186        3.6601  -13.3855  -46.3056 H         1 UNK         0.0600 
    187 H187        3.9842  -12.3304  -47.6761 H         1 UNK         0.0600 
    188 H188        3.5871  -11.6386  -46.1101 H         1 UNK         0.0600 
    189 H189        1.3413  -14.4445  -47.5733 H         1 UNK         0.3000 
    190 H190        1.9114  -23.9877  -44.5612 H         1 UNK         0.3000 
    191 H191        0.1618  -25.2208  -44.0251 H         1 UNK         0.0600 
    192 H192        0.3138  -27.6706  -44.1126 H         1 UNK         0.0600 
    193 H193        1.8749  -27.0082  -43.6596 H         1 UNK         0.0600 
    194 H194        1.6083  -27.5991  -45.2995 H         1 UNK         0.0600 
    195 H195        0.0284  -23.7365  -46.4672 H         1 UNK         0.3000 
    196 H196       -1.3169  -25.2863  -48.4965 H         1 UNK         0.0600 
    197 H197       -0.9873  -22.2665  -48.1644 H         1 UNK         0.0600 
    198 H198       -1.5286  -23.0890  -49.6223 H         1 UNK         0.0600 
    199 H199        0.1038  -23.3363  -49.0312 H         1 UNK         0.0600 
    200 H200       -2.4929  -24.3589  -45.5612 H         1 UNK         0.3000 
    201 H201       -4.4600  -24.2761  -44.5581 H         1 UNK         0.0600 
    202 H202       -5.4331  -25.8032  -47.0377 H         1 UNK         0.0600 
    203 H203       -6.3185  -25.6579  -45.5221 H         1 UNK         0.0600 
    204 H204       -4.7738  -26.4889  -45.5605 H         1 UNK         0.0600 
    205 H205       -6.3510  -24.0543  -47.5003 H         1 UNK         0.3000 
    206 H206       -7.5137  -21.5062  -46.7884 H         1 UNK         0.0600 
    207 H207       -8.8459  -23.1632  -47.9946 H         1 UNK         0.0600 
    208 H208       -8.6248  -21.7817  -49.0573 H         1 UNK         0.0600 
    209 H209       -7.6689  -23.2422  -49.3018 H         1 UNK         0.0600 
    210 H210       -4.8787  -22.5457  -48.8927 H         1 UNK         0.3000 
    211 H211       -3.3292  -21.5245  -50.1094 H         1 UNK         0.0600 
    212 H212       -3.5578  -19.3891  -47.9043 H         1 UNK         0.0600 
    213 H213       -2.1253  -19.7818  -48.8628 H         1 UNK         0.0600 
    214 H214       -2.7749  -20.9394  -47.7207 H         1 UNK         0.0600 
    215 H215       -4.0553  -18.2470  -49.3378 H         1 UNK         0.3000 
    216 H216       -4.3981  -17.4742  -52.0814 H         1 UNK         0.0600 
    217 H217       -4.7034  -15.1954  -51.0730 H         1 UNK         0.0600 
    218 H218       -3.2665  -16.0040  -50.4763 H         1 UNK         0.0600 
    219 H219       -4.7104  -15.9121  -49.4651 H         1 UNK         0.0600 
    220 H220       -6.7093  -18.3476  -49.5369 H         1 UNK         0.3000 
    221 H221       -8.9990  -17.0653  -50.7779 H         1 UNK         0.0600 
    222 H222      -10.2899  -18.2921  -49.0932 H         1 UNK         0.0600 
    223 H223       -8.9168  -19.3108  -48.6966 H         1 UNK         0.0600 
    224 H224       -8.8764  -17.5880  -48.3228 H         1 UNK         0.0600 
    225 H225       -7.2974  -20.0862  -51.2265 H         1 UNK         0.3000 
    226 H226       -9.3929  -21.2643  -52.9683 H         1 UNK         0.0600 
    227 H227       -8.2537  -22.8144  -51.4686 H         1 UNK         0.0600 
    228 H228       -7.7144  -23.1543  -53.0967 H         1 UNK         0.0600 
    229 H229       -6.6609  -22.2676  -52.0014 H         1 UNK         0.0600 
    230 H230       -7.1019  -18.8944  -53.2631 H         1 UNK         0.3000 
    231 H231       -5.9582  -17.8686  -54.8198 H         1 UNK         0.0600 
    232 H232       -6.6530  -17.9403  -57.1664 H         1 UNK         0.0600 
    233 H233       -8.0837  -17.9942  -56.1516 H         1 UNK         0.0600 
    234 H234       -7.4972  -19.4626  -56.9328 H         1 UNK         0.0600 
    235 H235       -5.0285  -20.5466  -53.7479 H         1 UNK         0.3000 
    236 H236       -3.2519  -21.6169  -55.8147 H         1 UNK         0.0600 
    237 H237       -3.4405  -22.1917  -52.8059 H         1 UNK         0.0600 
    238 H238       -4.2684  -23.0941  -54.0740 H         1 UNK         0.0600 
    239 H239       -2.5132  -23.1134  -53.9801 H         1 UNK         0.0600 
    240 H240       -3.1051  -19.4057  -53.0697 H         1 UNK         0.3000 
    241 H241       -0.2576  -18.7285  -53.6645 H         1 UNK         0.0600 
    242 H242       -2.6645  -15.7498  -54.1561 H         1 UNK         0.3800 
    243 H243       -2.9419  -17.4134  -54.6008 H         1 UNK         0.3800 
    244 H244       -1.5308  -18.6597  -50.8997 H         1 UNK         0.0800 
    245 H245        0.1292  -18.3358  -51.2674 H         1 UNK         0.0800 
    246 H246        1.0618  -20.5253  -53.2674 H         1 UNK         0.0800 
    247 H247        1.2605  -22.0459  -52.4572 H         1 UNK         0.0800 
@<TRIPOS>BOND
     1    1    2 1    
     2    1  127 1    
     3    1  128 1    
     4    1  129 1    
     5    2    3 2    
     6    2    4 am   BACKBONE|DICT|INTERRES
     7    4    5 1    
     8    4  130 1    
     9    5    6 1    
    10    5   65 1    
    11    5  131 1    
    12    6    7 1    
    13    6  132 1    
    14    6  133 1    
    15    7    8 1    
    16    8    9 1    
    17    8  134 1    
    18    8  135 1    
    19    9   10 ar   
    20    9   14 ar   
    21   10   11 ar   
    22   10  136 1    
    23   11   12 ar   
    24   11  126 1    
    25   12   13 ar   
    26   12  137 1    
    27   13   14 ar   
    28   13   15 1    
    29   14  138 1    
    30   15   16 1    
    31   15  139 1    
    32   15  140 1    
    33   16   17 1    
    34   17   18 1    
    35   17  141 1    
    36   17  142 1    
    37   18   19 1    
    38   18   67 1    
    39   18  143 1    
    40   19   20 am   BACKBONE|DICT|INTERRES
    41   19  144 1    
    42   20   21 2    
    43   20   22 1    
    44   22   23 1    
    45   22   24 1    
    46   22  145 1    
    47   23  146 1    
    48   23  147 1    
    49   23  148 1    
    50   24   25 am   BACKBONE|DICT|INTERRES
    51   24  149 1    
    52   25   26 2    
    53   25   27 1    
    54   27   28 1    
    55   27   29 1    
    56   27  150 1    
    57   28  151 1    
    58   28  152 1    
    59   28  153 1    
    60   29   30 am   BACKBONE|DICT|INTERRES
    61   29  154 1    
    62   30   31 2    
    63   30   32 1    
    64   32   33 1    
    65   32   34 1    
    66   32  155 1    
    67   33  156 1    
    68   33  157 1    
    69   33  158 1    
    70   34   35 am   BACKBONE|DICT|INTERRES
    71   34  159 1    
    72   35   36 2    
    73   35   37 1    
    74   37   38 1    
    75   37   39 1    
    76   37  160 1    
    77   38  161 1    
    78   38  162 1    
    79   38  163 1    
    80   39   40 am   BACKBONE|DICT|INTERRES
    81   39  164 1    
    82   40   41 2    
    83   40   42 1    
    84   42   43 1    
    85   42   44 1    
    86   42  165 1    
    87   43  166 1    
    88   43  167 1    
    89   43  168 1    
    90   44   45 am   BACKBONE|DICT|INTERRES
    91   44  169 1    
    92   45   46 2    
    93   45   47 1    
    94   47   48 1    
    95   47   49 1    
    96   47  170 1    
    97   48  171 1    
    98   48  172 1    
    99   48  173 1    
   100   49   50 am   BACKBONE|DICT|INTERRES
   101   49  174 1    
   102   50   51 2    
   103   50   52 1    
   104   52   53 1    
   105   52   54 1    
   106   52  175 1    
   107   53  176 1    
   108   53  177 1    
   109   53  178 1    
   110   54   55 am   BACKBONE|DICT|INTERRES
   111   54  179 1    
   112   55   56 2    
   113   55   57 1    
   114   57   58 1    
   115   57   59 1    
   116   57  180 1    
   117   58  181 1    
   118   58  182 1    
   119   58  183 1    
   120   59   60 am   BACKBONE|DICT|INTERRES
   121   59  184 1    
   122   60   61 2    
   123   60   62 1    
   124   62   63 1    
   125   62   64 1    
   126   62  185 1    
   127   63  186 1    
   128   63  187 1    
   129   63  188 1    
   130   64   65 am   BACKBONE|DICT|INTERRES
   131   64  189 1    
   132   65   66 2    
   133   67   68 2    
   134   67   69 am   BACKBONE|DICT|INTERRES
   135   69   70 1    
   136   69  190 1    
   137   70   71 1    
   138   70   72 1    
   139   70  191 1    
   140   71  192 1    
   141   71  193 1    
   142   71  194 1    
   143   72   73 2    
   144   72   74 am   BACKBONE|DICT|INTERRES
   145   74   75 1    
   146   74  195 1    
   147   75   76 1    
   148   75   77 1    
   149   75  196 1    
   150   76  197 1    
   151   76  198 1    
   152   76  199 1    
   153   77   78 2    
   154   77   79 am   BACKBONE|DICT|INTERRES
   155   79   80 1    
   156   79  200 1    
   157   80   81 1    
   158   80   82 1    
   159   80  201 1    
   160   81  202 1    
   161   81  203 1    
   162   81  204 1    
   163   82   83 2    
   164   82   84 am   BACKBONE|DICT|INTERRES
   165   84   85 1    
   166   84  205 1    
   167   85   86 1    
   168   85   87 1    
   169   85  206 1    
   170   86  207 1    
   171   86  208 1    
   172   86  209 1    
   173   87   88 2    
   174   87   89 am   BACKBONE|DICT|INTERRES
   175   89   90 1    
   176   89  210 1    
   177   90   91 1    
   178   90   92 1    
   179   90  211 1    
   180   91  212 1    
   181   91  213 1    
   182   91  214 1    
   183   92   93 2    
   184   92   94 am   BACKBONE|DICT|INTERRES
   185   94   95 1    
   186   94  215 1    
   187   95   96 1    
   188   95   97 1    
   189   95  216 1    
   190   96  217 1    
   191   96  218 1    
   192   96  219 1    
   193   97   98 2    
   194   97   99 am   BACKBONE|DICT|INTERRES
   195   99  100 1    
   196   99  220 1    
   197  100  101 1    
   198  100  102 1    
   199  100  221 1    
   200  101  222 1    
   201  101  223 1    
   202  101  224 1    
   203  102  103 2    
   204  102  104 am   BACKBONE|DICT|INTERRES
   205  104  105 1    
   206  104  225 1    
   207  105  106 1    
   208  105  107 1    
   209  105  226 1    
   210  106  227 1    
   211  106  228 1    
   212  106  229 1    
   213  107  108 2    
   214  107  109 am   BACKBONE|DICT|INTERRES
   215  109  110 1    
   216  109  230 1    
   217  110  111 1    
   218  110  112 1    
   219  110  231 1    
   220  111  232 1    
   221  111  233 1    
   222  111  234 1    
   223  112  113 2    
   224  112  114 am   BACKBONE|DICT|INTERRES
   225  114  115 1    
   226  114  235 1    
   227  115  116 1    
   228  115  117 1    
   229  115  236 1    
   230  116  237 1    
   231  116  238 1    
   232  116  239 1    
   233  117  118 2    
   234  117  119 am   BACKBONE|DICT|INTERRES
   235  119  120 1    
   236  119  240 1    
   237  120  121 1    
   238  120  124 1    
   239  120  241 1    
   240  121  122 am   BACKBONE|DICT|INTERRES
   241  121  123 2    
   242  122  242 1    
   243  122  243 1    
   244  124  125 1    
   245  124  244 1    
   246  124  245 1    
   247  125  126 1    
   248  126  246 1    
   249  126  247 1    
@<TRIPOS>SUBSTRUCTURE
     1 UNK         1 GROUP             0       ****    0 ROOT    
