@<TRIPOS>MOLECULE
3R540
247   249    1
SMALL
USER_CHARGES


@<TRIPOS>ATOM
      1 CA          0.3174  -13.1724  -42.8745 C.3       0 UNK        -0.1800 
      2 C           1.2994  -13.2169  -44.0328 C.2       0 UNK         0.5000 
      3 O           2.2628  -12.4502  -44.0503 O.2       0 UNK        -0.5000 
      4 N           1.0500  -14.1010  -45.0035 N.am      1 UNK        -0.5000 
      5 CA          1.9060  -14.3102  -46.1719 C.3       1 UNK         0.1400 
      6 C6          1.0986  -14.8362  -47.3828 C.3       23 UNK        -0.0398 
      7 S7         -0.0412  -13.5687  -48.0411 S.3       23 UNK        -0.2404 
      8 C8         -1.6393  -14.4527  -48.0816 C.3       23 UNK        -0.0205 
      9 C9         -1.8557  -15.3818  -49.2812 C.ar      23 UNK        -0.0193 
     10 C10        -3.1676  -15.7086  -49.6442 C.ar      23 UNK        -0.1150 
     11 C11        -3.4280  -16.5768  -50.7095 C.ar      23 UNK        -0.0193 
     12 C12        -2.3563  -17.1116  -51.4285 C.ar      23 UNK        -0.1150 
     13 C13        -1.0402  -16.8034  -51.0814 C.ar      23 UNK        -0.0193 
     14 C14        -0.7976  -15.9406  -50.0113 C.ar      23 UNK        -0.1150 
     15 C15         0.1219  -17.4050  -51.8583 C.3       23 UNK        -0.0205 
     16 S16         0.8748  -18.8173  -50.9846 S.3       23 UNK        -0.2404 
     17 C17        -0.4808  -20.0407  -51.0191 C.3       23 UNK        -0.0398 
     18 CA         -0.9798  -20.4444  -49.6102 C.3       11 UNK         0.1400 
     19 N          -1.2630  -19.3014  -48.7306 N.am      11 UNK        -0.5000 
     20 C          -1.5080  -19.4234  -47.4206 C.2       10 UNK         0.5000 
     21 O          -1.5304  -20.5102  -46.8337 O.2       10 UNK        -0.5000 
     22 CA         -1.8542  -18.1427  -46.6569 C.3       10 UNK         0.1400 
     23 CB         -3.3440  -17.8024  -46.8283 C.3       10 UNK        -0.1800 
     24 N          -1.5820  -18.3707  -45.2473 N.am      10 UNK        -0.5000 
     25 C          -1.1494  -17.4683  -44.3655 C.2       9 UNK         0.5000 
     26 O          -0.9082  -16.2880  -44.6376 O.2       9 UNK        -0.5000 
     27 CA         -0.9119  -18.0199  -42.9502 C.3       9 UNK         0.1400 
     28 CB          0.3931  -18.8238  -42.9026 C.3       9 UNK        -0.1800 
     29 N          -0.8424  -16.9599  -41.9506 N.am      9 UNK        -0.5000 
     30 C          -1.8925  -16.3894  -41.3536 C.2       8 UNK         0.5000 
     31 O          -3.0582  -16.7249  -41.5730 O.2       8 UNK        -0.5000 
     32 CA         -1.5815  -15.2795  -40.3208 C.3       8 UNK         0.1400 
     33 CB         -2.8425  -14.7800  -39.5920 C.3       8 UNK        -0.1800 
     34 N          -0.5876  -15.6700  -39.3147 N.am      8 UNK        -0.5000 
     35 C           0.7303  -15.8053  -39.5075 C.2       7 UNK         0.5000 
     36 O           1.2834  -15.6798  -40.6047 O.2       7 UNK        -0.5000 
     37 CA          1.5629  -16.1672  -38.2700 C.3       7 UNK         0.1400 
     38 CB          1.4674  -17.6712  -37.9668 C.3       7 UNK        -0.1800 
     39 N           2.9538  -15.8219  -38.5361 N.am      7 UNK        -0.5000 
     40 C           3.7508  -15.0891  -37.7517 C.2       6 UNK         0.5000 
     41 O           3.4291  -14.6897  -36.6316 O.2       6 UNK        -0.5000 
     42 CA          5.1474  -14.7408  -38.3066 C.3       6 UNK         0.1400 
     43 CB          6.2306  -15.5606  -37.5884 C.3       6 UNK        -0.1800 
     44 N           5.2685  -14.9729  -39.7473 N.am      6 UNK        -0.5000 
     45 C           4.7769  -14.1900  -40.7140 C.2       5 UNK         0.5000 
     46 O           4.1956  -13.1273  -40.4948 O.2       5 UNK        -0.5000 
     47 CA          4.9446  -14.6824  -42.1669 C.3       5 UNK         0.1400 
     48 CB          6.3537  -14.3690  -42.7035 C.3       5 UNK        -0.1800 
     49 N           4.5867  -16.0930  -42.3857 N.am      5 UNK        -0.5000 
     50 C           5.1676  -17.2037  -41.9049 C.2       4 UNK         0.5000 
     51 O           6.1614  -17.1977  -41.1779 O.2       4 UNK        -0.5000 
     52 CA          4.5221  -18.5496  -42.2638 C.3       4 UNK         0.1400 
     53 CB          3.4296  -18.9032  -41.2416 C.3       4 UNK        -0.1800 
     54 N           3.9924  -18.5630  -43.6296 N.am      4 UNK        -0.5000 
     55 C           3.9094  -19.6620  -44.3956 C.2       3 UNK         0.5000 
     56 O           4.1227  -20.8009  -43.9783 O.2       3 UNK        -0.5000 
     57 CA          3.5724  -19.4664  -45.8927 C.3       3 UNK         0.1400 
     58 CB          2.0728  -19.6876  -46.1510 C.3       3 UNK        -0.1800 
     59 N           3.9424  -18.1475  -46.4068 N.am      3 UNK        -0.5000 
     60 C           5.1738  -17.6198  -46.4095 C.2       2 UNK         0.5000 
     61 O           6.1897  -18.2692  -46.1594 O.2       2 UNK        -0.5000 
     62 CA          5.2982  -16.1048  -46.6892 C.3       2 UNK         0.1400 
     63 CB          6.0823  -15.8614  -47.9887 C.3       2 UNK        -0.1800 
     64 N           4.0427  -15.3413  -46.7565 N.am      2 UNK        -0.5000 
     65 C           3.0783  -15.2523  -45.8274 C.2       1 UNK         0.5000 
     66 O           3.0783  -15.8999  -44.7754 O.2       1 UNK        -0.5000 
     67 C          -2.1878  -21.4011  -49.7156 C.2       11 UNK         0.5000 
     68 O          -1.9920  -22.6004  -49.8840 O.2       11 UNK        -0.5000 
     69 N          -3.4073  -20.8627  -49.5602 N.am      12 UNK        -0.5000 
     70 CA         -4.6633  -21.6169  -49.5100 C.3       12 UNK         0.1400 
     71 CB         -5.8243  -20.6647  -49.8371 C.3       12 UNK        -0.1800 
     72 C          -4.9084  -22.3349  -48.1653 C.2       12 UNK         0.5000 
     73 O          -5.8648  -23.1047  -48.0694 O.2       12 UNK        -0.5000 
     74 N          -4.0690  -22.0716  -47.1535 N.am      13 UNK        -0.5000 
     75 CA         -4.0269  -22.8296  -45.9038 C.3       13 UNK         0.1400 
     76 CB         -3.8091  -21.8713  -44.7209 C.3       13 UNK        -0.1800 
     77 C          -2.9157  -23.8925  -45.9637 C.2       13 UNK         0.5000 
     78 O          -3.1261  -25.0138  -45.5002 O.2       13 UNK        -0.5000 
     79 N          -1.7571  -23.5263  -46.5335 N.am      14 UNK        -0.5000 
     80 CA         -0.5966  -24.4045  -46.7002 C.3       14 UNK         0.1400 
     81 CB          0.6283  -23.5496  -47.0591 C.3       14 UNK        -0.1800 
     82 C          -0.8111  -25.5133  -47.7505 C.2       14 UNK         0.5000 
     83 O          -0.3590  -26.6407  -47.5454 O.2       14 UNK        -0.5000 
     84 N          -1.4921  -25.1718  -48.8475 N.am      15 UNK        -0.5000 
     85 CA         -1.8594  -26.0457  -49.9574 C.3       15 UNK         0.1400 
     86 CB         -0.9526  -25.7227  -51.1614 C.3       15 UNK        -0.1800 
     87 C          -3.3526  -25.8479  -50.2814 C.2       15 UNK         0.5000 
     88 O          -4.0853  -25.2634  -49.4816 O.2       15 UNK        -0.5000 
     89 N          -3.7953  -26.3555  -51.4382 N.am      16 UNK        -0.5000 
     90 CA         -5.1560  -26.1770  -51.9456 C.3       16 UNK         0.1400 
     91 CB         -5.3839  -27.1553  -53.1086 C.3       16 UNK        -0.1800 
     92 C          -5.4017  -24.7321  -52.4167 C.2       16 UNK         0.5000 
     93 O          -4.4906  -24.1004  -52.9558 O.2       16 UNK        -0.5000 
     94 N          -6.6457  -24.2553  -52.2778 N.am      17 UNK        -0.5000 
     95 CA         -7.0744  -22.9233  -52.7199 C.3       17 UNK         0.1400 
     96 CB         -8.4924  -22.6440  -52.2040 C.3       17 UNK        -0.1800 
     97 C          -7.0026  -22.7259  -54.2473 C.2       17 UNK         0.5000 
     98 O          -6.7898  -21.6013  -54.7054 O.2       17 UNK        -0.5000 
     99 N          -7.1524  -23.8221  -55.0034 N.am      18 UNK        -0.5000 
    100 CA        -6.9879  -23.8600  -56.4563 C.3       18 UNK         0.1400 
    101 CB        -7.5949  -25.1616  -57.0011 C.3       18 UNK        -0.1800 
    102 C         -5.5136  -23.7296  -56.8817 C.2       18 UNK         0.5000 
    103 O         -5.2286  -23.0590  -57.8734 O.2       18 UNK        -0.5000 
    104 N         -4.6035  -24.3424  -56.1094 N.am      19 UNK        -0.5000 
    105 CA        -3.1532  -24.2539  -56.3039 C.3       19 UNK         0.1400 
    106 CB        -2.4572  -25.3739  -55.5139 C.3       19 UNK        -0.1800 
    107 C         -2.6078  -22.8736  -55.8965 C.2       19 UNK         0.5000 
    108 O         -1.7192  -22.3427  -56.5631 O.2       19 UNK        -0.5000 
    109 N         -3.1877  -22.3051  -54.8313 N.am      20 UNK        -0.5000 
    110 CA        -2.9496  -20.9434  -54.3527 C.3       20 UNK         0.1400 
    111 CB        -3.6575  -20.7911  -53.0010 C.3       20 UNK        -0.1800 
    112 C         -3.4553  -19.8540  -55.3181 C.2       20 UNK         0.5000 
    113 O         -2.9681  -18.7255  -55.2580 O.2       20 UNK        -0.5000 
    114 N         -4.4369  -20.2151  -56.1587 N.am      21 UNK        -0.5000 
    115 CA        -5.1987  -19.3628  -57.0760 C.3       21 UNK         0.1400 
    116 CB        -4.2858  -18.7331  -58.1488 C.3       21 UNK        -0.1800 
    117 C         -6.0801  -18.3310  -56.3386 C.2       21 UNK         0.5000 
    118 O         -6.3515  -17.2560  -56.8773 O.2       21 UNK        -0.5000 
    119 N         -6.5236  -18.6911  -55.1280 N.am      22 UNK        -0.5000 
    120 CA        -7.4286  -17.8998  -54.2786 C.3       22 UNK         0.1400 
    121 C         -8.8697  -18.4834  -54.2305 C.2       22 UNK         0.5000 
    122 N         -9.1161  -19.6998  -54.7042 N.am      22 UNK        -0.7600 
    123 O         -9.7880  -17.8115  -53.7689 O.2       22 UNK        -0.5000 
    124 C124       -6.8674  -17.7213  -52.8441 C.3       23 UNK        -0.0398 
    125 S125       -5.2638  -16.8506  -52.8077 S.3       23 UNK        -0.2404 
    126 C126       -4.8598  -16.9862  -51.0361 C.3       23 UNK        -0.0205 
    127 H127       -0.4805  -13.9029  -43.0070 H         1 UNK         0.0600 
    128 H128       -0.1342  -12.1834  -42.8003 H         1 UNK         0.0600 
    129 H129        0.8340  -13.3853  -41.9390 H         1 UNK         0.0600 
    130 H130        0.2810  -14.7579  -44.8986 H         1 UNK         0.3000 
    131 H131        2.3495  -13.3534  -46.4568 H         1 UNK         0.0600 
    132 H132        1.7629  -15.1150  -48.2018 H         1 UNK         0.0800 
    133 H133        0.5497  -15.7394  -47.1138 H         1 UNK         0.0800 
    134 H134       -1.7699  -15.0116  -47.1546 H         1 UNK         0.0800 
    135 H135       -2.4220  -13.6926  -48.0848 H         1 UNK         0.0800 
    136 H136       -3.9925  -15.2998  -49.0771 H         1 UNK         0.1150 
    137 H137       -2.5484  -17.7710  -52.2620 H         1 UNK         0.1150 
    138 H138        0.2267  -15.7158  -49.7635 H         1 UNK         0.1150 
    139 H139       -0.2005  -17.7209  -52.8520 H         1 UNK         0.0800 
    140 H140        0.8851  -16.6416  -52.0168 H         1 UNK         0.0800 
    141 H141       -0.1141  -20.9229  -51.5471 H         1 UNK         0.0800 
    142 H142       -1.2979  -19.6581  -51.6268 H         1 UNK         0.0800 
    143 H143       -0.1731  -21.0085  -49.1376 H         1 UNK         0.0600 
    144 H144       -1.2472  -18.3879  -49.1635 H         1 UNK         0.3000 
    145 H145       -1.2306  -17.3349  -47.0406 H         1 UNK         0.0600 
    146 H146       -3.5803  -16.8387  -46.3769 H         1 UNK         0.0600 
    147 H147       -3.6252  -17.7495  -47.8792 H         1 UNK         0.0600 
    148 H148       -3.9826  -18.5544  -46.3626 H         1 UNK         0.0600 
    149 H149       -1.6709  -19.3399  -44.9708 H         1 UNK         0.3000 
    150 H150       -1.7370  -18.6897  -42.6981 H         1 UNK         0.0600 
    151 H151        1.2468  -18.2042  -43.1773 H         1 UNK         0.0600 
    152 H152        0.3646  -19.6720  -43.5872 H         1 UNK         0.0600 
    153 H153        0.5668  -19.2252  -41.9045 H         1 UNK         0.0600 
    154 H154        0.0793  -16.5976  -41.7234 H         1 UNK         0.3000 
    155 H155       -1.1792  -14.4328  -40.8753 H         1 UNK         0.0600 
    156 H156       -3.3083  -15.5724  -39.0050 H         1 UNK         0.0600 
    157 H157       -3.5866  -14.4131  -40.3002 H         1 UNK         0.0600 
    158 H158       -2.6086  -13.9557  -38.9180 H         1 UNK         0.0600 
    159 H159       -0.9535  -15.8382  -38.3887 H         1 UNK         0.3000 
    160 H160        1.1805  -15.5986  -37.4198 H         1 UNK         0.0600 
    161 H161        1.7956  -18.2762  -38.8123 H         1 UNK         0.0600 
    162 H162        0.4420  -17.9611  -37.7350 H         1 UNK         0.0600 
    163 H163        2.0820  -17.9379  -37.1069 H         1 UNK         0.0600 
    164 H164        3.2642  -16.0197  -39.4772 H         1 UNK         0.3000 
    165 H165        5.3270  -13.6825  -38.1068 H         1 UNK         0.0600 
    166 H166        6.1974  -15.3962  -36.5105 H         1 UNK         0.0600 
    167 H167        6.1055  -16.6302  -37.7625 H         1 UNK         0.0600 
    168 H168        7.2276  -15.2798  -37.9283 H         1 UNK         0.0600 
    169 H169        5.7345  -15.8293  -40.0394 H         1 UNK         0.3000 
    170 H170        4.2362  -14.1105  -42.7685 H         1 UNK         0.0600 
    171 H171        6.5693  -13.3028  -42.6258 H         1 UNK         0.0600 
    172 H172        7.1304  -14.8982  -42.1511 H         1 UNK         0.0600 
    173 H173        6.4441  -14.6419  -43.7542 H         1 UNK         0.0600 
    174 H174        3.7701  -16.1998  -42.9787 H         1 UNK         0.3000 
    175 H175        5.3123  -19.3005  -42.1929 H         1 UNK         0.0600 
    176 H176        2.9671  -19.8640  -41.4669 H         1 UNK         0.0600 
    177 H177        3.8481  -18.9735  -40.2369 H         1 UNK         0.0600 
    178 H178        2.6476  -18.1446  -41.2141 H         1 UNK         0.0600 
    179 H179        3.8064  -17.6639  -44.0606 H         1 UNK         0.3000 
    180 H180        4.1343  -20.2156  -46.4538 H         1 UNK         0.0600 
    181 H181        1.4682  -18.8955  -45.7090 H         1 UNK         0.0600 
    182 H182        1.7346  -20.6337  -45.7276 H         1 UNK         0.0600 
    183 H183        1.8559  -19.7155  -47.2193 H         1 UNK         0.0600 
    184 H184        3.1779  -17.5244  -46.6155 H         1 UNK         0.3000 
    185 H185        5.8772  -15.6891  -45.8632 H         1 UNK         0.0600 
    186 H186        6.2827  -14.8001  -48.1374 H         1 UNK         0.0600 
    187 H187        7.0474  -16.3695  -47.9694 H         1 UNK         0.0600 
    188 H188        5.5367  -16.2268  -48.8597 H         1 UNK         0.0600 
    189 H189        3.9440  -14.7772  -47.5883 H         1 UNK         0.3000 
    190 H190       -3.4749  -19.8674  -49.4132 H         1 UNK         0.3000 
    191 H191       -4.6331  -22.3918  -50.2793 H         1 UNK         0.0600 
    192 H192       -5.7156  -20.2468  -50.8363 H         1 UNK         0.0600 
    193 H193       -6.7815  -21.1870  -49.8124 H         1 UNK         0.0600 
    194 H194       -5.8826  -19.8402  -49.1256 H         1 UNK         0.0600 
    195 H195       -3.3114  -21.4179  -47.3021 H         1 UNK         0.3000 
    196 H196       -4.9759  -23.3447  -45.7406 H         1 UNK         0.0600 
    197 H197       -3.8596  -22.4104  -43.7743 H         1 UNK         0.0600 
    198 H198       -4.5752  -21.0963  -44.6951 H         1 UNK         0.0600 
    199 H199       -2.8372  -21.3808  -44.7615 H         1 UNK         0.0600 
    200 H200       -1.6438  -22.5649  -46.8315 H         1 UNK         0.3000 
    201 H201       -0.4004  -24.8895  -45.7416 H         1 UNK         0.0600 
    202 H202        1.5232  -24.1668  -47.1468 H         1 UNK         0.0600 
    203 H203        0.4927  -23.0314  -48.0086 H         1 UNK         0.0600 
    204 H204        0.8232  -22.8009  -46.2918 H         1 UNK         0.0600 
    205 H205       -1.8368  -24.2195  -48.9417 H         1 UNK         0.3000 
    206 H206       -1.7241  -27.0916  -49.6757 H         1 UNK         0.0600 
    207 H207        0.1006  -25.7773  -50.8854 H         1 UNK         0.0600 
    208 H208       -1.1043  -26.4277  -51.9790 H         1 UNK         0.0600 
    209 H209       -1.1433  -24.7205  -51.5482 H         1 UNK         0.0600 
    210 H210       -3.1378  -26.8012  -52.0601 H         1 UNK         0.3000 
    211 H211       -5.8606  -26.4132  -51.1453 H         1 UNK         0.0600 
    212 H212       -4.6950  -26.9709  -53.9338 H         1 UNK         0.0600 
    213 H213       -6.3979  -27.0704  -53.5016 H         1 UNK         0.0600 
    214 H214       -5.2494  -28.1879  -52.7858 H         1 UNK         0.0600 
    215 H215       -7.3482  -24.8312  -51.8360 H         1 UNK         0.3000 
    216 H216       -6.4033  -22.1943  -52.2661 H         1 UNK         0.0600 
    217 H217       -8.8165  -21.6389  -52.4773 H         1 UNK         0.0600 
    218 H218       -8.5370  -22.7119  -51.1168 H         1 UNK         0.0600 
    219 H219       -9.2175  -23.3472  -52.6155 H         1 UNK         0.0600 
    220 H220       -7.3512  -24.6976  -54.5432 H         1 UNK         0.3000 
    221 H221       -7.5368  -23.0201  -56.8881 H         1 UNK         0.0600 
    222 H222       -7.0999  -26.0423  -56.5897 H         1 UNK         0.0600 
    223 H223       -8.6564  -25.2309  -56.7629 H         1 UNK         0.0600 
    224 H224       -7.5028  -25.2102  -58.0870 H         1 UNK         0.0600 
    225 H225       -4.9174  -24.8303  -55.2843 H         1 UNK         0.3000 
    226 H226       -2.9373  -24.4011  -57.3643 H         1 UNK         0.0600 
    227 H227       -1.3801  -25.3562  -55.6839 H         1 UNK         0.0600 
    228 H228       -2.6182  -25.2766  -54.4400 H         1 UNK         0.0600 
    229 H229       -2.8178  -26.3558  -55.8203 H         1 UNK         0.0600 
    230 H230       -3.8367  -22.8665  -54.2870 H         1 UNK         0.3000 
    231 H231       -1.8754  -20.8089  -54.2109 H         1 UNK         0.0600 
    232 H232       -4.7392  -20.8396  -53.1109 H         1 UNK         0.0600 
    233 H233       -3.4315  -19.8340  -52.5353 H         1 UNK         0.0600 
    234 H234       -3.3569  -21.5811  -52.3154 H         1 UNK         0.0600 
    235 H235       -4.7637  -21.1692  -56.0942 H         1 UNK         0.3000 
    236 H236       -5.8912  -20.0303  -57.5907 H         1 UNK         0.0600 
    237 H237       -3.6727  -19.4905  -58.6373 H         1 UNK         0.0600 
    238 H238       -4.8758  -18.2444  -58.9247 H         1 UNK         0.0600 
    239 H239       -3.6191  -17.9814  -57.7259 H         1 UNK         0.0600 
    240 H240       -6.2999  -19.6223  -54.7971 H         1 UNK         0.3000 
    241 H241       -7.5384  -16.9006  -54.7038 H         1 UNK         0.0600 
    242 H242       -8.3627  -20.2852  -55.0400 H         1 UNK         0.3800 
    243 H243      -10.0581  -20.0564  -54.6817 H         1 UNK         0.3800 
    244 H244       -7.5655  -17.1529  -52.2267 H         1 UNK         0.0800 
    245 H245       -6.7521  -18.6943  -52.3651 H         1 UNK         0.0800 
    246 H246       -4.9953  -18.0170  -50.7138 H         1 UNK         0.0800 
    247 H247       -5.5729  -16.3858  -50.4690 H         1 UNK         0.0800 
@<TRIPOS>BOND
     1    1    2 1    
     2    1  127 1    
     3    1  128 1    
     4    1  129 1    
     5    2    3 2    
     6    2    4 am   BACKBONE|DICT|INTERRES
     7    4    5 1    
     8    4  130 1    
     9    5    6 1    
    10    5   65 1    
    11    5  131 1    
    12    6    7 1    
    13    6  132 1    
    14    6  133 1    
    15    7    8 1    
    16    8    9 1    
    17    8  134 1    
    18    8  135 1    
    19    9   10 ar   
    20    9   14 ar   
    21   10   11 ar   
    22   10  136 1    
    23   11   12 ar   
    24   11  126 1    
    25   12   13 ar   
    26   12  137 1    
    27   13   14 ar   
    28   13   15 1    
    29   14  138 1    
    30   15   16 1    
    31   15  139 1    
    32   15  140 1    
    33   16   17 1    
    34   17   18 1    
    35   17  141 1    
    36   17  142 1    
    37   18   19 1    
    38   18   67 1    
    39   18  143 1    
    40   19   20 am   BACKBONE|DICT|INTERRES
    41   19  144 1    
    42   20   21 2    
    43   20   22 1    
    44   22   23 1    
    45   22   24 1    
    46   22  145 1    
    47   23  146 1    
    48   23  147 1    
    49   23  148 1    
    50   24   25 am   BACKBONE|DICT|INTERRES
    51   24  149 1    
    52   25   26 2    
    53   25   27 1    
    54   27   28 1    
    55   27   29 1    
    56   27  150 1    
    57   28  151 1    
    58   28  152 1    
    59   28  153 1    
    60   29   30 am   BACKBONE|DICT|INTERRES
    61   29  154 1    
    62   30   31 2    
    63   30   32 1    
    64   32   33 1    
    65   32   34 1    
    66   32  155 1    
    67   33  156 1    
    68   33  157 1    
    69   33  158 1    
    70   34   35 am   BACKBONE|DICT|INTERRES
    71   34  159 1    
    72   35   36 2    
    73   35   37 1    
    74   37   38 1    
    75   37   39 1    
    76   37  160 1    
    77   38  161 1    
    78   38  162 1    
    79   38  163 1    
    80   39   40 am   BACKBONE|DICT|INTERRES
    81   39  164 1    
    82   40   41 2    
    83   40   42 1    
    84   42   43 1    
    85   42   44 1    
    86   42  165 1    
    87   43  166 1    
    88   43  167 1    
    89   43  168 1    
    90   44   45 am   BACKBONE|DICT|INTERRES
    91   44  169 1    
    92   45   46 2    
    93   45   47 1    
    94   47   48 1    
    95   47   49 1    
    96   47  170 1    
    97   48  171 1    
    98   48  172 1    
    99   48  173 1    
   100   49   50 am   BACKBONE|DICT|INTERRES
   101   49  174 1    
   102   50   51 2    
   103   50   52 1    
   104   52   53 1    
   105   52   54 1    
   106   52  175 1    
   107   53  176 1    
   108   53  177 1    
   109   53  178 1    
   110   54   55 am   BACKBONE|DICT|INTERRES
   111   54  179 1    
   112   55   56 2    
   113   55   57 1    
   114   57   58 1    
   115   57   59 1    
   116   57  180 1    
   117   58  181 1    
   118   58  182 1    
   119   58  183 1    
   120   59   60 am   BACKBONE|DICT|INTERRES
   121   59  184 1    
   122   60   61 2    
   123   60   62 1    
   124   62   63 1    
   125   62   64 1    
   126   62  185 1    
   127   63  186 1    
   128   63  187 1    
   129   63  188 1    
   130   64   65 am   BACKBONE|DICT|INTERRES
   131   64  189 1    
   132   65   66 2    
   133   67   68 2    
   134   67   69 am   BACKBONE|DICT|INTERRES
   135   69   70 1    
   136   69  190 1    
   137   70   71 1    
   138   70   72 1    
   139   70  191 1    
   140   71  192 1    
   141   71  193 1    
   142   71  194 1    
   143   72   73 2    
   144   72   74 am   BACKBONE|DICT|INTERRES
   145   74   75 1    
   146   74  195 1    
   147   75   76 1    
   148   75   77 1    
   149   75  196 1    
   150   76  197 1    
   151   76  198 1    
   152   76  199 1    
   153   77   78 2    
   154   77   79 am   BACKBONE|DICT|INTERRES
   155   79   80 1    
   156   79  200 1    
   157   80   81 1    
   158   80   82 1    
   159   80  201 1    
   160   81  202 1    
   161   81  203 1    
   162   81  204 1    
   163   82   83 2    
   164   82   84 am   BACKBONE|DICT|INTERRES
   165   84   85 1    
   166   84  205 1    
   167   85   86 1    
   168   85   87 1    
   169   85  206 1    
   170   86  207 1    
   171   86  208 1    
   172   86  209 1    
   173   87   88 2    
   174   87   89 am   BACKBONE|DICT|INTERRES
   175   89   90 1    
   176   89  210 1    
   177   90   91 1    
   178   90   92 1    
   179   90  211 1    
   180   91  212 1    
   181   91  213 1    
   182   91  214 1    
   183   92   93 2    
   184   92   94 am   BACKBONE|DICT|INTERRES
   185   94   95 1    
   186   94  215 1    
   187   95   96 1    
   188   95   97 1    
   189   95  216 1    
   190   96  217 1    
   191   96  218 1    
   192   96  219 1    
   193   97   98 2    
   194   97   99 am   BACKBONE|DICT|INTERRES
   195   99  100 1    
   196   99  220 1    
   197  100  101 1    
   198  100  102 1    
   199  100  221 1    
   200  101  222 1    
   201  101  223 1    
   202  101  224 1    
   203  102  103 2    
   204  102  104 am   BACKBONE|DICT|INTERRES
   205  104  105 1    
   206  104  225 1    
   207  105  106 1    
   208  105  107 1    
   209  105  226 1    
   210  106  227 1    
   211  106  228 1    
   212  106  229 1    
   213  107  108 2    
   214  107  109 am   BACKBONE|DICT|INTERRES
   215  109  110 1    
   216  109  230 1    
   217  110  111 1    
   218  110  112 1    
   219  110  231 1    
   220  111  232 1    
   221  111  233 1    
   222  111  234 1    
   223  112  113 2    
   224  112  114 am   BACKBONE|DICT|INTERRES
   225  114  115 1    
   226  114  235 1    
   227  115  116 1    
   228  115  117 1    
   229  115  236 1    
   230  116  237 1    
   231  116  238 1    
   232  116  239 1    
   233  117  118 2    
   234  117  119 am   BACKBONE|DICT|INTERRES
   235  119  120 1    
   236  119  240 1    
   237  120  121 1    
   238  120  124 1    
   239  120  241 1    
   240  121  122 am   BACKBONE|DICT|INTERRES
   241  121  123 2    
   242  122  242 1    
   243  122  243 1    
   244  124  125 1    
   245  124  244 1    
   246  124  245 1    
   247  125  126 1    
   248  126  246 1    
   249  126  247 1    
@<TRIPOS>SUBSTRUCTURE
     1 UNK         1 GROUP             0       ****    0 ROOT    
