@<TRIPOS>MOLECULE
3R540
247   249    1
SMALL
USER_CHARGES


@<TRIPOS>ATOM
      1 CA          1.5343  -11.4555  -46.9240 C.3       0 UNK        -0.1800 
      2 C           1.9034  -12.8876  -47.2787 C.2       0 UNK         0.5000 
      3 O           1.1945  -13.8133  -46.8899 O.2       0 UNK        -0.5000 
      4 N           3.0152  -13.0808  -47.9997 N.am      1 UNK        -0.5000 
      5 CA          3.5619  -14.3584  -48.4925 C.3       1 UNK         0.1400 
      6 C6          2.5785  -15.1954  -49.3541 C.3       23 UNK        -0.0398 
      7 S7          1.8598  -14.2584  -50.7521 S.3       23 UNK        -0.2404 
      8 C8          0.0732  -14.2996  -50.3605 C.3       23 UNK        -0.0205 
      9 C9         -0.6603  -15.5240  -50.9083 C.ar      23 UNK        -0.0193 
     10 C10        -1.9308  -15.3767  -51.4715 C.ar      23 UNK        -0.1150 
     11 C11        -2.6292  -16.4838  -51.9630 C.ar      23 UNK        -0.0193 
     12 C12        -2.0494  -17.7540  -51.8802 C.ar      23 UNK        -0.1150 
     13 C13        -0.7884  -17.9287  -51.3017 C.ar      23 UNK        -0.0193 
     14 C14        -0.1019  -16.8028  -50.8320 C.ar      23 UNK        -0.1150 
     15 C15        -0.2018  -19.3414  -51.2123 C.3       23 UNK        -0.0205 
     16 S16         1.2080  -19.5473  -50.0597 S.3       23 UNK        -0.2404 
     17 C17         0.4262  -19.1447  -48.4572 C.3       23 UNK        -0.0398 
     18 CA          0.2708  -20.3606  -47.5169 C.3       11 UNK         0.1400 
     19 N          -0.1723  -19.9479  -46.1835 N.am      11 UNK        -0.5000 
     20 C          -0.3019  -20.7675  -45.1312 C.2       10 UNK         0.5000 
     21 O           0.0158  -21.9552  -45.1389 O.2       10 UNK        -0.5000 
     22 CA         -0.9581  -20.1747  -43.8769 C.3       10 UNK         0.1400 
     23 CB          0.0695  -19.4149  -43.0265 C.3       10 UNK        -0.1800 
     24 N          -2.0929  -19.3128  -44.2159 N.am      10 UNK        -0.5000 
     25 C          -3.2518  -19.7724  -44.7124 C.2       9 UNK         0.5000 
     26 O          -3.4981  -20.9680  -44.8699 O.2       9 UNK        -0.5000 
     27 CA         -4.2926  -18.7271  -45.1512 C.3       9 UNK         0.1400 
     28 CB         -5.1757  -18.3047  -43.9685 C.3       9 UNK        -0.1800 
     29 N          -3.6768  -17.5477  -45.7602 N.am      9 UNK        -0.5000 
     30 C          -3.0895  -17.5520  -46.9667 C.2       8 UNK         0.5000 
     31 O          -3.0331  -18.5453  -47.6903 O.2       8 UNK        -0.5000 
     32 CA         -2.4022  -16.2501  -47.4231 C.3       8 UNK         0.1400 
     33 CB         -3.3838  -15.3620  -48.1967 C.3       8 UNK        -0.1800 
     34 N          -1.8232  -15.4751  -46.3265 N.am      8 UNK        -0.5000 
     35 C          -0.8820  -15.9196  -45.4851 C.2       7 UNK         0.5000 
     36 O          -0.4033  -17.0542  -45.5471 O.2       7 UNK        -0.5000 
     37 CA         -0.4112  -14.9582  -44.3745 C.3       7 UNK         0.1400 
     38 CB         -1.0644  -13.5565  -44.4134 C.3       7 UNK        -0.1800 
     39 N          -0.5533  -15.5474  -43.0411 N.am      7 UNK        -0.5000 
     40 C          -1.6936  -15.9544  -42.4642 C.2       6 UNK         0.5000 
     41 O          -2.7801  -15.9409  -43.0453 O.2       6 UNK        -0.5000 
     42 CA         -1.6257  -16.4647  -41.0061 C.3       6 UNK         0.1400 
     43 CB         -2.6225  -17.6111  -40.7531 C.3       6 UNK        -0.1800 
     44 N          -0.2889  -16.8967  -40.5849 N.am      6 UNK        -0.5000 
     45 C           0.6889  -16.0963  -40.1429 C.2       5 UNK         0.5000 
     46 O           0.5683  -14.8725  -40.0621 O.2       5 UNK        -0.5000 
     47 CA          2.0146  -16.7666  -39.7261 C.3       5 UNK         0.1400 
     48 CB          2.2341  -18.1545  -40.3618 C.3       5 UNK        -0.1800 
     49 N           3.1224  -15.9032  -40.1171 N.am      5 UNK        -0.5000 
     50 C           3.9668  -15.2743  -39.2903 C.2       4 UNK         0.5000 
     51 O           3.9565  -15.4102  -38.0659 O.2       4 UNK        -0.5000 
     52 CA          5.0092  -14.3352  -39.9358 C.3       4 UNK         0.1400 
     53 CB          6.3840  -15.0192  -39.9950 C.3       4 UNK        -0.1800 
     54 N           4.6384  -13.9073  -41.2866 N.am      4 UNK        -0.5000 
     55 C           3.6568  -13.0409  -41.5716 C.2       3 UNK         0.5000 
     56 O           3.0459  -12.4002  -40.7161 O.2       3 UNK        -0.5000 
     57 CA          3.2806  -12.8654  -43.0575 C.3       3 UNK         0.1400 
     58 CB          3.8275  -11.5336  -43.5945 C.3       3 UNK        -0.1800 
     59 N           3.7240  -13.9451  -43.9478 N.am      3 UNK        -0.5000 
     60 C           3.3472  -15.2305  -43.8847 C.2       2 UNK         0.5000 
     61 O           2.6406  -15.6898  -42.9857 O.2       2 UNK        -0.5000 
     62 CA          3.7972  -16.1136  -45.0602 C.3       2 UNK         0.1400 
     63 CB          3.1905  -17.5283  -45.0236 C.3       2 UNK        -0.1800 
     64 N           3.4073  -15.4441  -46.2980 N.am      2 UNK        -0.5000 
     65 C           4.1772  -15.2203  -47.3665 C.2       1 UNK         0.5000 
     66 O           5.3324  -15.6322  -47.4756 O.2       1 UNK        -0.5000 
     67 C          -0.6585  -21.4421  -48.1088 C.2       11 UNK         0.5000 
     68 O          -0.1721  -22.4898  -48.5356 O.2       11 UNK        -0.5000 
     69 N          -1.9763  -21.1917  -48.0761 N.am      12 UNK        -0.5000 
     70 CA         -3.0088  -22.1230  -48.5284 C.3       12 UNK         0.1400 
     71 CB         -4.3886  -21.4542  -48.4455 C.3       12 UNK        -0.1800 
     72 C          -2.9928  -23.4610  -47.7686 C.2       12 UNK         0.5000 
     73 O          -3.0751  -24.5125  -48.4025 O.2       12 UNK        -0.5000 
     74 N          -2.8418  -23.4004  -46.4381 N.am      13 UNK        -0.5000 
     75 CA         -2.7184  -24.5684  -45.5660 C.3       13 UNK         0.1400 
     76 CB         -2.7964  -24.1263  -44.0969 C.3       13 UNK        -0.1800 
     77 C          -1.4358  -25.3810  -45.8241 C.2       13 UNK         0.5000 
     78 O          -1.5042  -26.6089  -45.8821 O.2       13 UNK        -0.5000 
     79 N          -0.2993  -24.6890  -45.9893 N.am      14 UNK        -0.5000 
     80 CA          1.0088  -25.2883  -46.2608 C.3       14 UNK         0.1400 
     81 CB          2.1062  -24.2231  -46.1148 C.3       14 UNK        -0.1800 
     82 C           1.0853  -25.9586  -47.6433 C.2       14 UNK         0.5000 
     83 O           1.6213  -27.0621  -47.7544 O.2       14 UNK        -0.5000 
     84 N           0.5365  -25.2904  -48.6667 N.am      15 UNK        -0.5000 
     85 CA          0.4511  -25.8030  -50.0351 C.3       15 UNK         0.1400 
     86 CB          0.1547  -24.6343  -50.9858 C.3       15 UNK        -0.1800 
     87 C          -0.6070  -26.9105  -50.2010 C.2       15 UNK         0.5000 
     88 O          -0.5005  -27.7092  -51.1322 O.2       15 UNK        -0.5000 
     89 N          -1.6202  -26.9169  -49.3223 N.am      16 UNK        -0.5000 
     90 CA         -2.7854  -27.8071  -49.2342 C.3       16 UNK         0.1400 
     91 CB         -2.3687  -29.2805  -49.0680 C.3       16 UNK        -0.1800 
     92 C          -3.7920  -27.6257  -50.3863 C.2       16 UNK         0.5000 
     93 O          -4.9877  -27.4780  -50.1325 O.2       16 UNK        -0.5000 
     94 N          -3.2912  -27.6066  -51.6265 N.am      17 UNK        -0.5000 
     95 CA         -4.0437  -27.2887  -52.8410 C.3       17 UNK         0.1400 
     96 CB         -3.3104  -27.9027  -54.0438 C.3       17 UNK        -0.1800 
     97 C          -4.2327  -25.7705  -53.0432 C.2       17 UNK         0.5000 
     98 O          -5.0684  -25.3735  -53.8564 O.2       17 UNK        -0.5000 
     99 N          -3.4526  -24.9621  -52.3084 N.am      18 UNK        -0.5000 
    100 CA        -3.3716  -23.5002  -52.3647 C.3       18 UNK         0.1400 
    101 CB        -4.6967  -22.8608  -51.9001 C.3       18 UNK        -0.1800 
    102 C         -2.8664  -22.9793  -53.7274 C.2       18 UNK         0.5000 
    103 O         -2.1814  -23.7086  -54.4491 O.2       18 UNK        -0.5000 
    104 N         -3.1684  -21.7154  -54.0370 N.am      19 UNK        -0.5000 
    105 CA        -2.7871  -21.0296  -55.2643 C.3       19 UNK         0.1400 
    106 CB        -1.3361  -20.5260  -55.1572 C.3       19 UNK        -0.1800 
    107 C         -3.7498  -19.8576  -55.4810 C.2       19 UNK         0.5000 
    108 O         -4.2732  -19.3154  -54.5035 O.2       19 UNK        -0.5000 
    109 N         -3.9370  -19.4768  -56.7519 N.am      20 UNK        -0.5000 
    110 CA        -4.7443  -18.3467  -57.2234 C.3       20 UNK         0.1400 
    111 CB        -3.9994  -17.0223  -56.9377 C.3       20 UNK        -0.1800 
    112 C         -6.1946  -18.3839  -56.6877 C.2       20 UNK         0.5000 
    113 O         -6.8183  -19.4478  -56.6927 O.2       20 UNK        -0.5000 
    114 N         -6.7024  -17.2353  -56.2233 N.am      21 UNK        -0.5000 
    115 CA        -8.0315  -17.0781  -55.6290 C.3       21 UNK         0.1400 
    116 CB        -8.3694  -15.5795  -55.5795 C.3       21 UNK        -0.1800 
    117 C         -8.1669  -17.7065  -54.2261 C.2       21 UNK         0.5000 
    118 O         -9.2917  -17.8680  -53.7503 O.2       21 UNK        -0.5000 
    119 N         -7.0383  -18.0379  -53.5853 N.am      22 UNK        -0.5000 
    120 CA        -6.9823  -18.6513  -52.2485 C.3       22 UNK         0.1400 
    121 C         -7.2473  -20.1848  -52.2487 C.2       22 UNK         0.5000 
    122 N         -7.3064  -20.8521  -53.3959 N.am      22 UNK        -0.7600 
    123 O         -7.4167  -20.7770  -51.1871 O.2       22 UNK        -0.5000 
    124 C124       -5.6621  -18.3147  -51.5065 C.3       23 UNK        -0.0398 
    125 S125       -5.3525  -16.5165  -51.4018 S.3       23 UNK        -0.2404 
    126 C126       -3.9987  -16.2929  -52.5995 C.3       23 UNK        -0.0205 
    127 H127        2.3328  -10.7570  -47.1748 H         1 UNK         0.0600 
    128 H128        1.3321  -11.3740  -45.8561 H         1 UNK         0.0600 
    129 H129        0.6356  -11.1587  -47.4642 H         1 UNK         0.0600 
    130 H130        3.5563  -12.2701  -48.2662 H         1 UNK         0.3000 
    131 H131        4.3908  -14.0758  -49.1438 H         1 UNK         0.0600 
    132 H132        3.0967  -16.0597  -49.7736 H         1 UNK         0.0800 
    133 H133        1.7786  -15.6018  -48.7335 H         1 UNK         0.0800 
    134 H134       -0.0792  -14.2456  -49.2821 H         1 UNK         0.0800 
    135 H135       -0.3702  -13.3920  -50.7724 H         1 UNK         0.0800 
    136 H136       -2.3812  -14.3957  -51.5292 H         1 UNK         0.1150 
    137 H137       -2.5797  -18.6111  -52.2690 H         1 UNK         0.1150 
    138 H138        0.8776  -16.9202  -50.4027 H         1 UNK         0.1150 
    139 H139       -0.9870  -20.0428  -50.9254 H         1 UNK         0.0800 
    140 H140        0.1282  -19.6387  -52.2082 H         1 UNK         0.0800 
    141 H141       -0.5393  -18.6680  -48.6238 H         1 UNK         0.0800 
    142 H142        1.0482  -18.3886  -47.9754 H         1 UNK         0.0800 
    143 H143        1.2567  -20.8139  -47.3928 H         1 UNK         0.0600 
    144 H144       -0.4192  -18.9703  -46.0618 H         1 UNK         0.3000 
    145 H145       -1.3294  -21.0099  -43.2791 H         1 UNK         0.0600 
    146 H146        0.9770  -20.0046  -42.8894 H         1 UNK         0.0600 
    147 H147        0.3621  -18.4669  -43.4769 H         1 UNK         0.0600 
    148 H148       -0.3278  -19.2149  -42.0347 H         1 UNK         0.0600 
    149 H149       -1.9384  -18.3146  -44.1893 H         1 UNK         0.3000 
    150 H150       -4.9378  -19.1947  -45.8978 H         1 UNK         0.0600 
    151 H151       -5.9378  -17.5902  -44.2796 H         1 UNK         0.0600 
    152 H152       -4.5929  -17.8475  -43.1697 H         1 UNK         0.0600 
    153 H153       -5.6918  -19.1661  -43.5427 H         1 UNK         0.0600 
    154 H154       -3.6364  -16.7089  -45.1958 H         1 UNK         0.3000 
    155 H155       -1.5888  -16.5250  -48.0971 H         1 UNK         0.0600 
    156 H156       -3.8120  -15.9079  -49.0361 H         1 UNK         0.0600 
    157 H157       -2.8856  -14.4822  -48.6043 H         1 UNK         0.0600 
    158 H158       -4.2083  -15.0248  -47.5676 H         1 UNK         0.0600 
    159 H159       -2.1682  -14.5347  -46.2047 H         1 UNK         0.3000 
    160 H160        0.6541  -14.8193  -44.5380 H         1 UNK         0.0600 
    161 H161       -0.8911  -13.0614  -45.3692 H         1 UNK         0.0600 
    162 H162       -0.6390  -12.9124  -43.6438 H         1 UNK         0.0600 
    163 H163       -2.1417  -13.5960  -44.2497 H         1 UNK         0.0600 
    164 H164        0.3072  -15.6354  -42.5165 H         1 UNK         0.3000 
    165 H165       -1.9298  -15.6275  -40.3747 H         1 UNK         0.0600 
    166 H166       -2.5561  -17.9744  -39.7275 H         1 UNK         0.0600 
    167 H167       -3.6492  -17.2762  -40.9054 H         1 UNK         0.0600 
    168 H168       -2.4542  -18.4554  -41.4209 H         1 UNK         0.0600 
    169 H169       -0.1057  -17.8876  -40.6335 H         1 UNK         0.3000 
    170 H170        1.9824  -16.8860  -38.6416 H         1 UNK         0.0600 
    171 H171        3.2039  -18.5622  -40.0761 H         1 UNK         0.0600 
    172 H172        1.4824  -18.8729  -40.0337 H         1 UNK         0.0600 
    173 H173        2.2080  -18.1064  -41.4514 H         1 UNK         0.0600 
    174 H174        3.1578  -15.6855  -41.1083 H         1 UNK         0.3000 
    175 H175        5.0934  -13.4499  -39.3021 H         1 UNK         0.0600 
    176 H176        6.3629  -15.9112  -40.6224 H         1 UNK         0.0600 
    177 H177        7.1436  -14.3456  -40.3922 H         1 UNK         0.0600 
    178 H178        6.7112  -15.3254  -39.0004 H         1 UNK         0.0600 
    179 H179        5.0987  -14.3744  -42.0536 H         1 UNK         0.3000 
    180 H180        2.1901  -12.8318  -43.1075 H         1 UNK         0.0600 
    181 H181        3.5072  -11.3564  -44.6207 H         1 UNK         0.0600 
    182 H182        4.9178  -11.5118  -43.5754 H         1 UNK         0.0600 
    183 H183        3.4720  -10.6939  -42.9958 H         1 UNK         0.0600 
    184 H184        4.3076  -13.6650  -44.7225 H         1 UNK         0.3000 
    185 H185        4.8837  -16.1996  -44.9976 H         1 UNK         0.0600 
    186 H186        2.1025  -17.5001  -45.0594 H         1 UNK         0.0600 
    187 H187        3.5353  -18.1267  -45.8667 H         1 UNK         0.0600 
    188 H188        3.4751  -18.0542  -44.1115 H         1 UNK         0.0600 
    189 H189        2.4842  -15.0145  -46.3038 H         1 UNK         0.3000 
    190 H190       -2.3021  -20.2859  -47.7480 H         1 UNK         0.3000 
    191 H191       -2.8041  -22.3403  -49.5758 H         1 UNK         0.0600 
    192 H192       -4.6290  -21.1531  -47.4260 H         1 UNK         0.0600 
    193 H193       -5.1749  -22.1312  -48.7811 H         1 UNK         0.0600 
    194 H194       -4.4344  -20.5666  -49.0768 H         1 UNK         0.0600 
    195 H195       -2.8275  -22.4919  -45.9853 H         1 UNK         0.3000 
    196 H196       -3.5695  -25.2227  -45.7660 H         1 UNK         0.0600 
    197 H197       -2.7219  -24.9829  -43.4259 H         1 UNK         0.0600 
    198 H198       -3.7431  -23.6289  -43.8854 H         1 UNK         0.0600 
    199 H199       -1.9921  -23.4363  -43.8405 H         1 UNK         0.0600 
    200 H200       -0.3174  -23.6780  -45.8811 H         1 UNK         0.3000 
    201 H201        1.1857  -26.0598  -45.5086 H         1 UNK         0.0600 
    202 H202        2.1250  -23.8140  -45.1046 H         1 UNK         0.0600 
    203 H203        1.9573  -23.3943  -46.8080 H         1 UNK         0.0600 
    204 H204        3.0920  -24.6457  -46.3127 H         1 UNK         0.0600 
    205 H205        0.1644  -24.3571  -48.5042 H         1 UNK         0.3000 
    206 H206        1.4183  -26.2290  -50.3096 H         1 UNK         0.0600 
    207 H207        0.9618  -23.9015  -50.9706 H         1 UNK         0.0600 
    208 H208        0.0417  -24.9752  -52.0160 H         1 UNK         0.0600 
    209 H209       -0.7621  -24.1206  -50.7010 H         1 UNK         0.0600 
    210 H210       -1.6435  -26.1547  -48.6555 H         1 UNK         0.3000 
    211 H211       -3.3021  -27.5115  -48.3194 H         1 UNK         0.0600 
    212 H212       -1.8631  -29.6679  -49.9527 H         1 UNK         0.0600 
    213 H213       -3.2405  -29.9112  -48.8907 H         1 UNK         0.0600 
    214 H214       -1.6988  -29.4043  -48.2170 H         1 UNK         0.0600 
    215 H215       -2.2888  -27.7473  -51.7254 H         1 UNK         0.3000 
    216 H216       -5.0353  -27.7412  -52.7748 H         1 UNK         0.0600 
    217 H217       -3.8535  -27.7154  -54.9710 H         1 UNK         0.0600 
    218 H218       -3.2134  -28.9833  -53.9372 H         1 UNK         0.0600 
    219 H219       -2.3093  -27.4849  -54.1591 H         1 UNK         0.0600 
    220 H220       -2.8020  -25.4098  -51.6816 H         1 UNK         0.3000 
    221 H221       -2.6041  -23.2167  -51.6481 H         1 UNK         0.0600 
    222 H222       -5.4849  -22.9811  -52.6431 H         1 UNK         0.0600 
    223 H223       -5.0465  -23.3146  -50.9729 H         1 UNK         0.0600 
    224 H224       -4.5813  -21.7940  -51.7066 H         1 UNK         0.0600 
    225 H225       -3.7704  -21.1690  -53.4345 H         1 UNK         0.3000 
    226 H226       -2.8788  -21.7192  -56.1063 H         1 UNK         0.0600 
    227 H227       -0.6377  -21.3487  -55.0038 H         1 UNK         0.0600 
    228 H228       -1.0328  -20.0101  -56.0689 H         1 UNK         0.0600 
    229 H229       -1.2167  -19.8260  -54.3295 H         1 UNK         0.0600 
    230 H230       -3.4843  -20.0113  -57.4798 H         1 UNK         0.3000 
    231 H231       -4.8225  -18.4550  -58.3061 H         1 UNK         0.0600 
    232 H232       -3.9144  -16.8229  -55.8692 H         1 UNK         0.0600 
    233 H233       -2.9887  -17.0505  -57.3453 H         1 UNK         0.0600 
    234 H234       -4.5009  -16.1722  -57.4017 H         1 UNK         0.0600 
    235 H235       -6.1233  -16.4087  -56.2497 H         1 UNK         0.3000 
    236 H236       -8.7580  -17.5715  -56.2780 H         1 UNK         0.0600 
    237 H237       -7.6703  -15.0309  -54.9468 H         1 UNK         0.0600 
    238 H238       -8.3438  -15.1352  -56.5746 H         1 UNK         0.0600 
    239 H239       -9.3710  -15.4165  -55.1791 H         1 UNK         0.0600 
    240 H240       -6.1523  -17.9313  -54.0591 H         1 UNK         0.3000 
    241 H241       -7.7911  -18.2183  -51.6567 H         1 UNK         0.0600 
    242 H242       -7.4999  -21.8402  -53.3853 H         1 UNK         0.3800 
    243 H243       -7.1640  -20.3747  -54.2736 H         1 UNK         0.3800 
    244 H244       -5.6945  -18.6983  -50.4853 H         1 UNK         0.0800 
    245 H245       -4.8196  -18.8126  -51.9834 H         1 UNK         0.0800 
    246 H246       -4.0720  -15.2879  -53.0175 H         1 UNK         0.0800 
    247 H247       -4.1231  -16.9721  -53.4413 H         1 UNK         0.0800 
@<TRIPOS>BOND
     1    1    2 1    
     2    1  127 1    
     3    1  128 1    
     4    1  129 1    
     5    2    3 2    
     6    2    4 am   BACKBONE|DICT|INTERRES
     7    4    5 1    
     8    4  130 1    
     9    5    6 1    
    10    5   65 1    
    11    5  131 1    
    12    6    7 1    
    13    6  132 1    
    14    6  133 1    
    15    7    8 1    
    16    8    9 1    
    17    8  134 1    
    18    8  135 1    
    19    9   10 ar   
    20    9   14 ar   
    21   10   11 ar   
    22   10  136 1    
    23   11   12 ar   
    24   11  126 1    
    25   12   13 ar   
    26   12  137 1    
    27   13   14 ar   
    28   13   15 1    
    29   14  138 1    
    30   15   16 1    
    31   15  139 1    
    32   15  140 1    
    33   16   17 1    
    34   17   18 1    
    35   17  141 1    
    36   17  142 1    
    37   18   19 1    
    38   18   67 1    
    39   18  143 1    
    40   19   20 am   BACKBONE|DICT|INTERRES
    41   19  144 1    
    42   20   21 2    
    43   20   22 1    
    44   22   23 1    
    45   22   24 1    
    46   22  145 1    
    47   23  146 1    
    48   23  147 1    
    49   23  148 1    
    50   24   25 am   BACKBONE|DICT|INTERRES
    51   24  149 1    
    52   25   26 2    
    53   25   27 1    
    54   27   28 1    
    55   27   29 1    
    56   27  150 1    
    57   28  151 1    
    58   28  152 1    
    59   28  153 1    
    60   29   30 am   BACKBONE|DICT|INTERRES
    61   29  154 1    
    62   30   31 2    
    63   30   32 1    
    64   32   33 1    
    65   32   34 1    
    66   32  155 1    
    67   33  156 1    
    68   33  157 1    
    69   33  158 1    
    70   34   35 am   BACKBONE|DICT|INTERRES
    71   34  159 1    
    72   35   36 2    
    73   35   37 1    
    74   37   38 1    
    75   37   39 1    
    76   37  160 1    
    77   38  161 1    
    78   38  162 1    
    79   38  163 1    
    80   39   40 am   BACKBONE|DICT|INTERRES
    81   39  164 1    
    82   40   41 2    
    83   40   42 1    
    84   42   43 1    
    85   42   44 1    
    86   42  165 1    
    87   43  166 1    
    88   43  167 1    
    89   43  168 1    
    90   44   45 am   BACKBONE|DICT|INTERRES
    91   44  169 1    
    92   45   46 2    
    93   45   47 1    
    94   47   48 1    
    95   47   49 1    
    96   47  170 1    
    97   48  171 1    
    98   48  172 1    
    99   48  173 1    
   100   49   50 am   BACKBONE|DICT|INTERRES
   101   49  174 1    
   102   50   51 2    
   103   50   52 1    
   104   52   53 1    
   105   52   54 1    
   106   52  175 1    
   107   53  176 1    
   108   53  177 1    
   109   53  178 1    
   110   54   55 am   BACKBONE|DICT|INTERRES
   111   54  179 1    
   112   55   56 2    
   113   55   57 1    
   114   57   58 1    
   115   57   59 1    
   116   57  180 1    
   117   58  181 1    
   118   58  182 1    
   119   58  183 1    
   120   59   60 am   BACKBONE|DICT|INTERRES
   121   59  184 1    
   122   60   61 2    
   123   60   62 1    
   124   62   63 1    
   125   62   64 1    
   126   62  185 1    
   127   63  186 1    
   128   63  187 1    
   129   63  188 1    
   130   64   65 am   BACKBONE|DICT|INTERRES
   131   64  189 1    
   132   65   66 2    
   133   67   68 2    
   134   67   69 am   BACKBONE|DICT|INTERRES
   135   69   70 1    
   136   69  190 1    
   137   70   71 1    
   138   70   72 1    
   139   70  191 1    
   140   71  192 1    
   141   71  193 1    
   142   71  194 1    
   143   72   73 2    
   144   72   74 am   BACKBONE|DICT|INTERRES
   145   74   75 1    
   146   74  195 1    
   147   75   76 1    
   148   75   77 1    
   149   75  196 1    
   150   76  197 1    
   151   76  198 1    
   152   76  199 1    
   153   77   78 2    
   154   77   79 am   BACKBONE|DICT|INTERRES
   155   79   80 1    
   156   79  200 1    
   157   80   81 1    
   158   80   82 1    
   159   80  201 1    
   160   81  202 1    
   161   81  203 1    
   162   81  204 1    
   163   82   83 2    
   164   82   84 am   BACKBONE|DICT|INTERRES
   165   84   85 1    
   166   84  205 1    
   167   85   86 1    
   168   85   87 1    
   169   85  206 1    
   170   86  207 1    
   171   86  208 1    
   172   86  209 1    
   173   87   88 2    
   174   87   89 am   BACKBONE|DICT|INTERRES
   175   89   90 1    
   176   89  210 1    
   177   90   91 1    
   178   90   92 1    
   179   90  211 1    
   180   91  212 1    
   181   91  213 1    
   182   91  214 1    
   183   92   93 2    
   184   92   94 am   BACKBONE|DICT|INTERRES
   185   94   95 1    
   186   94  215 1    
   187   95   96 1    
   188   95   97 1    
   189   95  216 1    
   190   96  217 1    
   191   96  218 1    
   192   96  219 1    
   193   97   98 2    
   194   97   99 am   BACKBONE|DICT|INTERRES
   195   99  100 1    
   196   99  220 1    
   197  100  101 1    
   198  100  102 1    
   199  100  221 1    
   200  101  222 1    
   201  101  223 1    
   202  101  224 1    
   203  102  103 2    
   204  102  104 am   BACKBONE|DICT|INTERRES
   205  104  105 1    
   206  104  225 1    
   207  105  106 1    
   208  105  107 1    
   209  105  226 1    
   210  106  227 1    
   211  106  228 1    
   212  106  229 1    
   213  107  108 2    
   214  107  109 am   BACKBONE|DICT|INTERRES
   215  109  110 1    
   216  109  230 1    
   217  110  111 1    
   218  110  112 1    
   219  110  231 1    
   220  111  232 1    
   221  111  233 1    
   222  111  234 1    
   223  112  113 2    
   224  112  114 am   BACKBONE|DICT|INTERRES
   225  114  115 1    
   226  114  235 1    
   227  115  116 1    
   228  115  117 1    
   229  115  236 1    
   230  116  237 1    
   231  116  238 1    
   232  116  239 1    
   233  117  118 2    
   234  117  119 am   BACKBONE|DICT|INTERRES
   235  119  120 1    
   236  119  240 1    
   237  120  121 1    
   238  120  124 1    
   239  120  241 1    
   240  121  122 am   BACKBONE|DICT|INTERRES
   241  121  123 2    
   242  122  242 1    
   243  122  243 1    
   244  124  125 1    
   245  124  244 1    
   246  124  245 1    
   247  125  126 1    
   248  126  246 1    
   249  126  247 1    
@<TRIPOS>SUBSTRUCTURE
     1 UNK         1 GROUP             0       ****    0 ROOT    
