@<TRIPOS>MOLECULE
3R540
247   249    1
SMALL
USER_CHARGES


@<TRIPOS>ATOM
      1 CA         -2.4026   -9.7983  -46.9623 C.3       0 UNK        -0.1800 
      2 C          -1.1162  -10.2860  -46.3134 C.2       0 UNK         0.5000 
      3 O          -0.5906   -9.6196  -45.4213 O.2       0 UNK        -0.5000 
      4 N          -0.6158  -11.4531  -46.7424 N.am      1 UNK        -0.5000 
      5 CA          0.6342  -12.0758  -46.2805 C.3       1 UNK         0.1400 
      6 C6          0.9251  -13.4092  -47.0057 C.3       23 UNK        -0.0398 
      7 S7          1.1481  -13.1903  -48.8018 S.3       23 UNK        -0.2404 
      8 C8          1.5263  -14.8953  -49.3142 C.3       23 UNK        -0.0205 
      9 C9          0.2643  -15.7150  -49.5396 C.ar      23 UNK        -0.0193 
     10 C10        -0.2845  -15.8183  -50.8218 C.ar      23 UNK        -0.1150 
     11 C11        -1.4235  -16.5975  -51.0461 C.ar      23 UNK        -0.0193 
     12 C12        -2.0259  -17.2609  -49.9741 C.ar      23 UNK        -0.1150 
     13 C13        -1.4846  -17.1682  -48.6899 C.ar      23 UNK        -0.0193 
     14 C14        -0.3383  -16.3968  -48.4781 C.ar      23 UNK        -0.1150 
     15 C15        -2.1126  -17.9354  -47.5407 C.3       23 UNK        -0.0205 
     16 S16        -1.2107  -19.4858  -47.2703 S.3       23 UNK        -0.2404 
     17 C17        -2.1536  -20.2414  -45.9038 C.3       23 UNK        -0.0398 
     18 CA         -2.5211  -21.7202  -46.1759 C.3       11 UNK         0.1400 
     19 N          -1.3744  -22.5108  -46.6288 N.am      11 UNK        -0.5000 
     20 C          -1.4447  -23.6509  -47.3273 C.2       10 UNK         0.5000 
     21 O          -2.5015  -24.1669  -47.6913 O.2       10 UNK        -0.5000 
     22 CA         -0.1091  -24.3404  -47.6672 C.3       10 UNK         0.1400 
     23 CB          0.3706  -23.9030  -49.0595 C.3       10 UNK        -0.1800 
     24 N           0.9473  -24.0735  -46.6909 N.am      10 UNK        -0.5000 
     25 C           0.9144  -24.4470  -45.4035 C.2       9 UNK         0.5000 
     26 O           0.0102  -25.1253  -44.9158 O.2       9 UNK        -0.5000 
     27 CA          2.0418  -23.9082  -44.4990 C.3       9 UNK         0.1400 
     28 CB          3.1969  -24.9167  -44.4207 C.3       9 UNK        -0.1800 
     29 N           2.5620  -22.6049  -44.9341 N.am      9 UNK        -0.5000 
     30 C           1.8330  -21.4827  -45.0097 C.2       8 UNK         0.5000 
     31 O           0.6430  -21.4290  -44.6910 O.2       8 UNK        -0.5000 
     32 CA          2.5300  -20.2543  -45.6241 C.3       8 UNK         0.1400 
     33 CB          2.6285  -20.4099  -47.1511 C.3       8 UNK        -0.1800 
     34 N           1.8163  -19.0106  -45.3330 N.am      8 UNK        -0.5000 
     35 C           1.8592  -18.3687  -44.1605 C.2       7 UNK         0.5000 
     36 O           2.5255  -18.7522  -43.1948 O.2       7 UNK        -0.5000 
     37 CA          1.0075  -17.0879  -44.0514 C.3       7 UNK         0.1400 
     38 CB         -0.4525  -17.4233  -43.7167 C.3       7 UNK        -0.1800 
     39 N           1.5293  -16.2000  -43.0138 N.am      7 UNK        -0.5000 
     40 C           2.5744  -15.3835  -43.1805 C.2       6 UNK         0.5000 
     41 O           3.1456  -15.2075  -44.2609 O.2       6 UNK        -0.5000 
     42 CA          3.0700  -14.6532  -41.9246 C.3       6 UNK         0.1400 
     43 CB          3.9901  -15.5569  -41.0847 C.3       6 UNK        -0.1800 
     44 N           3.7912  -13.4602  -42.3440 N.am      6 UNK        -0.5000 
     45 C           3.9803  -12.3565  -41.6162 C.2       5 UNK         0.5000 
     46 O           3.6062  -12.2301  -40.4497 O.2       5 UNK        -0.5000 
     47 CA          4.6904  -11.1879  -42.3127 C.3       5 UNK         0.1400 
     48 CB          5.7401  -11.6299  -43.3545 C.3       5 UNK        -0.1800 
     49 N           3.6827  -10.3453  -42.9440 N.am      5 UNK        -0.5000 
     50 C           3.8102   -9.0329  -43.1679 C.2       4 UNK         0.5000 
     51 O           4.8087   -8.3794  -42.8614 O.2       4 UNK        -0.5000 
     52 CA          2.6245   -8.3241  -43.8484 C.3       4 UNK         0.1400 
     53 CB          2.7019   -8.4896  -45.3736 C.3       4 UNK        -0.1800 
     54 N           1.3195   -8.7904  -43.3787 N.am      4 UNK        -0.5000 
     55 C           0.8283   -8.5789  -42.1492 C.2       3 UNK         0.5000 
     56 O           1.4339   -7.9755  -41.2628 O.2       3 UNK        -0.5000 
     57 CA         -0.5789   -9.1288  -41.8623 C.3       3 UNK         0.1400 
     58 CB         -1.6566   -8.1592  -42.3725 C.3       3 UNK        -0.1800 
     59 N          -0.7732  -10.4383  -42.4817 N.am      3 UNK        -0.5000 
     60 C          -0.4767  -11.6036  -41.8904 C.2       2 UNK         0.5000 
     61 O          -0.0791  -11.7009  -40.7296 O.2       2 UNK        -0.5000 
     62 CA         -0.6503  -12.8828  -42.7332 C.3       2 UNK         0.1400 
     63 CB         -2.0344  -13.5018  -42.4876 C.3       2 UNK        -0.1800 
     64 N          -0.4718  -12.6739  -44.1709 N.am      2 UNK        -0.5000 
     65 C           0.6731  -12.2928  -44.7550 C.2       1 UNK         0.5000 
     66 O           1.7141  -12.0691  -44.1398 O.2       1 UNK        -0.5000 
     67 C          -3.1443  -22.3493  -44.9164 C.2       11 UNK         0.5000 
     68 O          -4.3647  -22.3174  -44.7648 O.2       11 UNK        -0.5000 
     69 N          -2.2984  -22.9351  -44.0542 N.am      12 UNK        -0.5000 
     70 CA         -2.7079  -23.7017  -42.8763 C.3       12 UNK         0.1400 
     71 CB         -1.4981  -23.9216  -41.9553 C.3       12 UNK        -0.1800 
     72 C          -3.3636  -25.0397  -43.2653 C.2       12 UNK         0.5000 
     73 O          -4.3603  -25.4277  -42.6551 O.2       12 UNK        -0.5000 
     74 N          -2.8226  -25.6935  -44.3049 N.am      13 UNK        -0.5000 
     75 CA         -3.4244  -26.8584  -44.9603 C.3       13 UNK         0.1400 
     76 CB         -2.3980  -27.4833  -45.9177 C.3       13 UNK        -0.1800 
     77 C          -4.7191  -26.5069  -45.7216 C.2       13 UNK         0.5000 
     78 O          -5.5998  -27.3577  -45.8527 O.2       13 UNK        -0.5000 
     79 N          -4.7961  -25.2614  -46.2112 N.am      14 UNK        -0.5000 
     80 CA         -5.8797  -24.5874  -46.9331 C.3       14 UNK         0.1400 
     81 CB         -7.1806  -24.5586  -46.1105 C.3       14 UNK        -0.1800 
     82 C          -6.1177  -25.1313  -48.3503 C.2       14 UNK         0.5000 
     83 O          -6.1732  -24.3469  -49.2975 O.2       14 UNK        -0.5000 
     84 N          -6.2237  -26.4588  -48.4807 N.am      15 UNK        -0.5000 
     85 CA         -6.4366  -27.1727  -49.7392 C.3       15 UNK         0.1400 
     86 CB         -6.6319  -28.6673  -49.4459 C.3       15 UNK        -0.1800 
     87 C          -5.2968  -26.9631  -50.7507 C.2       15 UNK         0.5000 
     88 O          -5.5622  -26.8510  -51.9459 O.2       15 UNK        -0.5000 
     89 N          -4.0564  -26.8758  -50.2521 N.am      16 UNK        -0.5000 
     90 CA         -2.8630  -26.6101  -51.0531 C.3       16 UNK         0.1400 
     91 CB         -1.6126  -26.8748  -50.2048 C.3       16 UNK        -0.1800 
     92 C          -2.8561  -25.1866  -51.6382 C.2       16 UNK         0.5000 
     93 O          -2.5951  -25.0262  -52.8303 O.2       16 UNK        -0.5000 
     94 N          -3.1901  -24.1860  -50.8091 N.am      17 UNK        -0.5000 
     95 CA         -3.3312  -22.7894  -51.2307 C.3       17 UNK         0.1400 
     96 CB         -3.4582  -21.8799  -49.9989 C.3       17 UNK        -0.1800 
     97 C          -4.5097  -22.5710  -52.1985 C.2       17 UNK         0.5000 
     98 O          -4.3989  -21.7458  -53.1039 O.2       17 UNK        -0.5000 
     99 N          -5.6022  -23.3236  -52.0055 N.am      18 UNK        -0.5000 
    100 CA        -6.7703  -23.3273  -52.8864 C.3       18 UNK         0.1400 
    101 CB        -7.9412  -24.0263  -52.1791 C.3       18 UNK        -0.1800 
    102 C         -6.4896  -23.9823  -54.2531 C.2       18 UNK         0.5000 
    103 O         -6.9963  -23.5007  -55.2671 O.2       18 UNK        -0.5000 
    104 N         -5.7008  -25.0667  -54.2595 N.am      19 UNK        -0.5000 
    105 CA        -5.2922  -25.7891  -55.4657 C.3       19 UNK         0.1400 
    106 CB        -4.7312  -27.1649  -55.0746 C.3       19 UNK        -0.1800 
    107 C         -4.2690  -25.0122  -56.3137 C.2       19 UNK         0.5000 
    108 O         -4.3156  -25.0936  -57.5424 O.2       19 UNK        -0.5000 
    109 N         -3.3638  -24.2816  -55.6498 N.am      20 UNK        -0.5000 
    110 CA        -2.3691  -23.4112  -56.2749 C.3       20 UNK         0.1400 
    111 CB        -1.3821  -22.9351  -55.1966 C.3       20 UNK        -0.1800 
    112 C         -3.0070  -22.1993  -56.9817 C.2       20 UNK         0.5000 
    113 O         -4.0618  -21.7194  -56.5607 O.2       20 UNK        -0.5000 
    114 N         -2.3267  -21.6944  -58.0206 N.am      21 UNK        -0.5000 
    115 CA        -2.6960  -20.4586  -58.7199 C.3       21 UNK         0.1400 
    116 CB        -1.8805  -20.3416  -60.0169 C.3       21 UNK        -0.1800 
    117 C         -2.4992  -19.2108  -57.8363 C.2       21 UNK         0.5000 
    118 O         -3.3052  -18.2822  -57.9003 O.2       21 UNK        -0.5000 
    119 N         -1.4490  -19.2431  -57.0035 N.am      22 UNK        -0.5000 
    120 CA        -1.1369  -18.2655  -55.9481 C.3       22 UNK         0.1400 
    121 C         -0.7389  -16.8403  -56.4454 C.2       22 UNK         0.5000 
    122 N         -0.3766  -16.6626  -57.7101 N.am      22 UNK        -0.7600 
    123 O         -0.7271  -15.8843  -55.6753 O.2       22 UNK        -0.5000 
    124 C124       -2.2183  -18.2601  -54.8247 C.3       23 UNK        -0.0398 
    125 S125       -1.4831  -18.3496  -53.1588 S.3       23 UNK        -0.2404 
    126 C126       -1.9873  -16.7539  -52.4483 C.3       23 UNK        -0.0205 
    127 H127       -3.1818   -9.6844  -46.2088 H         1 UNK         0.0600 
    128 H128       -2.7616  -10.4920  -47.7229 H         1 UNK         0.0600 
    129 H129       -2.2388   -8.8296  -47.4341 H         1 UNK         0.0600 
    130 H130       -1.0888  -11.9432  -47.4885 H         1 UNK         0.3000 
    131 H131        1.4408  -11.3811  -46.5206 H         1 UNK         0.0600 
    132 H132        1.8323  -13.8714  -46.6098 H         1 UNK         0.0800 
    133 H133        0.1130  -14.1155  -46.8307 H         1 UNK         0.0800 
    134 H134        2.1105  -14.8588  -50.2350 H         1 UNK         0.0800 
    135 H135        2.1658  -15.3779  -48.5735 H         1 UNK         0.0800 
    136 H136        0.1863  -15.3067  -51.6497 H         1 UNK         0.1150 
    137 H137       -2.8987  -17.8749  -50.1478 H         1 UNK         0.1150 
    138 H138        0.0931  -16.3447  -47.4892 H         1 UNK         0.1150 
    139 H139       -2.0937  -17.3306  -46.6331 H         1 UNK         0.0800 
    140 H140       -3.1605  -18.1529  -47.7534 H         1 UNK         0.0800 
    141 H141       -3.0595  -19.6611  -45.7209 H         1 UNK         0.0800 
    142 H142       -1.5538  -20.1538  -44.9977 H         1 UNK         0.0800 
    143 H143       -3.2788  -21.7367  -46.9621 H         1 UNK         0.0600 
    144 H144       -0.4692  -22.1611  -46.3416 H         1 UNK         0.3000 
    145 H145       -0.2816  -25.4173  -47.6767 H         1 UNK         0.0600 
    146 H146        1.2600  -24.4557  -49.3622 H         1 UNK         0.0600 
    147 H147       -0.3948  -24.0826  -49.8151 H         1 UNK         0.0600 
    148 H148        0.6092  -22.8389  -49.0861 H         1 UNK         0.0600 
    149 H149        1.7305  -23.5225  -47.0085 H         1 UNK         0.3000 
    150 H150        1.6258  -23.7842  -43.4970 H         1 UNK         0.0600 
    151 H151        3.6710  -25.0635  -45.3919 H         1 UNK         0.0600 
    152 H152        2.8424  -25.8898  -44.0778 H         1 UNK         0.0600 
    153 H153        3.9626  -24.5861  -43.7187 H         1 UNK         0.0600 
    154 H154        3.5309  -22.5812  -45.2188 H         1 UNK         0.3000 
    155 H155        3.5393  -20.1866  -45.2125 H         1 UNK         0.0600 
    156 H156        1.6460  -20.5206  -47.6115 H         1 UNK         0.0600 
    157 H157        3.2176  -21.2866  -47.4228 H         1 UNK         0.0600 
    158 H158        3.1136  -19.5453  -47.6047 H         1 UNK         0.0600 
    159 H159        1.1946  -18.6791  -46.0559 H         1 UNK         0.3000 
    160 H160        1.0310  -16.5667  -45.0112 H         1 UNK         0.0600 
    161 H161       -1.0481  -16.5190  -43.5957 H         1 UNK         0.0600 
    162 H162       -0.5346  -18.0076  -42.7993 H         1 UNK         0.0600 
    163 H163       -0.9092  -18.0002  -44.5180 H         1 UNK         0.0600 
    164 H164        1.1566  -16.3368  -42.0856 H         1 UNK         0.3000 
    165 H165        2.2031  -14.3577  -41.3300 H         1 UNK         0.0600 
    166 H166        3.4731  -16.4670  -40.7780 H         1 UNK         0.0600 
    167 H167        4.8766  -15.8561  -41.6454 H         1 UNK         0.0600 
    168 H168        4.3222  -15.0520  -40.1775 H         1 UNK         0.0600 
    169 H169        4.0571  -13.4676  -43.3212 H         1 UNK         0.3000 
    170 H170        5.2003  -10.6210  -41.5308 H         1 UNK         0.0600 
    171 H171        6.4415  -12.3468  -42.9256 H         1 UNK         0.0600 
    172 H172        5.2801  -12.0926  -44.2284 H         1 UNK         0.0600 
    173 H173        6.3243  -10.7786  -43.7042 H         1 UNK         0.0600 
    174 H174        2.8344  -10.8234  -43.2412 H         1 UNK         0.3000 
    175 H175        2.6995   -7.2588  -43.6205 H         1 UNK         0.0600 
    176 H176        1.8919   -7.9562  -45.8715 H         1 UNK         0.0600 
    177 H177        3.6410   -8.0936  -45.7619 H         1 UNK         0.0600 
    178 H178        2.6426   -9.5379  -45.6657 H         1 UNK         0.0600 
    179 H179        0.7267   -9.2459  -44.0663 H         1 UNK         0.3000 
    180 H180       -0.6932   -9.2131  -40.7794 H         1 UNK         0.0600 
    181 H181       -1.5994   -8.0184  -43.4523 H         1 UNK         0.0600 
    182 H182       -1.5485   -7.1782  -41.9082 H         1 UNK         0.0600 
    183 H183       -2.6565   -8.5226  -42.1351 H         1 UNK         0.0600 
    184 H184       -1.0455  -10.4389  -43.4564 H         1 UNK         0.3000 
    185 H185        0.1057  -13.5969  -42.4039 H         1 UNK         0.0600 
    186 H186       -2.1838  -13.7164  -41.4286 H         1 UNK         0.0600 
    187 H187       -2.8355  -12.8321  -42.8029 H         1 UNK         0.0600 
    188 H188       -2.1512  -14.4410  -43.0276 H         1 UNK         0.0600 
    189 H189       -1.2874  -12.8031  -44.7519 H         1 UNK         0.3000 
    190 H190       -1.3077  -22.8985  -44.2520 H         1 UNK         0.3000 
    191 H191       -3.4472  -23.1133  -42.3285 H         1 UNK         0.0600 
    192 H192       -1.0483  -22.9730  -41.6616 H         1 UNK         0.0600 
    193 H193       -1.7956  -24.4374  -41.0416 H         1 UNK         0.0600 
    194 H194       -0.7261  -24.5246  -42.4329 H         1 UNK         0.0600 
    195 H195       -1.9438  -25.3562  -44.6856 H         1 UNK         0.3000 
    196 H196       -3.6748  -27.5936  -44.1929 H         1 UNK         0.0600 
    197 H197       -2.7982  -28.3829  -46.3870 H         1 UNK         0.0600 
    198 H198       -1.4880  -27.7683  -45.3894 H         1 UNK         0.0600 
    199 H199       -2.1194  -26.7940  -46.7148 H         1 UNK         0.0600 
    200 H200       -3.9585  -24.7012  -46.1268 H         1 UNK         0.3000 
    201 H201       -5.5483  -23.5546  -47.0518 H         1 UNK         0.0600 
    202 H202       -7.9454  -23.9674  -46.6155 H         1 UNK         0.0600 
    203 H203       -7.5910  -25.5565  -45.9548 H         1 UNK         0.0600 
    204 H204       -7.0137  -24.1076  -45.1321 H         1 UNK         0.0600 
    205 H205       -6.1458  -27.0165  -47.6343 H         1 UNK         0.3000 
    206 H206       -7.3543  -26.7886  -50.1887 H         1 UNK         0.0600 
    207 H207       -7.4915  -28.8320  -48.7960 H         1 UNK         0.0600 
    208 H208       -6.8084  -29.2264  -50.3658 H         1 UNK         0.0600 
    209 H209       -5.7566  -29.1000  -48.9597 H         1 UNK         0.0600 
    210 H210       -3.9329  -26.9585  -49.2543 H         1 UNK         0.3000 
    211 H211       -2.8540  -27.3090  -51.8923 H         1 UNK         0.0600 
    212 H212       -1.6319  -26.2950  -49.2846 H         1 UNK         0.0600 
    213 H213       -0.7029  -26.6134  -50.7471 H         1 UNK         0.0600 
    214 H214       -1.5389  -27.9277  -49.9324 H         1 UNK         0.0600 
    215 H215       -3.3860  -24.3901  -49.8377 H         1 UNK         0.3000 
    216 H216       -2.4201  -22.5056  -51.7620 H         1 UNK         0.0600 
    217 H217       -3.6438  -20.8454  -50.2910 H         1 UNK         0.0600 
    218 H218       -2.5389  -21.8834  -49.4150 H         1 UNK         0.0600 
    219 H219       -4.2762  -22.1921  -49.3488 H         1 UNK         0.0600 
    220 H220       -5.6453  -23.9188  -51.1845 H         1 UNK         0.3000 
    221 H221       -7.0585  -22.2899  -53.0688 H         1 UNK         0.0600 
    222 H222       -7.7150  -25.0702  -51.9623 H         1 UNK         0.0600 
    223 H223       -8.1840  -23.5340  -51.2372 H         1 UNK         0.0600 
    224 H224       -8.8388  -24.0067  -52.7983 H         1 UNK         0.0600 
    225 H225       -5.3905  -25.4533  -53.3741 H         1 UNK         0.3000 
    226 H226       -6.1785  -25.9503  -56.0829 H         1 UNK         0.0600 
    227 H227       -4.4132  -27.7237  -55.9556 H         1 UNK         0.0600 
    228 H228       -3.8692  -27.0742  -54.4125 H         1 UNK         0.0600 
    229 H229       -5.4838  -27.7659  -54.5641 H         1 UNK         0.0600 
    230 H230       -3.3735  -24.3026  -54.6364 H         1 UNK         0.3000 
    231 H231       -1.8227  -24.0001  -57.0144 H         1 UNK         0.0600 
    232 H232       -1.8851  -22.3538  -54.4224 H         1 UNK         0.0600 
    233 H233       -0.6020  -22.3050  -55.6252 H         1 UNK         0.0600 
    234 H234       -0.8881  -23.7783  -54.7133 H         1 UNK         0.0600 
    235 H235       -1.4751  -22.1473  -58.3203 H         1 UNK         0.3000 
    236 H236       -3.7537  -20.5168  -58.9857 H         1 UNK         0.0600 
    237 H237       -2.1483  -19.4374  -60.5652 H         1 UNK         0.0600 
    238 H238       -0.8086  -20.3009  -59.8196 H         1 UNK         0.0600 
    239 H239       -2.0684  -21.1881  -60.6778 H         1 UNK         0.0600 
    240 H240       -0.8366  -20.0439  -57.0479 H         1 UNK         0.3000 
    241 H241       -0.2114  -18.6522  -55.5204 H         1 UNK         0.0600 
    242 H242       -0.3743  -17.4352  -58.3565 H         1 UNK         0.3800 
    243 H243       -0.1113  -15.7426  -58.0256 H         1 UNK         0.3800 
    244 H244       -2.8661  -19.1344  -54.9098 H         1 UNK         0.0800 
    245 H245       -2.8867  -17.4017  -54.9109 H         1 UNK         0.0800 
    246 H246       -1.6450  -15.9413  -53.0907 H         1 UNK         0.0800 
    247 H247       -3.0763  -16.6932  -52.4184 H         1 UNK         0.0800 
@<TRIPOS>BOND
     1    1    2 1    
     2    1  127 1    
     3    1  128 1    
     4    1  129 1    
     5    2    3 2    
     6    2    4 am   BACKBONE|DICT|INTERRES
     7    4    5 1    
     8    4  130 1    
     9    5    6 1    
    10    5   65 1    
    11    5  131 1    
    12    6    7 1    
    13    6  132 1    
    14    6  133 1    
    15    7    8 1    
    16    8    9 1    
    17    8  134 1    
    18    8  135 1    
    19    9   10 ar   
    20    9   14 ar   
    21   10   11 ar   
    22   10  136 1    
    23   11   12 ar   
    24   11  126 1    
    25   12   13 ar   
    26   12  137 1    
    27   13   14 ar   
    28   13   15 1    
    29   14  138 1    
    30   15   16 1    
    31   15  139 1    
    32   15  140 1    
    33   16   17 1    
    34   17   18 1    
    35   17  141 1    
    36   17  142 1    
    37   18   19 1    
    38   18   67 1    
    39   18  143 1    
    40   19   20 am   BACKBONE|DICT|INTERRES
    41   19  144 1    
    42   20   21 2    
    43   20   22 1    
    44   22   23 1    
    45   22   24 1    
    46   22  145 1    
    47   23  146 1    
    48   23  147 1    
    49   23  148 1    
    50   24   25 am   BACKBONE|DICT|INTERRES
    51   24  149 1    
    52   25   26 2    
    53   25   27 1    
    54   27   28 1    
    55   27   29 1    
    56   27  150 1    
    57   28  151 1    
    58   28  152 1    
    59   28  153 1    
    60   29   30 am   BACKBONE|DICT|INTERRES
    61   29  154 1    
    62   30   31 2    
    63   30   32 1    
    64   32   33 1    
    65   32   34 1    
    66   32  155 1    
    67   33  156 1    
    68   33  157 1    
    69   33  158 1    
    70   34   35 am   BACKBONE|DICT|INTERRES
    71   34  159 1    
    72   35   36 2    
    73   35   37 1    
    74   37   38 1    
    75   37   39 1    
    76   37  160 1    
    77   38  161 1    
    78   38  162 1    
    79   38  163 1    
    80   39   40 am   BACKBONE|DICT|INTERRES
    81   39  164 1    
    82   40   41 2    
    83   40   42 1    
    84   42   43 1    
    85   42   44 1    
    86   42  165 1    
    87   43  166 1    
    88   43  167 1    
    89   43  168 1    
    90   44   45 am   BACKBONE|DICT|INTERRES
    91   44  169 1    
    92   45   46 2    
    93   45   47 1    
    94   47   48 1    
    95   47   49 1    
    96   47  170 1    
    97   48  171 1    
    98   48  172 1    
    99   48  173 1    
   100   49   50 am   BACKBONE|DICT|INTERRES
   101   49  174 1    
   102   50   51 2    
   103   50   52 1    
   104   52   53 1    
   105   52   54 1    
   106   52  175 1    
   107   53  176 1    
   108   53  177 1    
   109   53  178 1    
   110   54   55 am   BACKBONE|DICT|INTERRES
   111   54  179 1    
   112   55   56 2    
   113   55   57 1    
   114   57   58 1    
   115   57   59 1    
   116   57  180 1    
   117   58  181 1    
   118   58  182 1    
   119   58  183 1    
   120   59   60 am   BACKBONE|DICT|INTERRES
   121   59  184 1    
   122   60   61 2    
   123   60   62 1    
   124   62   63 1    
   125   62   64 1    
   126   62  185 1    
   127   63  186 1    
   128   63  187 1    
   129   63  188 1    
   130   64   65 am   BACKBONE|DICT|INTERRES
   131   64  189 1    
   132   65   66 2    
   133   67   68 2    
   134   67   69 am   BACKBONE|DICT|INTERRES
   135   69   70 1    
   136   69  190 1    
   137   70   71 1    
   138   70   72 1    
   139   70  191 1    
   140   71  192 1    
   141   71  193 1    
   142   71  194 1    
   143   72   73 2    
   144   72   74 am   BACKBONE|DICT|INTERRES
   145   74   75 1    
   146   74  195 1    
   147   75   76 1    
   148   75   77 1    
   149   75  196 1    
   150   76  197 1    
   151   76  198 1    
   152   76  199 1    
   153   77   78 2    
   154   77   79 am   BACKBONE|DICT|INTERRES
   155   79   80 1    
   156   79  200 1    
   157   80   81 1    
   158   80   82 1    
   159   80  201 1    
   160   81  202 1    
   161   81  203 1    
   162   81  204 1    
   163   82   83 2    
   164   82   84 am   BACKBONE|DICT|INTERRES
   165   84   85 1    
   166   84  205 1    
   167   85   86 1    
   168   85   87 1    
   169   85  206 1    
   170   86  207 1    
   171   86  208 1    
   172   86  209 1    
   173   87   88 2    
   174   87   89 am   BACKBONE|DICT|INTERRES
   175   89   90 1    
   176   89  210 1    
   177   90   91 1    
   178   90   92 1    
   179   90  211 1    
   180   91  212 1    
   181   91  213 1    
   182   91  214 1    
   183   92   93 2    
   184   92   94 am   BACKBONE|DICT|INTERRES
   185   94   95 1    
   186   94  215 1    
   187   95   96 1    
   188   95   97 1    
   189   95  216 1    
   190   96  217 1    
   191   96  218 1    
   192   96  219 1    
   193   97   98 2    
   194   97   99 am   BACKBONE|DICT|INTERRES
   195   99  100 1    
   196   99  220 1    
   197  100  101 1    
   198  100  102 1    
   199  100  221 1    
   200  101  222 1    
   201  101  223 1    
   202  101  224 1    
   203  102  103 2    
   204  102  104 am   BACKBONE|DICT|INTERRES
   205  104  105 1    
   206  104  225 1    
   207  105  106 1    
   208  105  107 1    
   209  105  226 1    
   210  106  227 1    
   211  106  228 1    
   212  106  229 1    
   213  107  108 2    
   214  107  109 am   BACKBONE|DICT|INTERRES
   215  109  110 1    
   216  109  230 1    
   217  110  111 1    
   218  110  112 1    
   219  110  231 1    
   220  111  232 1    
   221  111  233 1    
   222  111  234 1    
   223  112  113 2    
   224  112  114 am   BACKBONE|DICT|INTERRES
   225  114  115 1    
   226  114  235 1    
   227  115  116 1    
   228  115  117 1    
   229  115  236 1    
   230  116  237 1    
   231  116  238 1    
   232  116  239 1    
   233  117  118 2    
   234  117  119 am   BACKBONE|DICT|INTERRES
   235  119  120 1    
   236  119  240 1    
   237  120  121 1    
   238  120  124 1    
   239  120  241 1    
   240  121  122 am   BACKBONE|DICT|INTERRES
   241  121  123 2    
   242  122  242 1    
   243  122  243 1    
   244  124  125 1    
   245  124  244 1    
   246  124  245 1    
   247  125  126 1    
   248  126  246 1    
   249  126  247 1    
@<TRIPOS>SUBSTRUCTURE
     1 UNK         1 GROUP             0       ****    0 ROOT    
