@<TRIPOS>MOLECULE
3R540
247   249    1
SMALL
USER_CHARGES


@<TRIPOS>ATOM
      1 CA         -4.7406  -10.1323  -45.2333 C.3       0 UNK        -0.1800 
      2 C          -3.6064   -9.9223  -46.2264 C.2       0 UNK         0.5000 
      3 O          -2.6527   -9.2047  -45.9258 O.2       0 UNK        -0.5000 
      4 N          -3.7055  -10.5456  -47.4070 N.am      1 UNK        -0.5000 
      5 CA         -2.7032  -10.4838  -48.4790 C.3       1 UNK         0.1400 
      6 C6         -3.3193  -10.8232  -49.8625 C.3       23 UNK        -0.0398 
      7 S7         -4.1432  -12.4553  -49.9499 S.3       23 UNK        -0.2404 
      8 C8         -2.8153  -13.4771  -50.6678 C.3       23 UNK        -0.0205 
      9 C9         -3.2018  -14.9455  -50.7554 C.ar      23 UNK        -0.0193 
     10 C10        -3.2179  -15.5956  -51.9928 C.ar      23 UNK        -0.1150 
     11 C11        -3.5357  -16.9539  -52.0769 C.ar      23 UNK        -0.0193 
     12 C12        -3.8578  -17.6580  -50.9139 C.ar      23 UNK        -0.1150 
     13 C13        -3.8485  -17.0199  -49.6712 C.ar      23 UNK        -0.0193 
     14 C14        -3.5091  -15.6662  -49.5964 C.ar      23 UNK        -0.1150 
     15 C15        -4.2198  -17.7883  -48.4140 C.3       23 UNK        -0.0205 
     16 S16        -2.7465  -18.4212  -47.5583 S.3       23 UNK        -0.2404 
     17 C17        -3.5202  -19.3144  -46.1685 C.3       23 UNK        -0.0398 
     18 CA         -3.1965  -20.8284  -46.1774 C.3       11 UNK         0.1400 
     19 N          -1.7797  -21.0913  -45.8914 N.am      11 UNK        -0.5000 
     20 C          -1.1864  -22.2927  -45.9462 C.2       10 UNK         0.5000 
     21 O          -1.7579  -23.3231  -46.2955 O.2       10 UNK        -0.5000 
     22 CA          0.2705  -22.3734  -45.4531 C.3       10 UNK         0.1400 
     23 CB          1.2580  -21.8694  -46.5149 C.3       10 UNK        -0.1800 
     24 N           0.4661  -21.6431  -44.2000 N.am      10 UNK        -0.5000 
     25 C          -0.0773  -22.0079  -43.0300 C.2       9 UNK         0.5000 
     26 O          -0.7569  -23.0224  -42.8845 O.2       9 UNK        -0.5000 
     27 CA          0.1356  -21.0697  -41.8289 C.3       9 UNK         0.1400 
     28 CB          1.4746  -21.3708  -41.1401 C.3       9 UNK        -0.1800 
     29 N           0.0750  -19.6551  -42.1954 N.am      9 UNK        -0.5000 
     30 C          -1.0150  -19.0379  -42.6738 C.2       8 UNK         0.5000 
     31 O          -2.1089  -19.5865  -42.8003 O.2       8 UNK        -0.5000 
     32 CA         -0.8387  -17.5843  -43.1534 C.3       8 UNK         0.1400 
     33 CB         -0.9079  -16.6037  -41.9754 C.3       8 UNK        -0.1800 
     34 N           0.4065  -17.3819  -43.8970 N.am      8 UNK        -0.5000 
     35 C           0.7084  -18.0181  -45.0388 C.2       7 UNK         0.5000 
     36 O          -0.0399  -18.8238  -45.5881 O.2       7 UNK        -0.5000 
     37 CA          2.0927  -17.7492  -45.6458 C.3       7 UNK         0.1400 
     38 CB          2.0826  -16.4552  -46.4626 C.3       7 UNK        -0.1800 
     39 N           3.1287  -17.6713  -44.6193 N.am      7 UNK        -0.5000 
     40 C           3.5993  -18.7357  -43.9562 C.2       6 UNK         0.5000 
     41 O           3.2368  -19.8929  -44.1719 O.2       6 UNK        -0.5000 
     42 CA          4.6147  -18.4489  -42.8359 C.3       6 UNK         0.1400 
     43 CB          6.0104  -18.1808  -43.4190 C.3       6 UNK        -0.1800 
     44 N           4.2164  -17.3222  -41.9902 N.am      6 UNK        -0.5000 
     45 C           3.1221  -17.3062  -41.2166 C.2       5 UNK         0.5000 
     46 O           2.3328  -18.2447  -41.1296 O.2       5 UNK        -0.5000 
     47 CA          2.8421  -16.0186  -40.4231 C.3       5 UNK         0.1400 
     48 CB          3.5252  -16.0791  -39.0487 C.3       5 UNK        -0.1800 
     49 N           3.2449  -14.7881  -41.1056 N.am      5 UNK        -0.5000 
     50 C           2.7985  -14.3649  -42.2964 C.2       4 UNK         0.5000 
     51 O           2.0275  -15.0161  -43.0082 O.2       4 UNK        -0.5000 
     52 CA          3.2689  -12.9575  -42.7258 C.3       4 UNK         0.1400 
     53 CB          4.7266  -12.6496  -42.3126 C.3       4 UNK        -0.1800 
     54 N           3.0726  -12.6873  -44.1512 N.am      4 UNK        -0.5000 
     55 C           3.6621  -13.2911  -45.1897 C.2       3 UNK         0.5000 
     56 O           4.4645  -14.2218  -45.0858 O.2       3 UNK        -0.5000 
     57 CA          3.2574  -12.7585  -46.5806 C.3       3 UNK         0.1400 
     58 CB          4.2154  -13.2232  -47.6922 C.3       3 UNK        -0.1800 
     59 N           1.8957  -13.1551  -46.9386 N.am      3 UNK        -0.5000 
     60 C           0.7681  -12.6473  -46.4264 C.2       2 UNK         0.5000 
     61 O           0.7383  -11.7349  -45.5962 O.2       2 UNK        -0.5000 
     62 CA         -0.5454  -13.2899  -46.9122 C.3       2 UNK         0.1400 
     63 CB         -1.1152  -14.2404  -45.8460 C.3       2 UNK        -0.1800 
     64 N          -1.5677  -12.3038  -47.2599 N.am      2 UNK        -0.5000 
     65 C          -1.4549  -11.3513  -48.1981 C.2       1 UNK         0.5000 
     66 O          -0.4386  -11.1718  -48.8711 O.2       1 UNK        -0.5000 
     67 C          -4.1459  -21.5805  -45.2182 C.2       11 UNK         0.5000 
     68 O          -5.2145  -22.0188  -45.6455 O.2       11 UNK        -0.5000 
     69 N          -3.7516  -21.7187  -43.9448 N.am      12 UNK        -0.5000 
     70 CA         -4.4795  -22.4951  -42.9416 C.3       12 UNK         0.1400 
     71 CB         -3.9761  -22.1250  -41.5382 C.3       12 UNK        -0.1800 
     72 C          -4.3742  -24.0136  -43.1788 C.2       12 UNK         0.5000 
     73 O          -5.3456  -24.7294  -42.9311 O.2       12 UNK        -0.5000 
     74 N          -3.2073  -24.4777  -43.6489 N.am      13 UNK        -0.5000 
     75 CA         -2.9280  -25.8815  -43.9487 C.3       13 UNK         0.1400 
     76 CB         -1.4193  -26.0855  -44.1593 C.3       13 UNK        -0.1800 
     77 C          -3.7275  -26.4106  -45.1520 C.2       13 UNK         0.5000 
     78 O          -4.2749  -27.5114  -45.0665 O.2       13 UNK        -0.5000 
     79 N          -3.8028  -25.6271  -46.2355 N.am      14 UNK        -0.5000 
     80 CA         -4.5728  -25.9546  -47.4329 C.3       14 UNK         0.1400 
     81 CB         -3.8335  -27.0093  -48.2788 C.3       14 UNK        -0.1800 
     82 C          -4.8622  -24.6905  -48.2525 C.2       14 UNK         0.5000 
     83 O          -4.1418  -23.6966  -48.1447 O.2       14 UNK        -0.5000 
     84 N          -5.9114  -24.7665  -49.0806 N.am      15 UNK        -0.5000 
     85 CA         -6.3529  -23.7055  -49.9864 C.3       15 UNK         0.1400 
     86 CB         -7.6420  -24.1614  -50.6877 C.3       15 UNK        -0.1800 
     87 C          -5.2851  -23.3170  -51.0272 C.2       15 UNK         0.5000 
     88 O          -4.4229  -24.1323  -51.3671 O.2       15 UNK        -0.5000 
     89 N          -5.3742  -22.0701  -51.5129 N.am      16 UNK        -0.5000 
     90 CA         -4.4831  -21.4527  -52.5031 C.3       16 UNK         0.1400 
     91 CB         -4.6949  -22.0911  -53.8880 C.3       16 UNK        -0.1800 
     92 C          -3.0055  -21.4382  -52.0525 C.2       16 UNK         0.5000 
     93 O          -2.1026  -21.7165  -52.8479 O.2       16 UNK        -0.5000 
     94 N          -2.8111  -21.1439  -50.7568 N.am      17 UNK        -0.5000 
     95 CA         -1.5382  -21.0772  -50.0286 C.3       17 UNK         0.1400 
     96 CB         -0.6796  -19.9055  -50.5488 C.3       17 UNK        -0.1800 
     97 C          -0.7682  -22.4138  -50.0060 C.2       17 UNK         0.5000 
     98 O           0.4565  -22.4079  -49.8831 O.2       17 UNK        -0.5000 
     99 N          -1.4962  -23.5311  -50.1653 N.am      18 UNK        -0.5000 
    100 CA        -1.0120  -24.9127  -50.2696 C.3       18 UNK         0.1400 
    101 CB        -0.3634  -25.3593  -48.9420 C.3       18 UNK        -0.1800 
    102 C         -0.0887  -25.1732  -51.4829 C.2       18 UNK         0.5000 
    103 O          0.5673  -26.2152  -51.5301 O.2       18 UNK        -0.5000 
    104 N         -0.0470  -24.2333  -52.4362 N.am      19 UNK        -0.5000 
    105 CA         0.8899  -24.2107  -53.5601 C.3       19 UNK         0.1400 
    106 CB         1.8771  -23.0525  -53.3312 C.3       19 UNK        -0.1800 
    107 C          0.1807  -24.0577  -54.9164 C.2       19 UNK         0.5000 
    108 O          0.8638  -23.9972  -55.9395 O.2       19 UNK        -0.5000 
    109 N         -1.1596  -23.9701  -54.9068 N.am      20 UNK        -0.5000 
    110 CA        -2.0265  -23.6563  -56.0500 C.3       20 UNK         0.1400 
    111 CB        -1.9743  -24.7702  -57.1171 C.3       20 UNK        -0.1800 
    112 C         -1.7472  -22.2486  -56.6229 C.2       20 UNK         0.5000 
    113 O         -1.8289  -22.0430  -57.8347 O.2       20 UNK        -0.5000 
    114 N         -1.4165  -21.3012  -55.7324 N.am      21 UNK        -0.5000 
    115 CA        -0.9777  -19.9446  -56.0705 C.3       21 UNK         0.1400 
    116 CB        -0.2956  -19.3280  -54.8387 C.3       21 UNK        -0.1800 
    117 C         -2.0997  -19.0285  -56.5997 C.2       21 UNK         0.5000 
    118 O         -1.8027  -18.0128  -57.2297 O.2       21 UNK        -0.5000 
    119 N         -3.3580  -19.3960  -56.3403 N.am      22 UNK        -0.5000 
    120 CA        -4.5662  -18.6797  -56.7746 C.3       22 UNK         0.1400 
    121 C         -5.7733  -19.6285  -57.0318 C.2       22 UNK         0.5000 
    122 N         -5.5506  -20.9102  -57.3018 N.am      22 UNK        -0.7600 
    123 O         -6.9256  -19.2049  -57.0104 O.2       22 UNK        -0.5000 
    124 C124       -4.8869  -17.4475  -55.8829 C.3       23 UNK        -0.0398 
    125 S125       -5.1807  -17.8338  -54.1200 S.3       23 UNK        -0.2404 
    126 C126       -3.5096  -17.6623  -53.4203 C.3       23 UNK        -0.0205 
    127 H127       -4.3580  -10.5800  -44.3160 H         1 UNK         0.0600 
    128 H128       -5.2007   -9.1768  -44.9816 H         1 UNK         0.0600 
    129 H129       -5.5147  -10.7872  -45.6342 H         1 UNK         0.0600 
    130 H130       -4.5133  -11.1203  -47.6048 H         1 UNK         0.3000 
    131 H131       -2.3459   -9.4532  -48.5363 H         1 UNK         0.0600 
    132 H132       -4.0681  -10.0695  -50.1097 H         1 UNK         0.0800 
    133 H133       -2.5685  -10.7467  -50.6513 H         1 UNK         0.0800 
    134 H134       -1.9115  -13.4008  -50.0647 H         1 UNK         0.0800 
    135 H135       -2.5623  -13.0845  -51.6539 H         1 UNK         0.0800 
    136 H136       -2.9706  -15.0482  -52.8916 H         1 UNK         0.1150 
    137 H137       -4.1166  -18.7033  -50.9757 H         1 UNK         0.1150 
    138 H138       -3.4904  -15.1701  -48.6360 H         1 UNK         0.1150 
    139 H139       -4.7799  -17.1392  -47.7390 H         1 UNK         0.0800 
    140 H140       -4.8806  -18.6200  -48.6634 H         1 UNK         0.0800 
    141 H141       -4.5990  -19.1515  -46.2063 H         1 UNK         0.0800 
    142 H142       -3.1835  -18.8573  -45.2372 H         1 UNK         0.0800 
    143 H143       -3.4010  -21.2150  -47.1776 H         1 UNK         0.0600 
    144 H144       -1.2147  -20.2827  -45.6400 H         1 UNK         0.3000 
    145 H145        0.5000  -23.4238  -45.2611 H         1 UNK         0.0600 
    146 H146        2.2794  -21.8586  -46.1342 H         1 UNK         0.0600 
    147 H147        1.2460  -22.5244  -47.3854 H         1 UNK         0.0600 
    148 H148        1.0168  -20.8638  -46.8585 H         1 UNK         0.0600 
    149 H149        1.0172  -20.7958  -44.2429 H         1 UNK         0.3000 
    150 H150       -0.6648  -21.2627  -41.1119 H         1 UNK         0.0600 
    151 H151        1.5439  -22.4229  -40.8607 H         1 UNK         0.0600 
    152 H152        1.5881  -20.7848  -40.2280 H         1 UNK         0.0600 
    153 H153        2.3210  -21.1454  -41.7899 H         1 UNK         0.0600 
    154 H154        0.9281  -19.1179  -42.0632 H         1 UNK         0.3000 
    155 H155       -1.6633  -17.3552  -43.8315 H         1 UNK         0.0600 
    156 H156       -0.1373  -16.8136  -41.2351 H         1 UNK         0.0600 
    157 H157       -1.8723  -16.6713  -41.4707 H         1 UNK         0.0600 
    158 H158       -0.7847  -15.5730  -42.3092 H         1 UNK         0.0600 
    159 H159        1.0639  -16.7057  -43.5207 H         1 UNK         0.3000 
    160 H160        2.3297  -18.5744  -46.3211 H         1 UNK         0.0600 
    161 H161        3.0374  -16.2996  -46.9643 H         1 UNK         0.0600 
    162 H162        1.8956  -15.5986  -45.8175 H         1 UNK         0.0600 
    163 H163        1.3053  -16.4768  -47.2278 H         1 UNK         0.0600 
    164 H164        3.4461  -16.7475  -44.3576 H         1 UNK         0.3000 
    165 H165        4.6729  -19.3388  -42.2054 H         1 UNK         0.0600 
    166 H166        6.7518  -18.0634  -42.6284 H         1 UNK         0.0600 
    167 H167        6.3361  -19.0101  -44.0483 H         1 UNK         0.0600 
    168 H168        6.0261  -17.2777  -44.0308 H         1 UNK         0.0600 
    169 H169        4.8014  -16.5002  -42.0138 H         1 UNK         0.3000 
    170 H170        1.7654  -15.9602  -40.2592 H         1 UNK         0.0600 
    171 H171        3.2266  -16.9755  -38.5032 H         1 UNK         0.0600 
    172 H172        4.6120  -16.0968  -39.1393 H         1 UNK         0.0600 
    173 H173        3.2525  -15.2214  -38.4335 H         1 UNK         0.0600 
    174 H174        3.8753  -14.1874  -40.5948 H         1 UNK         0.3000 
    175 H175        2.6212  -12.2532  -42.2023 H         1 UNK         0.0600 
    176 H176        5.4225  -13.4023  -42.6850 H         1 UNK         0.0600 
    177 H177        5.0474  -11.6821  -42.6991 H         1 UNK         0.0600 
    178 H178        4.8362  -12.6057  -41.2288 H         1 UNK         0.0600 
    179 H179        2.3380  -12.0227  -44.3725 H         1 UNK         0.3000 
    180 H180        3.3035  -11.6680  -46.5418 H         1 UNK         0.0600 
    181 H181        4.2010  -14.3065  -47.8156 H         1 UNK         0.0600 
    182 H182        5.2424  -12.9326  -47.4677 H         1 UNK         0.0600 
    183 H183        3.9545  -12.7735  -48.6504 H         1 UNK         0.0600 
    184 H184        1.8252  -13.9051  -47.6099 H         1 UNK         0.3000 
    185 H185       -0.3382  -13.8729  -47.8120 H         1 UNK         0.0600 
    186 H186       -1.4015  -13.7031  -44.9410 H         1 UNK         0.0600 
    187 H187       -1.9936  -14.7697  -46.2162 H         1 UNK         0.0600 
    188 H188       -0.3848  -14.9951  -45.5560 H         1 UNK         0.0600 
    189 H189       -2.4353  -12.3558  -46.7482 H         1 UNK         0.3000 
    190 H190       -2.9068  -21.2485  -43.6374 H         1 UNK         0.3000 
    191 H191       -5.5354  -22.2226  -42.9998 H         1 UNK         0.0600 
    192 H192       -2.9229  -22.3724  -41.4080 H         1 UNK         0.0600 
    193 H193       -4.5354  -22.6605  -40.7701 H         1 UNK         0.0600 
    194 H194       -4.0959  -21.0590  -41.3445 H         1 UNK         0.0600 
    195 H195       -2.4390  -23.8276  -43.7723 H         1 UNK         0.3000 
    196 H196       -3.2212  -26.4683  -43.0756 H         1 UNK         0.0600 
    197 H197       -1.1912  -27.1359  -44.3437 H         1 UNK         0.0600 
    198 H198       -0.8532  -25.7803  -43.2792 H         1 UNK         0.0600 
    199 H199       -1.0470  -25.5170  -45.0110 H         1 UNK         0.0600 
    200 H200       -3.3268  -24.7275  -46.2554 H         1 UNK         0.3000 
    201 H201       -5.5362  -26.3638  -47.1208 H         1 UNK         0.0600 
    202 H202       -3.7592  -27.9609  -47.7527 H         1 UNK         0.0600 
    203 H203       -2.8234  -26.6880  -48.5239 H         1 UNK         0.0600 
    204 H204       -4.3538  -27.2023  -49.2177 H         1 UNK         0.0600 
    205 H205       -6.4249  -25.6337  -49.1335 H         1 UNK         0.3000 
    206 H206       -6.5757  -22.8264  -49.3781 H         1 UNK         0.0600 
    207 H207       -7.4753  -25.0535  -51.2931 H         1 UNK         0.0600 
    208 H208       -8.4269  -24.3870  -49.9654 H         1 UNK         0.0600 
    209 H209       -8.0268  -23.3843  -51.3494 H         1 UNK         0.0600 
    210 H210       -6.1253  -21.4814  -51.1798 H         1 UNK         0.3000 
    211 H211       -4.7859  -20.4087  -52.5789 H         1 UNK         0.0600 
    212 H212       -4.4260  -23.1470  -53.8888 H         1 UNK         0.0600 
    213 H213       -4.0956  -21.5909  -54.6457 H         1 UNK         0.0600 
    214 H214       -5.7362  -22.0124  -54.2005 H         1 UNK         0.0600 
    215 H215       -3.6328  -20.9924  -50.1903 H         1 UNK         0.3000 
    216 H216       -1.7886  -20.8662  -48.9893 H         1 UNK         0.0600 
    217 H217       -0.3258  -20.0823  -51.5648 H         1 UNK         0.0600 
    218 H218        0.1968  -19.7531  -49.9179 H         1 UNK         0.0600 
    219 H219       -1.2418  -18.9719  -50.5451 H         1 UNK         0.0600 
    220 H220       -2.4990  -23.4279  -50.2629 H         1 UNK         0.3000 
    221 H221       -1.8996  -25.5249  -50.4324 H         1 UNK         0.0600 
    222 H222        0.5798  -24.8448  -48.7574 H         1 UNK         0.0600 
    223 H223       -1.0207  -25.1621  -48.0956 H         1 UNK         0.0600 
    224 H224       -0.1559  -26.4298  -48.9463 H         1 UNK         0.0600 
    225 H225       -0.6152  -23.4043  -52.3120 H         1 UNK         0.3000 
    226 H226        1.4568  -25.1421  -53.6103 H         1 UNK         0.0600 
    227 H227        2.4115  -23.1727  -52.3886 H         1 UNK         0.0600 
    228 H228        2.6250  -23.0052  -54.1237 H         1 UNK         0.0600 
    229 H229        1.3643  -22.0900  -53.3022 H         1 UNK         0.0600 
    230 H230       -1.6228  -24.0300  -54.0111 H         1 UNK         0.3000 
    231 H231       -3.0456  -23.6335  -55.6680 H         1 UNK         0.0600 
    232 H232       -2.1622  -25.7485  -56.6750 H         1 UNK         0.0600 
    233 H233       -1.0087  -24.8094  -57.6215 H         1 UNK         0.0600 
    234 H234       -2.7337  -24.6106  -57.8834 H         1 UNK         0.0600 
    235 H235       -1.4199  -21.5410  -54.7457 H         1 UNK         0.3000 
    236 H236       -0.2310  -20.0204  -56.8638 H         1 UNK         0.0600 
    237 H237        0.0232  -18.3033  -55.0343 H         1 UNK         0.0600 
    238 H238       -0.9591  -19.3082  -53.9751 H         1 UNK         0.0600 
    239 H239        0.5924  -19.8950  -54.5592 H         1 UNK         0.0600 
    240 H240       -3.5157  -20.2366  -55.8071 H         1 UNK         0.3000 
    241 H241       -4.3575  -18.2846  -57.7705 H         1 UNK         0.0600 
    242 H242       -6.3386  -21.5143  -57.4765 H         1 UNK         0.3800 
    243 H243       -4.6165  -21.2571  -57.4474 H         1 UNK         0.3800 
    244 H244       -4.0826  -16.7160  -55.9644 H         1 UNK         0.0800 
    245 H245       -5.7693  -16.9305  -56.2626 H         1 UNK         0.0800 
    246 H246       -3.0752  -18.6543  -53.3033 H         1 UNK         0.0800 
    247 H247       -2.8532  -17.1262  -54.1066 H         1 UNK         0.0800 
@<TRIPOS>BOND
     1    1    2 1    
     2    1  127 1    
     3    1  128 1    
     4    1  129 1    
     5    2    3 2    
     6    2    4 am   BACKBONE|DICT|INTERRES
     7    4    5 1    
     8    4  130 1    
     9    5    6 1    
    10    5   65 1    
    11    5  131 1    
    12    6    7 1    
    13    6  132 1    
    14    6  133 1    
    15    7    8 1    
    16    8    9 1    
    17    8  134 1    
    18    8  135 1    
    19    9   10 ar   
    20    9   14 ar   
    21   10   11 ar   
    22   10  136 1    
    23   11   12 ar   
    24   11  126 1    
    25   12   13 ar   
    26   12  137 1    
    27   13   14 ar   
    28   13   15 1    
    29   14  138 1    
    30   15   16 1    
    31   15  139 1    
    32   15  140 1    
    33   16   17 1    
    34   17   18 1    
    35   17  141 1    
    36   17  142 1    
    37   18   19 1    
    38   18   67 1    
    39   18  143 1    
    40   19   20 am   BACKBONE|DICT|INTERRES
    41   19  144 1    
    42   20   21 2    
    43   20   22 1    
    44   22   23 1    
    45   22   24 1    
    46   22  145 1    
    47   23  146 1    
    48   23  147 1    
    49   23  148 1    
    50   24   25 am   BACKBONE|DICT|INTERRES
    51   24  149 1    
    52   25   26 2    
    53   25   27 1    
    54   27   28 1    
    55   27   29 1    
    56   27  150 1    
    57   28  151 1    
    58   28  152 1    
    59   28  153 1    
    60   29   30 am   BACKBONE|DICT|INTERRES
    61   29  154 1    
    62   30   31 2    
    63   30   32 1    
    64   32   33 1    
    65   32   34 1    
    66   32  155 1    
    67   33  156 1    
    68   33  157 1    
    69   33  158 1    
    70   34   35 am   BACKBONE|DICT|INTERRES
    71   34  159 1    
    72   35   36 2    
    73   35   37 1    
    74   37   38 1    
    75   37   39 1    
    76   37  160 1    
    77   38  161 1    
    78   38  162 1    
    79   38  163 1    
    80   39   40 am   BACKBONE|DICT|INTERRES
    81   39  164 1    
    82   40   41 2    
    83   40   42 1    
    84   42   43 1    
    85   42   44 1    
    86   42  165 1    
    87   43  166 1    
    88   43  167 1    
    89   43  168 1    
    90   44   45 am   BACKBONE|DICT|INTERRES
    91   44  169 1    
    92   45   46 2    
    93   45   47 1    
    94   47   48 1    
    95   47   49 1    
    96   47  170 1    
    97   48  171 1    
    98   48  172 1    
    99   48  173 1    
   100   49   50 am   BACKBONE|DICT|INTERRES
   101   49  174 1    
   102   50   51 2    
   103   50   52 1    
   104   52   53 1    
   105   52   54 1    
   106   52  175 1    
   107   53  176 1    
   108   53  177 1    
   109   53  178 1    
   110   54   55 am   BACKBONE|DICT|INTERRES
   111   54  179 1    
   112   55   56 2    
   113   55   57 1    
   114   57   58 1    
   115   57   59 1    
   116   57  180 1    
   117   58  181 1    
   118   58  182 1    
   119   58  183 1    
   120   59   60 am   BACKBONE|DICT|INTERRES
   121   59  184 1    
   122   60   61 2    
   123   60   62 1    
   124   62   63 1    
   125   62   64 1    
   126   62  185 1    
   127   63  186 1    
   128   63  187 1    
   129   63  188 1    
   130   64   65 am   BACKBONE|DICT|INTERRES
   131   64  189 1    
   132   65   66 2    
   133   67   68 2    
   134   67   69 am   BACKBONE|DICT|INTERRES
   135   69   70 1    
   136   69  190 1    
   137   70   71 1    
   138   70   72 1    
   139   70  191 1    
   140   71  192 1    
   141   71  193 1    
   142   71  194 1    
   143   72   73 2    
   144   72   74 am   BACKBONE|DICT|INTERRES
   145   74   75 1    
   146   74  195 1    
   147   75   76 1    
   148   75   77 1    
   149   75  196 1    
   150   76  197 1    
   151   76  198 1    
   152   76  199 1    
   153   77   78 2    
   154   77   79 am   BACKBONE|DICT|INTERRES
   155   79   80 1    
   156   79  200 1    
   157   80   81 1    
   158   80   82 1    
   159   80  201 1    
   160   81  202 1    
   161   81  203 1    
   162   81  204 1    
   163   82   83 2    
   164   82   84 am   BACKBONE|DICT|INTERRES
   165   84   85 1    
   166   84  205 1    
   167   85   86 1    
   168   85   87 1    
   169   85  206 1    
   170   86  207 1    
   171   86  208 1    
   172   86  209 1    
   173   87   88 2    
   174   87   89 am   BACKBONE|DICT|INTERRES
   175   89   90 1    
   176   89  210 1    
   177   90   91 1    
   178   90   92 1    
   179   90  211 1    
   180   91  212 1    
   181   91  213 1    
   182   91  214 1    
   183   92   93 2    
   184   92   94 am   BACKBONE|DICT|INTERRES
   185   94   95 1    
   186   94  215 1    
   187   95   96 1    
   188   95   97 1    
   189   95  216 1    
   190   96  217 1    
   191   96  218 1    
   192   96  219 1    
   193   97   98 2    
   194   97   99 am   BACKBONE|DICT|INTERRES
   195   99  100 1    
   196   99  220 1    
   197  100  101 1    
   198  100  102 1    
   199  100  221 1    
   200  101  222 1    
   201  101  223 1    
   202  101  224 1    
   203  102  103 2    
   204  102  104 am   BACKBONE|DICT|INTERRES
   205  104  105 1    
   206  104  225 1    
   207  105  106 1    
   208  105  107 1    
   209  105  226 1    
   210  106  227 1    
   211  106  228 1    
   212  106  229 1    
   213  107  108 2    
   214  107  109 am   BACKBONE|DICT|INTERRES
   215  109  110 1    
   216  109  230 1    
   217  110  111 1    
   218  110  112 1    
   219  110  231 1    
   220  111  232 1    
   221  111  233 1    
   222  111  234 1    
   223  112  113 2    
   224  112  114 am   BACKBONE|DICT|INTERRES
   225  114  115 1    
   226  114  235 1    
   227  115  116 1    
   228  115  117 1    
   229  115  236 1    
   230  116  237 1    
   231  116  238 1    
   232  116  239 1    
   233  117  118 2    
   234  117  119 am   BACKBONE|DICT|INTERRES
   235  119  120 1    
   236  119  240 1    
   237  120  121 1    
   238  120  124 1    
   239  120  241 1    
   240  121  122 am   BACKBONE|DICT|INTERRES
   241  121  123 2    
   242  122  242 1    
   243  122  243 1    
   244  124  125 1    
   245  124  244 1    
   246  124  245 1    
   247  125  126 1    
   248  126  246 1    
   249  126  247 1    
@<TRIPOS>SUBSTRUCTURE
     1 UNK         1 GROUP             0       ****    0 ROOT    
