@<TRIPOS>MOLECULE
3R540
247   249    1
SMALL
USER_CHARGES


@<TRIPOS>ATOM
      1 CA          0.5827  -11.5462  -49.2455 C.3       0 UNK        -0.1800 
      2 C           2.0628  -11.8935  -49.2879 C.2       0 UNK         0.5000 
      3 O           2.8259  -11.4180  -48.4473 O.2       0 UNK        -0.5000 
      4 N           2.4683  -12.7293  -50.2543 N.am      1 UNK        -0.5000 
      5 CA          3.8596  -13.1155  -50.5460 C.3       1 UNK         0.1400 
      6 C6          4.0087  -13.9542  -51.8507 C.3       23 UNK        -0.0398 
      7 S7          2.7959  -13.5519  -53.1660 S.3       23 UNK        -0.2404 
      8 C8          1.8834  -15.1226  -53.3881 C.3       23 UNK        -0.0205 
      9 C9          1.4380  -15.7510  -52.0733 C.ar      23 UNK        -0.0193 
     10 C10         0.4578  -15.1370  -51.2900 C.ar      23 UNK        -0.1150 
     11 C11         0.0958  -15.6815  -50.0547 C.ar      23 UNK        -0.0193 
     12 C12         0.7146  -16.8526  -49.6114 C.ar      23 UNK        -0.1150 
     13 C13         1.6788  -17.4927  -50.3949 C.ar      23 UNK        -0.0193 
     14 C14         2.0298  -16.9376  -51.6284 C.ar      23 UNK        -0.1150 
     15 C15         2.3760  -18.7552  -49.9005 C.3       23 UNK        -0.0205 
     16 S16         1.2690  -20.2018  -49.8665 S.3       23 UNK        -0.2404 
     17 C17         0.4981  -20.0458  -48.2195 C.3       23 UNK        -0.0398 
     18 CA          0.0971  -21.4176  -47.6218 C.3       11 UNK         0.1400 
     19 N           0.1303  -21.4189  -46.1560 N.am      11 UNK        -0.5000 
     20 C          -0.0347  -22.5011  -45.3819 C.2       10 UNK         0.5000 
     21 O          -0.1648  -23.6416  -45.8242 O.2       10 UNK        -0.5000 
     22 CA         -0.1296  -22.2683  -43.8617 C.3       10 UNK         0.1400 
     23 CB          1.2652  -22.1970  -43.2239 C.3       10 UNK        -0.1800 
     24 N          -0.8974  -21.0677  -43.5250 N.am      10 UNK        -0.5000 
     25 C          -2.2029  -20.9125  -43.7904 C.2       9 UNK         0.5000 
     26 O          -2.9068  -21.7959  -44.2791 O.2       9 UNK        -0.5000 
     27 CA         -2.8131  -19.5246  -43.5214 C.3       9 UNK         0.1400 
     28 CB         -3.1880  -19.3650  -42.0409 C.3       9 UNK        -0.1800 
     29 N          -1.9289  -18.4325  -43.9310 N.am      9 UNK        -0.5000 
     30 C          -1.5392  -18.2048  -45.1937 C.2       8 UNK         0.5000 
     31 O          -1.9316  -18.8605  -46.1587 O.2       8 UNK        -0.5000 
     32 CA         -0.4866  -17.1023  -45.4069 C.3       8 UNK         0.1400 
     33 CB         -1.1389  -15.7127  -45.4104 C.3       8 UNK        -0.1800 
     34 N           0.5800  -17.1478  -44.4059 N.am      8 UNK        -0.5000 
     35 C           1.4355  -18.1682  -44.2497 C.2       7 UNK         0.5000 
     36 O           1.4615  -19.1482  -44.9914 O.2       7 UNK        -0.5000 
     37 CA          2.3807  -18.1161  -43.0355 C.3       7 UNK         0.1400 
     38 CB          3.6477  -17.3014  -43.3283 C.3       7 UNK        -0.1800 
     39 N           1.7164  -17.5717  -41.8547 N.am      7 UNK        -0.5000 
     40 C           0.7711  -18.2172  -41.1592 C.2       6 UNK         0.5000 
     41 O           0.3878  -19.3572  -41.4207 O.2       6 UNK        -0.5000 
     42 CA          0.1194  -17.4343  -40.0058 C.3       6 UNK         0.1400 
     43 CB          0.9651  -17.5450  -38.7287 C.3       6 UNK        -0.1800 
     44 N          -0.0791  -16.0217  -40.3379 N.am      6 UNK        -0.5000 
     45 C          -0.9421  -15.5833  -41.2648 C.2       5 UNK         0.5000 
     46 O          -1.6810  -16.3238  -41.9126 O.2       5 UNK        -0.5000 
     47 CA         -0.9477  -14.0696  -41.5434 C.3       5 UNK         0.1400 
     48 CB         -1.8435  -13.3375  -40.5332 C.3       5 UNK        -0.1800 
     49 N           0.3917  -13.4731  -41.5312 N.am      5 UNK        -0.5000 
     50 C           1.3551  -13.7566  -42.4169 C.2       4 UNK         0.5000 
     51 O           1.2396  -14.5958  -43.3127 O.2       4 UNK        -0.5000 
     52 CA          2.6788  -13.0013  -42.2625 C.3       4 UNK         0.1400 
     53 CB          3.6420  -13.7701  -41.3404 C.3       4 UNK        -0.1800 
     54 N           3.2693  -12.8253  -43.5858 N.am      4 UNK        -0.5000 
     55 C           4.1835  -11.9048  -43.9116 C.2       3 UNK         0.5000 
     56 O           4.6572  -11.1140  -43.0933 O.2       3 UNK        -0.5000 
     57 CA          4.6205  -11.8076  -45.3915 C.3       3 UNK         0.1400 
     58 CB          6.1303  -11.5252  -45.5370 C.3       3 UNK        -0.1800 
     59 N           4.2216  -12.9310  -46.2494 N.am      3 UNK        -0.5000 
     60 C           4.6297  -14.2083  -46.1780 C.2       2 UNK         0.5000 
     61 O           5.3579  -14.6479  -45.2889 O.2       2 UNK        -0.5000 
     62 CA          4.1437  -15.1648  -47.2877 C.3       2 UNK         0.1400 
     63 CB          2.9582  -15.9999  -46.7895 C.3       2 UNK        -0.1800 
     64 N           3.7355  -14.4866  -48.5160 N.am      2 UNK        -0.5000 
     65 C           4.5462  -13.8432  -49.3678 C.2       1 UNK         0.5000 
     66 O           5.7712  -13.8000  -49.2507 O.2       1 UNK        -0.5000 
     67 C          -1.2718  -21.8828  -48.1586 C.2       11 UNK         0.5000 
     68 O          -1.3193  -22.7524  -49.0261 O.2       11 UNK        -0.5000 
     69 N          -2.3605  -21.3358  -47.5985 N.am      12 UNK        -0.5000 
     70 CA         -3.7364  -21.7132  -47.9240 C.3       12 UNK         0.1400 
     71 CB         -4.7137  -20.7452  -47.2441 C.3       12 UNK        -0.1800 
     72 C          -4.0663  -23.1745  -47.5632 C.2       12 UNK         0.5000 
     73 O          -4.7918  -23.8313  -48.3113 O.2       12 UNK        -0.5000 
     74 N          -3.5105  -23.6716  -46.4502 N.am      13 UNK        -0.5000 
     75 CA         -3.5960  -25.0742  -46.0455 C.3       13 UNK         0.1400 
     76 CB         -3.0988  -25.2365  -44.6013 C.3       13 UNK        -0.1800 
     77 C          -2.8305  -25.9988  -47.0100 C.2       13 UNK         0.5000 
     78 O          -3.3959  -26.9912  -47.4693 O.2       13 UNK        -0.5000 
     79 N          -1.5842  -25.6312  -47.3434 N.am      14 UNK        -0.5000 
     80 CA         -0.7205  -26.3379  -48.2966 C.3       14 UNK         0.1400 
     81 CB          0.6796  -25.7066  -48.2823 C.3       14 UNK        -0.1800 
     82 C          -1.2864  -26.3703  -49.7300 C.2       14 UNK         0.5000 
     83 O          -1.0974  -27.3594  -50.4384 O.2       14 UNK        -0.5000 
     84 N          -2.0104  -25.3099  -50.1096 N.am      15 UNK        -0.5000 
     85 CA         -2.7689  -25.1817  -51.3546 C.3       15 UNK         0.1400 
     86 CB         -3.1516  -23.7045  -51.5390 C.3       15 UNK        -0.1800 
     87 C          -4.0183  -26.0874  -51.4346 C.2       15 UNK         0.5000 
     88 O          -4.6225  -26.1630  -52.5041 O.2       15 UNK        -0.5000 
     89 N          -4.3673  -26.7621  -50.3275 N.am      16 UNK        -0.5000 
     90 CA         -5.5214  -27.6407  -50.1319 C.3       16 UNK         0.1400 
     91 CB         -5.5284  -28.8198  -51.1285 C.3       16 UNK        -0.1800 
     92 C          -6.8319  -26.8351  -50.1102 C.2       16 UNK         0.5000 
     93 O          -7.6786  -26.9897  -50.9924 O.2       16 UNK        -0.5000 
     94 N          -6.9538  -25.9922  -49.0749 N.am      17 UNK        -0.5000 
     95 CA         -8.0720  -25.0928  -48.7786 C.3       17 UNK         0.1400 
     96 CB         -9.3990  -25.8629  -48.6016 C.3       17 UNK        -0.1800 
     97 C          -8.1559  -23.9317  -49.7864 C.2       17 UNK         0.5000 
     98 O          -9.1912  -23.7225  -50.4219 O.2       17 UNK        -0.5000 
     99 N          -7.0473  -23.1863  -49.8760 N.am      18 UNK        -0.5000 
    100 CA        -6.8438  -21.9834  -50.6829 C.3       18 UNK         0.1400 
    101 CB        -7.7725  -20.8431  -50.2027 C.3       18 UNK        -0.1800 
    102 C         -6.9104  -22.2687  -52.1987 C.2       18 UNK         0.5000 
    103 O         -6.4126  -23.3045  -52.6415 O.2       18 UNK        -0.5000 
    104 N         -7.4688  -21.3273  -52.9716 N.am      19 UNK        -0.5000 
    105 CA        -7.6025  -21.2924  -54.4332 C.3       19 UNK         0.1400 
    106 CB        -8.3877  -22.5033  -54.9747 C.3       19 UNK        -0.1800 
    107 C         -6.2622  -21.1006  -55.1678 C.2       19 UNK         0.5000 
    108 O         -6.1156  -20.1243  -55.9036 O.2       19 UNK        -0.5000 
    109 N         -5.3011  -22.0061  -54.9424 N.am      20 UNK        -0.5000 
    110 CA        -3.9435  -21.9292  -55.4939 C.3       20 UNK         0.1400 
    111 CB        -3.3287  -23.3367  -55.5473 C.3       20 UNK        -0.1800 
    112 C         -3.0370  -20.9439  -54.7255 C.2       20 UNK         0.5000 
    113 O         -2.0018  -20.5366  -55.2541 O.2       20 UNK        -0.5000 
    114 N         -3.4523  -20.5581  -53.5144 N.am      21 UNK        -0.5000 
    115 CA        -2.8910  -19.4811  -52.7082 C.3       21 UNK         0.1400 
    116 CB        -1.9045  -20.0585  -51.6801 C.3       21 UNK        -0.1800 
    117 C         -4.0726  -18.7933  -51.9988 C.2       21 UNK         0.5000 
    118 O         -5.0633  -19.4699  -51.7214 O.2       21 UNK        -0.5000 
    119 N         -4.0167  -17.4967  -51.6754 N.am      22 UNK        -0.5000 
    120 CA        -2.9728  -16.5132  -52.0168 C.3       22 UNK         0.1400 
    121 C         -3.0072  -16.0256  -53.4969 C.2       22 UNK         0.5000 
    122 N         -4.0266  -16.3502  -54.2831 N.am      22 UNK        -0.7600 
    123 O         -2.0808  -15.3570  -53.9444 O.2       22 UNK        -0.5000 
    124 C124       -3.0274  -15.3052  -51.0483 C.3       23 UNK        -0.0398 
    125 S125       -2.5833  -15.7731  -49.3402 S.3       23 UNK        -0.2404 
    126 C126       -0.9454  -14.9978  -49.1835 C.3       23 UNK        -0.0205 
    127 H127        0.4539  -10.4653  -49.1915 H         1 UNK         0.0600 
    128 H128        0.1180  -11.9890  -48.3647 H         1 UNK         0.0600 
    129 H129        0.0589  -11.9026  -50.1325 H         1 UNK         0.0600 
    130 H130        1.7952  -13.0838  -50.9187 H         1 UNK         0.3000 
    131 H131        4.4034  -12.1805  -50.6954 H         1 UNK         0.0600 
    132 H132        5.0062  -13.7963  -52.2635 H         1 UNK         0.0800 
    133 H133        3.9648  -15.0226  -51.6413 H         1 UNK         0.0800 
    134 H134        1.0063  -14.9381  -54.0103 H         1 UNK         0.0800 
    135 H135        2.5127  -15.8152  -53.9491 H         1 UNK         0.0800 
    136 H136       -0.0084  -14.2269  -51.6396 H         1 UNK         0.1150 
    137 H137        0.4431  -17.2623  -48.6518 H         1 UNK         0.1150 
    138 H138        2.7867  -17.4164  -52.2335 H         1 UNK         0.1150 
    139 H139        3.2172  -18.9948  -50.5525 H         1 UNK         0.0800 
    140 H140        2.8100  -18.5834  -48.9156 H         1 UNK         0.0800 
    141 H141       -0.3556  -19.3696  -48.2830 H         1 UNK         0.0800 
    142 H142        1.2185  -19.5582  -47.5633 H         1 UNK         0.0800 
    143 H143        0.8371  -22.1571  -47.9352 H         1 UNK         0.0600 
    144 H144        0.3028  -20.5259  -45.7040 H         1 UNK         0.3000 
    145 H145       -0.6509  -23.1244  -43.4290 H         1 UNK         0.0600 
    146 H146        1.1987  -22.0724  -42.1429 H         1 UNK         0.0600 
    147 H147        1.8250  -23.1139  -43.4124 H         1 UNK         0.0600 
    148 H148        1.8520  -21.3696  -43.6204 H         1 UNK         0.0600 
    149 H149       -0.3961  -20.3142  -43.0672 H         1 UNK         0.3000 
    150 H150       -3.7286  -19.4469  -44.1112 H         1 UNK         0.0600 
    151 H151       -3.8718  -20.1535  -41.7247 H         1 UNK         0.0600 
    152 H152       -3.6851  -18.4116  -41.8615 H         1 UNK         0.0600 
    153 H153       -2.3121  -19.4113  -41.3941 H         1 UNK         0.0600 
    154 H154       -1.6067  -17.8066  -43.1988 H         1 UNK         0.3000 
    155 H155       -0.0303  -17.2650  -46.3841 H         1 UNK         0.0600 
    156 H156       -1.5929  -15.4771  -44.4489 H         1 UNK         0.0600 
    157 H157       -1.9257  -15.6532  -46.1630 H         1 UNK         0.0600 
    158 H158       -0.4093  -14.9343  -45.6339 H         1 UNK         0.0600 
    159 H159        0.6723  -16.3342  -43.8042 H         1 UNK         0.3000 
    160 H160        2.6881  -19.1394  -42.8101 H         1 UNK         0.0600 
    161 H161        3.4156  -16.2717  -43.6008 H         1 UNK         0.0600 
    162 H162        4.2135  -17.7440  -44.1483 H         1 UNK         0.0600 
    163 H163        4.3087  -17.2761  -42.4622 H         1 UNK         0.0600 
    164 H164        1.9433  -16.6231  -41.5992 H         1 UNK         0.3000 
    165 H165       -0.8575  -17.8812  -39.8092 H         1 UNK         0.0600 
    166 H166        0.4751  -17.0538  -37.8881 H         1 UNK         0.0600 
    167 H167        1.1160  -18.5890  -38.4507 H         1 UNK         0.0600 
    168 H168        1.9497  -17.0930  -38.8548 H         1 UNK         0.0600 
    169 H169        0.4901  -15.3480  -39.8474 H         1 UNK         0.3000 
    170 H170       -1.3701  -13.9202  -42.5391 H         1 UNK         0.0600 
    171 H171       -2.8530  -13.7509  -40.5357 H         1 UNK         0.0600 
    172 H172       -1.4575  -13.4196  -39.5165 H         1 UNK         0.0600 
    173 H173       -1.9277  -12.2781  -40.7763 H         1 UNK         0.0600 
    174 H174        0.5678  -12.7792  -40.8189 H         1 UNK         0.3000 
    175 H175        2.4678  -12.0200  -41.8326 H         1 UNK         0.0600 
    176 H176        3.9135  -14.7387  -41.7595 H         1 UNK         0.0600 
    177 H177        4.5629  -13.2109  -41.1757 H         1 UNK         0.0600 
    178 H178        3.1937  -13.9472  -40.3622 H         1 UNK         0.0600 
    179 H179        2.8947  -13.4356  -44.3004 H         1 UNK         0.3000 
    180 H180        4.0926  -10.9409  -45.7913 H         1 UNK         0.0600 
    181 H181        6.7347  -12.3169  -45.0939 H         1 UNK         0.0600 
    182 H182        6.4056  -10.5915  -45.0455 H         1 UNK         0.0600 
    183 H183        6.4142  -11.4329  -46.5853 H         1 UNK         0.0600 
    184 H184        3.6327  -12.6663  -47.0324 H         1 UNK         0.3000 
    185 H185        4.9666  -15.8399  -47.5309 H         1 UNK         0.0600 
    186 H186        3.2575  -16.6186  -45.9489 H         1 UNK         0.0600 
    187 H187        2.1237  -15.3761  -46.4659 H         1 UNK         0.0600 
    188 H188        2.5966  -16.6761  -47.5600 H         1 UNK         0.0600 
    189 H189        2.7459  -14.4692  -48.7134 H         1 UNK         0.3000 
    190 H190       -2.2379  -20.5922  -46.9158 H         1 UNK         0.3000 
    191 H191       -3.8565  -21.6054  -49.0030 H         1 UNK         0.0600 
    192 H192       -4.5332  -19.7177  -47.5608 H         1 UNK         0.0600 
    193 H193       -5.7454  -20.9888  -47.4994 H         1 UNK         0.0600 
    194 H194       -4.6263  -20.7807  -46.1581 H         1 UNK         0.0600 
    195 H195       -2.9918  -23.0465  -45.8418 H         1 UNK         0.3000 
    196 H196       -4.6481  -25.3656  -46.0697 H         1 UNK         0.0600 
    197 H197       -3.2024  -26.2699  -44.2685 H         1 UNK         0.0600 
    198 H198       -3.6735  -24.6140  -43.9153 H         1 UNK         0.0600 
    199 H199       -2.0492  -24.9637  -44.4983 H         1 UNK         0.0600 
    200 H200       -1.1815  -24.8106  -46.8968 H         1 UNK         0.3000 
    201 H201       -0.6313  -27.3713  -47.9564 H         1 UNK         0.0600 
    202 H202        1.1233  -25.7542  -47.2878 H         1 UNK         0.0600 
    203 H203        0.6512  -24.6598  -48.5856 H         1 UNK         0.0600 
    204 H204        1.3517  -26.2289  -48.9643 H         1 UNK         0.0600 
    205 H205       -2.0184  -24.4982  -49.4983 H         1 UNK         0.3000 
    206 H206       -2.1155  -25.4685  -52.1806 H         1 UNK         0.0600 
    207 H207       -2.2649  -23.0821  -51.6554 H         1 UNK         0.0600 
    208 H208       -3.7694  -23.5575  -52.4222 H         1 UNK         0.0600 
    209 H209       -3.7200  -23.3284  -50.6907 H         1 UNK         0.0600 
    210 H210       -3.8004  -26.6238  -49.4990 H         1 UNK         0.3000 
    211 H211       -5.4053  -28.0724  -49.1365 H         1 UNK         0.0600 
    212 H212       -5.7015  -28.4957  -52.1547 H         1 UNK         0.0600 
    213 H213       -6.3180  -29.5289  -50.8784 H         1 UNK         0.0600 
    214 H214       -4.5835  -29.3626  -51.1024 H         1 UNK         0.0600 
    215 H215       -6.1575  -25.8956  -48.4586 H         1 UNK         0.3000 
    216 H216       -7.8399  -24.6379  -47.8140 H         1 UNK         0.0600 
    217 H217      -10.1865  -25.1973  -48.2465 H         1 UNK         0.0600 
    218 H218       -9.2960  -26.6632  -47.8686 H         1 UNK         0.0600 
    219 H219       -9.7479  -26.3046  -49.5353 H         1 UNK         0.0600 
    220 H220       -6.2350  -23.4903  -49.3426 H         1 UNK         0.3000 
    221 H221       -5.8177  -21.6744  -50.4850 H         1 UNK         0.0600 
    222 H222       -8.8180  -21.0378  -50.4436 H         1 UNK         0.0600 
    223 H223       -7.7018  -20.7112  -49.1233 H         1 UNK         0.0600 
    224 H224       -7.5004  -19.8883  -50.6527 H         1 UNK         0.0600 
    225 H225       -7.7963  -20.4948  -52.5015 H         1 UNK         0.3000 
    226 H226       -8.2018  -20.4057  -54.6456 H         1 UNK         0.0600 
    227 H227       -9.3564  -22.5943  -54.4836 H         1 UNK         0.0600 
    228 H228       -8.5739  -22.3959  -56.0438 H         1 UNK         0.0600 
    229 H229       -7.8522  -23.4422  -54.8335 H         1 UNK         0.0600 
    230 H230       -5.5036  -22.7568  -54.2876 H         1 UNK         0.3000 
    231 H231       -4.0090  -21.5636  -56.5209 H         1 UNK         0.0600 
    232 H232       -3.2272  -23.7808  -54.5592 H         1 UNK         0.0600 
    233 H233       -2.3346  -23.3100  -55.9954 H         1 UNK         0.0600 
    234 H234       -3.9379  -24.0079  -56.1528 H         1 UNK         0.0600 
    235 H235       -4.3441  -20.8962  -53.1770 H         1 UNK         0.3000 
    236 H236       -2.3741  -18.7784  -53.3617 H         1 UNK         0.0600 
    237 H237       -1.0998  -20.6096  -52.1671 H         1 UNK         0.0600 
    238 H238       -1.4448  -19.2642  -51.0911 H         1 UNK         0.0600 
    239 H239       -2.3990  -20.7346  -50.9819 H         1 UNK         0.0600 
    240 H240       -4.8051  -17.1106  -51.1784 H         1 UNK         0.3000 
    241 H241       -1.9991  -16.9879  -51.8846 H         1 UNK         0.0600 
    242 H242       -4.8105  -16.8758  -53.9295 H         1 UNK         0.3800 
    243 H243       -4.0306  -16.0318  -55.2400 H         1 UNK         0.3800 
    244 H244       -2.3684  -14.5018  -51.3793 H         1 UNK         0.0800 
    245 H245       -4.0290  -14.8725  -51.0376 H         1 UNK         0.0800 
    246 H246       -0.6262  -15.0385  -48.1427 H         1 UNK         0.0800 
    247 H247       -1.0267  -13.9402  -49.4322 H         1 UNK         0.0800 
@<TRIPOS>BOND
     1    1    2 1    
     2    1  127 1    
     3    1  128 1    
     4    1  129 1    
     5    2    3 2    
     6    2    4 am   BACKBONE|DICT|INTERRES
     7    4    5 1    
     8    4  130 1    
     9    5    6 1    
    10    5   65 1    
    11    5  131 1    
    12    6    7 1    
    13    6  132 1    
    14    6  133 1    
    15    7    8 1    
    16    8    9 1    
    17    8  134 1    
    18    8  135 1    
    19    9   10 ar   
    20    9   14 ar   
    21   10   11 ar   
    22   10  136 1    
    23   11   12 ar   
    24   11  126 1    
    25   12   13 ar   
    26   12  137 1    
    27   13   14 ar   
    28   13   15 1    
    29   14  138 1    
    30   15   16 1    
    31   15  139 1    
    32   15  140 1    
    33   16   17 1    
    34   17   18 1    
    35   17  141 1    
    36   17  142 1    
    37   18   19 1    
    38   18   67 1    
    39   18  143 1    
    40   19   20 am   BACKBONE|DICT|INTERRES
    41   19  144 1    
    42   20   21 2    
    43   20   22 1    
    44   22   23 1    
    45   22   24 1    
    46   22  145 1    
    47   23  146 1    
    48   23  147 1    
    49   23  148 1    
    50   24   25 am   BACKBONE|DICT|INTERRES
    51   24  149 1    
    52   25   26 2    
    53   25   27 1    
    54   27   28 1    
    55   27   29 1    
    56   27  150 1    
    57   28  151 1    
    58   28  152 1    
    59   28  153 1    
    60   29   30 am   BACKBONE|DICT|INTERRES
    61   29  154 1    
    62   30   31 2    
    63   30   32 1    
    64   32   33 1    
    65   32   34 1    
    66   32  155 1    
    67   33  156 1    
    68   33  157 1    
    69   33  158 1    
    70   34   35 am   BACKBONE|DICT|INTERRES
    71   34  159 1    
    72   35   36 2    
    73   35   37 1    
    74   37   38 1    
    75   37   39 1    
    76   37  160 1    
    77   38  161 1    
    78   38  162 1    
    79   38  163 1    
    80   39   40 am   BACKBONE|DICT|INTERRES
    81   39  164 1    
    82   40   41 2    
    83   40   42 1    
    84   42   43 1    
    85   42   44 1    
    86   42  165 1    
    87   43  166 1    
    88   43  167 1    
    89   43  168 1    
    90   44   45 am   BACKBONE|DICT|INTERRES
    91   44  169 1    
    92   45   46 2    
    93   45   47 1    
    94   47   48 1    
    95   47   49 1    
    96   47  170 1    
    97   48  171 1    
    98   48  172 1    
    99   48  173 1    
   100   49   50 am   BACKBONE|DICT|INTERRES
   101   49  174 1    
   102   50   51 2    
   103   50   52 1    
   104   52   53 1    
   105   52   54 1    
   106   52  175 1    
   107   53  176 1    
   108   53  177 1    
   109   53  178 1    
   110   54   55 am   BACKBONE|DICT|INTERRES
   111   54  179 1    
   112   55   56 2    
   113   55   57 1    
   114   57   58 1    
   115   57   59 1    
   116   57  180 1    
   117   58  181 1    
   118   58  182 1    
   119   58  183 1    
   120   59   60 am   BACKBONE|DICT|INTERRES
   121   59  184 1    
   122   60   61 2    
   123   60   62 1    
   124   62   63 1    
   125   62   64 1    
   126   62  185 1    
   127   63  186 1    
   128   63  187 1    
   129   63  188 1    
   130   64   65 am   BACKBONE|DICT|INTERRES
   131   64  189 1    
   132   65   66 2    
   133   67   68 2    
   134   67   69 am   BACKBONE|DICT|INTERRES
   135   69   70 1    
   136   69  190 1    
   137   70   71 1    
   138   70   72 1    
   139   70  191 1    
   140   71  192 1    
   141   71  193 1    
   142   71  194 1    
   143   72   73 2    
   144   72   74 am   BACKBONE|DICT|INTERRES
   145   74   75 1    
   146   74  195 1    
   147   75   76 1    
   148   75   77 1    
   149   75  196 1    
   150   76  197 1    
   151   76  198 1    
   152   76  199 1    
   153   77   78 2    
   154   77   79 am   BACKBONE|DICT|INTERRES
   155   79   80 1    
   156   79  200 1    
   157   80   81 1    
   158   80   82 1    
   159   80  201 1    
   160   81  202 1    
   161   81  203 1    
   162   81  204 1    
   163   82   83 2    
   164   82   84 am   BACKBONE|DICT|INTERRES
   165   84   85 1    
   166   84  205 1    
   167   85   86 1    
   168   85   87 1    
   169   85  206 1    
   170   86  207 1    
   171   86  208 1    
   172   86  209 1    
   173   87   88 2    
   174   87   89 am   BACKBONE|DICT|INTERRES
   175   89   90 1    
   176   89  210 1    
   177   90   91 1    
   178   90   92 1    
   179   90  211 1    
   180   91  212 1    
   181   91  213 1    
   182   91  214 1    
   183   92   93 2    
   184   92   94 am   BACKBONE|DICT|INTERRES
   185   94   95 1    
   186   94  215 1    
   187   95   96 1    
   188   95   97 1    
   189   95  216 1    
   190   96  217 1    
   191   96  218 1    
   192   96  219 1    
   193   97   98 2    
   194   97   99 am   BACKBONE|DICT|INTERRES
   195   99  100 1    
   196   99  220 1    
   197  100  101 1    
   198  100  102 1    
   199  100  221 1    
   200  101  222 1    
   201  101  223 1    
   202  101  224 1    
   203  102  103 2    
   204  102  104 am   BACKBONE|DICT|INTERRES
   205  104  105 1    
   206  104  225 1    
   207  105  106 1    
   208  105  107 1    
   209  105  226 1    
   210  106  227 1    
   211  106  228 1    
   212  106  229 1    
   213  107  108 2    
   214  107  109 am   BACKBONE|DICT|INTERRES
   215  109  110 1    
   216  109  230 1    
   217  110  111 1    
   218  110  112 1    
   219  110  231 1    
   220  111  232 1    
   221  111  233 1    
   222  111  234 1    
   223  112  113 2    
   224  112  114 am   BACKBONE|DICT|INTERRES
   225  114  115 1    
   226  114  235 1    
   227  115  116 1    
   228  115  117 1    
   229  115  236 1    
   230  116  237 1    
   231  116  238 1    
   232  116  239 1    
   233  117  118 2    
   234  117  119 am   BACKBONE|DICT|INTERRES
   235  119  120 1    
   236  119  240 1    
   237  120  121 1    
   238  120  124 1    
   239  120  241 1    
   240  121  122 am   BACKBONE|DICT|INTERRES
   241  121  123 2    
   242  122  242 1    
   243  122  243 1    
   244  124  125 1    
   245  124  244 1    
   246  124  245 1    
   247  125  126 1    
   248  126  246 1    
   249  126  247 1    
@<TRIPOS>SUBSTRUCTURE
     1 UNK         1 GROUP             0       ****    0 ROOT    
