@<TRIPOS>MOLECULE
3R540
247   249    1
SMALL
USER_CHARGES


@<TRIPOS>ATOM
      1 CA          0.2024   -8.5426  -52.0486 C.3       0 UNK        -0.1800 
      2 C          -0.0247   -9.6540  -51.0330 C.2       0 UNK         0.5000 
      3 O           0.3311   -9.4897  -49.8659 O.2       0 UNK        -0.5000 
      4 N          -0.6267  -10.7661  -51.4791 N.am      1 UNK        -0.5000 
      5 CA         -0.8983  -12.0039  -50.7345 C.3       1 UNK         0.1400 
      6 C6         -1.6012  -11.7664  -49.3655 C.3       23 UNK        -0.0398 
      7 S7         -2.7121  -13.1317  -48.8900 S.3       23 UNK        -0.2404 
      8 C8         -1.7902  -13.9064  -47.5232 C.3       23 UNK        -0.0205 
      9 C9         -2.3475  -15.2871  -47.2160 C.ar      23 UNK        -0.0193 
     10 C10        -2.1870  -16.3130  -48.1500 C.ar      23 UNK        -0.1150 
     11 C11        -2.7549  -17.5672  -47.9275 C.ar      23 UNK        -0.0193 
     12 C12        -3.4693  -17.7982  -46.7546 C.ar      23 UNK        -0.1150 
     13 C13        -3.5751  -16.8108  -45.7729 C.ar      23 UNK        -0.0193 
     14 C14        -3.0284  -15.5454  -46.0202 C.ar      23 UNK        -0.1150 
     15 C15        -4.2958  -17.1083  -44.4625 C.3       23 UNK        -0.0205 
     16 S16        -3.3782  -18.2838  -43.4011 S.3       23 UNK        -0.2404 
     17 C17        -3.8091  -19.9014  -44.1375 C.3       23 UNK        -0.0398 
     18 CA         -2.5911  -20.5464  -44.8643 C.3       11 UNK         0.1400 
     19 N          -1.6388  -21.1421  -43.9231 N.am      11 UNK        -0.5000 
     20 C          -1.7850  -22.3010  -43.2628 C.2       10 UNK         0.5000 
     21 O          -2.7697  -23.0333  -43.3688 O.2       10 UNK        -0.5000 
     22 CA         -0.6423  -22.7118  -42.3263 C.3       10 UNK         0.1400 
     23 CB          0.4981  -23.3613  -43.1207 C.3       10 UNK        -0.1800 
     24 N          -0.1026  -21.5603  -41.6130 N.am      10 UNK        -0.5000 
     25 C          -0.3404  -21.2665  -40.3297 C.2       9 UNK         0.5000 
     26 O          -1.1145  -21.9038  -39.6132 O.2       9 UNK        -0.5000 
     27 CA          0.4370  -20.0626  -39.7560 C.3       9 UNK         0.1400 
     28 CB          0.6152  -20.1302  -38.2252 C.3       9 UNK        -0.1800 
     29 N           1.7259  -19.8467  -40.4257 N.am      9 UNK        -0.5000 
     30 C           2.7766  -20.6824  -40.4830 C.2       8 UNK         0.5000 
     31 O           2.8285  -21.7603  -39.8898 O.2       8 UNK        -0.5000 
     32 CA          3.9611  -20.2701  -41.3835 C.3       8 UNK         0.1400 
     33 CB          4.0100  -21.1645  -42.6333 C.3       8 UNK        -0.1800 
     34 N           3.9101  -18.8716  -41.8129 N.am      8 UNK        -0.5000 
     35 C           4.1508  -17.8161  -41.0231 C.2       7 UNK         0.5000 
     36 O           4.5455  -17.9065  -39.8603 O.2       7 UNK        -0.5000 
     37 CA          3.8488  -16.4289  -41.6197 C.3       7 UNK         0.1400 
     38 CB          5.0720  -15.8878  -42.3744 C.3       7 UNK        -0.1800 
     39 N           2.6868  -16.4310  -42.5133 N.am      7 UNK        -0.5000 
     40 C           1.4279  -16.7121  -42.1465 C.2       6 UNK         0.5000 
     41 O           1.0986  -16.9849  -40.9934 O.2       6 UNK        -0.5000 
     42 CA          0.3677  -16.7418  -43.2593 C.3       6 UNK         0.1400 
     43 CB         -0.0959  -15.3203  -43.6092 C.3       6 UNK        -0.1800 
     44 N           0.8654  -17.4075  -44.4611 N.am      6 UNK        -0.5000 
     45 C           1.0377  -18.7303  -44.5868 C.2       5 UNK         0.5000 
     46 O           0.7405  -19.5522  -43.7159 O.2       5 UNK        -0.5000 
     47 CA          1.6733  -19.2117  -45.9040 C.3       5 UNK         0.1400 
     48 CB          0.5991  -19.4242  -46.9802 C.3       5 UNK        -0.1800 
     49 N           2.6782  -18.2754  -46.4091 N.am      5 UNK        -0.5000 
     50 C           3.8757  -18.0764  -45.8375 C.2       4 UNK         0.5000 
     51 O           4.2596  -18.6782  -44.8349 O.2       4 UNK        -0.5000 
     52 CA          4.7758  -16.9880  -46.4574 C.3       4 UNK         0.1400 
     53 CB          5.6273  -17.5757  -47.5922 C.3       4 UNK        -0.1800 
     54 N           4.0234  -15.8390  -46.9647 N.am      4 UNK        -0.5000 
     55 C           3.2313  -15.0575  -46.2187 C.2       3 UNK         0.5000 
     56 O           3.1229  -15.1742  -44.9997 O.2       3 UNK        -0.5000 
     57 CA          2.3760  -14.0017  -46.9412 C.3       3 UNK         0.1400 
     58 CB          2.9874  -12.6041  -46.7685 C.3       3 UNK        -0.1800 
     59 N           2.1428  -14.2425  -48.3674 N.am      3 UNK        -0.5000 
     60 C           1.5754  -15.3208  -48.9232 C.2       2 UNK         0.5000 
     61 O           1.2845  -16.3390  -48.2929 O.2       2 UNK        -0.5000 
     62 CA          1.2493  -15.2040  -50.4284 C.3       2 UNK         0.1400 
     63 CB          0.8136  -16.5470  -51.0392 C.3       2 UNK        -0.1800 
     64 N           0.2068  -14.2001  -50.6722 N.am      2 UNK        -0.5000 
     65 C           0.3722  -12.8726  -50.5917 C.2       1 UNK         0.5000 
     66 O           1.4704  -12.3480  -50.3875 O.2       1 UNK        -0.5000 
     67 C          -2.9564  -21.5507  -45.9864 C.2       11 UNK         0.5000 
     68 O          -2.0832  -21.9176  -46.7776 O.2       11 UNK        -0.5000 
     69 N          -4.2123  -22.0160  -46.0180 N.am      12 UNK        -0.5000 
     70 CA         -4.7368  -22.9727  -46.9938 C.3       12 UNK         0.1400 
     71 CB         -6.2571  -23.0856  -46.8028 C.3       12 UNK        -0.1800 
     72 C          -4.0814  -24.3681  -46.9434 C.2       12 UNK         0.5000 
     73 O          -4.1977  -25.1107  -47.9172 O.2       12 UNK        -0.5000 
     74 N          -3.4089  -24.7064  -45.8327 N.am      13 UNK        -0.5000 
     75 CA         -2.6434  -25.9460  -45.6940 C.3       13 UNK         0.1400 
     76 CB         -2.4709  -26.2778  -44.2038 C.3       13 UNK        -0.1800 
     77 C          -1.2736  -25.8847  -46.3993 C.2       13 UNK         0.5000 
     78 O          -0.7460  -26.9364  -46.7634 O.2       13 UNK        -0.5000 
     79 N          -0.7174  -24.6763  -46.5743 N.am      14 UNK        -0.5000 
     80 CA          0.5486  -24.4539  -47.2758 C.3       14 UNK         0.1400 
     81 CB          1.3103  -23.2852  -46.6308 C.3       14 UNK        -0.1800 
     82 C           0.3289  -24.1961  -48.7732 C.2       14 UNK         0.5000 
     83 O           1.0889  -24.7115  -49.5946 O.2       14 UNK        -0.5000 
     84 N          -0.6952  -23.3989  -49.1026 N.am      15 UNK        -0.5000 
     85 CA         -1.0683  -23.0704  -50.4768 C.3       15 UNK         0.1400 
     86 CB         -2.0174  -21.8672  -50.4505 C.3       15 UNK        -0.1800 
     87 C          -1.7083  -24.2591  -51.2177 C.2       15 UNK         0.5000 
     88 O          -2.3136  -25.1319  -50.5923 O.2       15 UNK        -0.5000 
     89 N          -1.5940  -24.2508  -52.5510 N.am      16 UNK        -0.5000 
     90 CA         -2.1542  -25.2525  -53.4598 C.3       16 UNK         0.1400 
     91 CB         -1.4128  -25.1652  -54.8060 C.3       16 UNK        -0.1800 
     92 C          -3.6807  -25.0885  -53.6139 C.2       16 UNK         0.5000 
     93 O          -4.1484  -24.5799  -54.6330 O.2       16 UNK        -0.5000 
     94 N          -4.4173  -25.4980  -52.5718 N.am      17 UNK        -0.5000 
     95 CA         -5.8782  -25.4371  -52.4207 C.3       17 UNK         0.1400 
     96 CB         -6.5939  -26.2534  -53.5181 C.3       17 UNK        -0.1800 
     97 C          -6.4327  -24.0020  -52.2788 C.2       17 UNK         0.5000 
     98 O          -7.6221  -23.7796  -52.5130 O.2       17 UNK        -0.5000 
     99 N          -5.5665  -23.0718  -51.8521 N.am      18 UNK        -0.5000 
    100 CA        -5.8335  -21.6566  -51.5849 C.3       18 UNK         0.1400 
    101 CB        -6.7505  -21.5089  -50.3502 C.3       18 UNK        -0.1800 
    102 C         -6.3253  -20.8776  -52.8259 C.2       18 UNK         0.5000 
    103 O         -5.9239  -21.2022  -53.9458 O.2       18 UNK        -0.5000 
    104 N         -7.1472  -19.8395  -52.6046 N.am      19 UNK        -0.5000 
    105 CA        -7.7485  -18.9500  -53.6042 C.3       19 UNK         0.1400 
    106 CB        -8.8375  -19.7016  -54.4022 C.3       19 UNK        -0.1800 
    107 C         -6.6760  -18.2779  -54.4849 C.2       19 UNK         0.5000 
    108 O         -5.9389  -17.4234  -53.9892 O.2       19 UNK        -0.5000 
    109 N         -6.5642  -18.7054  -55.7493 N.am      20 UNK        -0.5000 
    110 CA        -5.5582  -18.2550  -56.7136 C.3       20 UNK         0.1400 
    111 CB        -5.8538  -18.8968  -58.0776 C.3       20 UNK        -0.1800 
    112 C         -4.1036  -18.5410  -56.2860 C.2       20 UNK         0.5000 
    113 O         -3.2020  -17.8218  -56.7174 O.2       20 UNK        -0.5000 
    114 N         -3.8969  -19.5582  -55.4359 N.am      21 UNK        -0.5000 
    115 CA        -2.5981  -19.8705  -54.8382 C.3       21 UNK         0.1400 
    116 CB        -2.5835  -21.3392  -54.3904 C.3       21 UNK        -0.1800 
    117 C         -2.2343  -18.9351  -53.6669 C.2       21 UNK         0.5000 
    118 O         -1.0514  -18.8241  -53.3441 O.2       21 UNK        -0.5000 
    119 N         -3.2348  -18.2834  -53.0577 N.am      22 UNK        -0.5000 
    120 CA        -3.0463  -17.2634  -52.0146 C.3       22 UNK         0.1400 
    121 C         -2.9815  -15.8285  -52.5946 C.2       22 UNK         0.5000 
    122 N         -3.7803  -15.4987  -53.6018 N.am      22 UNK        -0.7600 
    123 O         -2.1966  -15.0109  -52.1232 O.2       22 UNK        -0.5000 
    124 C124       -4.1267  -17.3377  -50.9089 C.3       23 UNK        -0.0398 
    125 S125       -4.0772  -18.8995  -49.9722 S.3       23 UNK        -0.2404 
    126 C126       -2.5935  -18.6837  -48.9406 C.3       23 UNK        -0.0205 
    127 H127       -0.1716   -8.8112  -53.0369 H         1 UNK         0.0600 
    128 H128        1.2674   -8.3269  -52.1358 H         1 UNK         0.0600 
    129 H129       -0.3055   -7.6326  -51.7292 H         1 UNK         0.0600 
    130 H130       -0.8720  -10.8105  -52.4584 H         1 UNK         0.3000 
    131 H131       -1.5907  -12.5461  -51.3794 H         1 UNK         0.0600 
    132 H132       -2.2291  -10.8764  -49.4238 H         1 UNK         0.0800 
    133 H133       -0.8808  -11.5636  -48.5707 H         1 UNK         0.0800 
    134 H134       -0.7391  -13.9980  -47.7911 H         1 UNK         0.0800 
    135 H135       -1.8343  -13.2617  -46.6442 H         1 UNK         0.0800 
    136 H136       -1.6466  -16.1202  -49.0646 H         1 UNK         0.1150 
    137 H137       -3.9328  -18.7602  -46.6145 H         1 UNK         0.1150 
    138 H138       -3.1361  -14.7607  -45.2848 H         1 UNK         0.1150 
    139 H139       -4.4365  -16.1849  -43.8988 H         1 UNK         0.0800 
    140 H140       -5.2977  -17.4872  -44.6681 H         1 UNK         0.0800 
    141 H141       -4.6603  -19.7516  -44.8009 H         1 UNK         0.0800 
    142 H142       -4.1750  -20.5536  -43.3430 H         1 UNK         0.0800 
    143 H143       -2.0439  -19.7509  -45.3700 H         1 UNK         0.0600 
    144 H144       -0.7875  -20.6077  -43.7753 H         1 UNK         0.3000 
    145 H145       -1.0334  -23.4522  -41.6253 H         1 UNK         0.0600 
    146 H146        1.2583  -23.7664  -42.4525 H         1 UNK         0.0600 
    147 H147        0.1382  -24.1819  -43.7416 H         1 UNK         0.0600 
    148 H148        0.9846  -22.6349  -43.7716 H         1 UNK         0.0600 
    149 H149        0.5014  -20.9410  -42.1407 H         1 UNK         0.3000 
    150 H150       -0.1709  -19.1843  -39.9764 H         1 UNK         0.0600 
    151 H151       -0.3507  -20.1363  -37.7191 H         1 UNK         0.0600 
    152 H152        1.1681  -19.2666  -37.8557 H         1 UNK         0.0600 
    153 H153        1.1503  -21.0289  -37.9175 H         1 UNK         0.0600 
    154 H154        1.7954  -18.9674  -40.9232 H         1 UNK         0.3000 
    155 H155        4.8785  -20.4254  -40.8123 H         1 UNK         0.0600 
    156 H156        3.1244  -21.0337  -43.2562 H         1 UNK         0.0600 
    157 H157        4.0672  -22.2194  -42.3619 H         1 UNK         0.0600 
    158 H158        4.8843  -20.9399  -43.2444 H         1 UNK         0.0600 
    159 H159        3.6634  -18.7059  -42.7821 H         1 UNK         0.3000 
    160 H160        3.6299  -15.7516  -40.7918 H         1 UNK         0.0600 
    161 H161        5.3324  -16.5219  -43.2220 H         1 UNK         0.0600 
    162 H162        5.9438  -15.8376  -41.7211 H         1 UNK         0.0600 
    163 H163        4.8897  -14.8815  -42.7522 H         1 UNK         0.0600 
    164 H164        2.8593  -16.1481  -43.4757 H         1 UNK         0.3000 
    165 H165       -0.4953  -17.3000  -42.8905 H         1 UNK         0.0600 
    166 H166       -0.8340  -15.3349  -44.4083 H         1 UNK         0.0600 
    167 H167       -0.5592  -14.8405  -42.7464 H         1 UNK         0.0600 
    168 H168        0.7303  -14.6867  -43.9313 H         1 UNK         0.0600 
    169 H169        1.1622  -16.8126  -45.2205 H         1 UNK         0.3000 
    170 H170        2.1602  -20.1702  -45.7114 H         1 UNK         0.0600 
    171 H171       -0.1195  -20.1784  -46.6671 H         1 UNK         0.0600 
    172 H172        0.0450  -18.5075  -47.1854 H         1 UNK         0.0600 
    173 H173        1.0376  -19.7675  -47.9172 H         1 UNK         0.0600 
    174 H174        2.4031  -17.6983  -47.1975 H         1 UNK         0.3000 
    175 H175        5.4478  -16.6279  -45.6762 H         1 UNK         0.0600 
    176 H176        5.0090  -17.9264  -48.4196 H         1 UNK         0.0600 
    177 H177        6.3266  -16.8370  -47.9841 H         1 UNK         0.0600 
    178 H178        6.2158  -18.4236  -47.2392 H         1 UNK         0.0600 
    179 H179        4.0474  -15.6792  -47.9606 H         1 UNK         0.3000 
    180 H180        1.3995  -14.0055  -46.4535 H         1 UNK         0.0600 
    181 H181        3.9534  -12.5250  -47.2686 H         1 UNK         0.0600 
    182 H182        3.1418  -12.3700  -45.7142 H         1 UNK         0.0600 
    183 H183        2.3331  -11.8340  -47.1785 H         1 UNK         0.0600 
    184 H184        2.2841  -13.4441  -48.9795 H         1 UNK         0.3000 
    185 H185        2.1610  -14.8898  -50.9407 H         1 UNK         0.0600 
    186 H186       -0.0623  -16.9541  -50.5373 H         1 UNK         0.0600 
    187 H187        0.5755  -16.4452  -52.0983 H         1 UNK         0.0600 
    188 H188        1.6084  -17.2888  -50.9539 H         1 UNK         0.0600 
    189 H189       -0.7137  -14.5554  -50.9162 H         1 UNK         0.3000 
    190 H190       -4.8578  -21.7267  -45.2984 H         1 UNK         0.3000 
    191 H191       -4.5445  -22.5661  -47.9885 H         1 UNK         0.0600 
    192 H192       -6.7444  -22.1184  -46.9274 H         1 UNK         0.0600 
    193 H193       -6.6951  -23.7646  -47.5358 H         1 UNK         0.0600 
    194 H194       -6.5101  -23.4655  -45.8122 H         1 UNK         0.0600 
    195 H195       -3.3656  -24.0536  -45.0567 H         1 UNK         0.3000 
    196 H196       -3.2114  -26.7598  -46.1500 H         1 UNK         0.0600 
    197 H197       -1.9732  -27.2398  -44.0751 H         1 UNK         0.0600 
    198 H198       -3.4349  -26.3406  -43.6987 H         1 UNK         0.0600 
    199 H199       -1.8703  -25.5300  -43.6875 H         1 UNK         0.0600 
    200 H200       -1.2402  -23.8522  -46.3064 H         1 UNK         0.3000 
    201 H201        1.1822  -25.3396  -47.1911 H         1 UNK         0.0600 
    202 H202        1.7553  -23.5939  -45.6867 H         1 UNK         0.0600 
    203 H203        0.6619  -22.4303  -46.4417 H         1 UNK         0.0600 
    204 H204        2.1293  -22.9441  -47.2658 H         1 UNK         0.0600 
    205 H205       -1.2685  -23.0050  -48.3659 H         1 UNK         0.3000 
    206 H206       -0.1640  -22.7799  -51.0160 H         1 UNK         0.0600 
    207 H207       -2.9006  -22.0580  -49.8399 H         1 UNK         0.0600 
    208 H208       -1.5048  -20.9967  -50.0458 H         1 UNK         0.0600 
    209 H209       -2.3540  -21.5987  -51.4507 H         1 UNK         0.0600 
    210 H210       -1.0921  -23.4940  -52.9907 H         1 UNK         0.3000 
    211 H211       -1.9678  -26.2460  -53.0459 H         1 UNK         0.0600 
    212 H212       -1.5174  -24.1818  -55.2655 H         1 UNK         0.0600 
    213 H213       -1.8000  -25.9004  -55.5125 H         1 UNK         0.0600 
    214 H214       -0.3483  -25.3651  -54.6827 H         1 UNK         0.0600 
    215 H215       -3.9086  -25.8171  -51.7528 H         1 UNK         0.3000 
    216 H216       -6.0917  -25.9250  -51.4686 H         1 UNK         0.0600 
    217 H217       -7.6568  -26.3569  -53.2970 H         1 UNK         0.0600 
    218 H218       -6.1813  -27.2593  -53.5951 H         1 UNK         0.0600 
    219 H219       -6.5118  -25.7793  -54.4963 H         1 UNK         0.0600 
    220 H220       -4.6121  -23.3703  -51.7226 H         1 UNK         0.3000 
    221 H221       -4.8638  -21.2305  -51.3362 H         1 UNK         0.0600 
    222 H222       -7.7746  -21.8162  -50.5653 H         1 UNK         0.0600 
    223 H223       -6.3906  -22.1209  -49.5252 H         1 UNK         0.0600 
    224 H224       -6.7781  -20.4802  -49.9899 H         1 UNK         0.0600 
    225 H225       -7.3858  -19.6295  -51.6459 H         1 UNK         0.3000 
    226 H226       -8.2383  -18.1449  -53.0546 H         1 UNK         0.0600 
    227 H227       -9.6245  -20.0590  -53.7380 H         1 UNK         0.0600 
    228 H228       -9.3113  -19.0475  -55.1354 H         1 UNK         0.0600 
    229 H229       -8.4416  -20.5683  -54.9325 H         1 UNK         0.0600 
    230 H230       -7.1828  -19.4416  -56.0570 H         1 UNK         0.3000 
    231 H231       -5.6597  -17.1726  -56.8148 H         1 UNK         0.0600 
    232 H232       -5.7941  -19.9849  -58.0305 H         1 UNK         0.0600 
    233 H233       -5.1399  -18.5610  -58.8310 H         1 UNK         0.0600 
    234 H234       -6.8489  -18.6290  -58.4332 H         1 UNK         0.0600 
    235 H235       -4.6882  -20.1112  -55.1192 H         1 UNK         0.3000 
    236 H236       -1.8260  -19.7510  -55.6013 H         1 UNK         0.0600 
    237 H237       -2.8051  -22.0067  -55.2233 H         1 UNK         0.0600 
    238 H238       -1.6028  -21.6152  -54.0030 H         1 UNK         0.0600 
    239 H239       -3.3155  -21.5329  -53.6076 H         1 UNK         0.0600 
    240 H240       -4.1744  -18.3729  -53.4215 H         1 UNK         0.3000 
    241 H241       -2.0839  -17.4311  -51.5340 H         1 UNK         0.0600 
    242 H242       -3.7377  -14.5682  -53.9845 H         1 UNK         0.3800 
    243 H243       -4.4904  -16.1476  -53.9258 H         1 UNK         0.3800 
    244 H244       -5.1213  -17.2402  -51.3466 H         1 UNK         0.0800 
    245 H245       -4.0321  -16.5076  -50.2075 H         1 UNK         0.0800 
    246 H246       -1.7157  -18.5179  -49.5649 H         1 UNK         0.0800 
    247 H247       -2.4055  -19.6151  -48.4060 H         1 UNK         0.0800 
@<TRIPOS>BOND
     1    1    2 1    
     2    1  127 1    
     3    1  128 1    
     4    1  129 1    
     5    2    3 2    
     6    2    4 am   BACKBONE|DICT|INTERRES
     7    4    5 1    
     8    4  130 1    
     9    5    6 1    
    10    5   65 1    
    11    5  131 1    
    12    6    7 1    
    13    6  132 1    
    14    6  133 1    
    15    7    8 1    
    16    8    9 1    
    17    8  134 1    
    18    8  135 1    
    19    9   10 ar   
    20    9   14 ar   
    21   10   11 ar   
    22   10  136 1    
    23   11   12 ar   
    24   11  126 1    
    25   12   13 ar   
    26   12  137 1    
    27   13   14 ar   
    28   13   15 1    
    29   14  138 1    
    30   15   16 1    
    31   15  139 1    
    32   15  140 1    
    33   16   17 1    
    34   17   18 1    
    35   17  141 1    
    36   17  142 1    
    37   18   19 1    
    38   18   67 1    
    39   18  143 1    
    40   19   20 am   BACKBONE|DICT|INTERRES
    41   19  144 1    
    42   20   21 2    
    43   20   22 1    
    44   22   23 1    
    45   22   24 1    
    46   22  145 1    
    47   23  146 1    
    48   23  147 1    
    49   23  148 1    
    50   24   25 am   BACKBONE|DICT|INTERRES
    51   24  149 1    
    52   25   26 2    
    53   25   27 1    
    54   27   28 1    
    55   27   29 1    
    56   27  150 1    
    57   28  151 1    
    58   28  152 1    
    59   28  153 1    
    60   29   30 am   BACKBONE|DICT|INTERRES
    61   29  154 1    
    62   30   31 2    
    63   30   32 1    
    64   32   33 1    
    65   32   34 1    
    66   32  155 1    
    67   33  156 1    
    68   33  157 1    
    69   33  158 1    
    70   34   35 am   BACKBONE|DICT|INTERRES
    71   34  159 1    
    72   35   36 2    
    73   35   37 1    
    74   37   38 1    
    75   37   39 1    
    76   37  160 1    
    77   38  161 1    
    78   38  162 1    
    79   38  163 1    
    80   39   40 am   BACKBONE|DICT|INTERRES
    81   39  164 1    
    82   40   41 2    
    83   40   42 1    
    84   42   43 1    
    85   42   44 1    
    86   42  165 1    
    87   43  166 1    
    88   43  167 1    
    89   43  168 1    
    90   44   45 am   BACKBONE|DICT|INTERRES
    91   44  169 1    
    92   45   46 2    
    93   45   47 1    
    94   47   48 1    
    95   47   49 1    
    96   47  170 1    
    97   48  171 1    
    98   48  172 1    
    99   48  173 1    
   100   49   50 am   BACKBONE|DICT|INTERRES
   101   49  174 1    
   102   50   51 2    
   103   50   52 1    
   104   52   53 1    
   105   52   54 1    
   106   52  175 1    
   107   53  176 1    
   108   53  177 1    
   109   53  178 1    
   110   54   55 am   BACKBONE|DICT|INTERRES
   111   54  179 1    
   112   55   56 2    
   113   55   57 1    
   114   57   58 1    
   115   57   59 1    
   116   57  180 1    
   117   58  181 1    
   118   58  182 1    
   119   58  183 1    
   120   59   60 am   BACKBONE|DICT|INTERRES
   121   59  184 1    
   122   60   61 2    
   123   60   62 1    
   124   62   63 1    
   125   62   64 1    
   126   62  185 1    
   127   63  186 1    
   128   63  187 1    
   129   63  188 1    
   130   64   65 am   BACKBONE|DICT|INTERRES
   131   64  189 1    
   132   65   66 2    
   133   67   68 2    
   134   67   69 am   BACKBONE|DICT|INTERRES
   135   69   70 1    
   136   69  190 1    
   137   70   71 1    
   138   70   72 1    
   139   70  191 1    
   140   71  192 1    
   141   71  193 1    
   142   71  194 1    
   143   72   73 2    
   144   72   74 am   BACKBONE|DICT|INTERRES
   145   74   75 1    
   146   74  195 1    
   147   75   76 1    
   148   75   77 1    
   149   75  196 1    
   150   76  197 1    
   151   76  198 1    
   152   76  199 1    
   153   77   78 2    
   154   77   79 am   BACKBONE|DICT|INTERRES
   155   79   80 1    
   156   79  200 1    
   157   80   81 1    
   158   80   82 1    
   159   80  201 1    
   160   81  202 1    
   161   81  203 1    
   162   81  204 1    
   163   82   83 2    
   164   82   84 am   BACKBONE|DICT|INTERRES
   165   84   85 1    
   166   84  205 1    
   167   85   86 1    
   168   85   87 1    
   169   85  206 1    
   170   86  207 1    
   171   86  208 1    
   172   86  209 1    
   173   87   88 2    
   174   87   89 am   BACKBONE|DICT|INTERRES
   175   89   90 1    
   176   89  210 1    
   177   90   91 1    
   178   90   92 1    
   179   90  211 1    
   180   91  212 1    
   181   91  213 1    
   182   91  214 1    
   183   92   93 2    
   184   92   94 am   BACKBONE|DICT|INTERRES
   185   94   95 1    
   186   94  215 1    
   187   95   96 1    
   188   95   97 1    
   189   95  216 1    
   190   96  217 1    
   191   96  218 1    
   192   96  219 1    
   193   97   98 2    
   194   97   99 am   BACKBONE|DICT|INTERRES
   195   99  100 1    
   196   99  220 1    
   197  100  101 1    
   198  100  102 1    
   199  100  221 1    
   200  101  222 1    
   201  101  223 1    
   202  101  224 1    
   203  102  103 2    
   204  102  104 am   BACKBONE|DICT|INTERRES
   205  104  105 1    
   206  104  225 1    
   207  105  106 1    
   208  105  107 1    
   209  105  226 1    
   210  106  227 1    
   211  106  228 1    
   212  106  229 1    
   213  107  108 2    
   214  107  109 am   BACKBONE|DICT|INTERRES
   215  109  110 1    
   216  109  230 1    
   217  110  111 1    
   218  110  112 1    
   219  110  231 1    
   220  111  232 1    
   221  111  233 1    
   222  111  234 1    
   223  112  113 2    
   224  112  114 am   BACKBONE|DICT|INTERRES
   225  114  115 1    
   226  114  235 1    
   227  115  116 1    
   228  115  117 1    
   229  115  236 1    
   230  116  237 1    
   231  116  238 1    
   232  116  239 1    
   233  117  118 2    
   234  117  119 am   BACKBONE|DICT|INTERRES
   235  119  120 1    
   236  119  240 1    
   237  120  121 1    
   238  120  124 1    
   239  120  241 1    
   240  121  122 am   BACKBONE|DICT|INTERRES
   241  121  123 2    
   242  122  242 1    
   243  122  243 1    
   244  124  125 1    
   245  124  244 1    
   246  124  245 1    
   247  125  126 1    
   248  126  246 1    
   249  126  247 1    
@<TRIPOS>SUBSTRUCTURE
     1 UNK         1 GROUP             0       ****    0 ROOT    
