@<TRIPOS>MOLECULE
3R540
247   249    1
SMALL
USER_CHARGES


@<TRIPOS>ATOM
      1 CA          1.5707   -9.1204  -50.4357 C.3       0 UNK        -0.1800 
      2 C           1.7741  -10.5123  -49.8544 C.2       0 UNK         0.5000 
      3 O           1.6577  -10.6841  -48.6425 O.2       0 UNK        -0.5000 
      4 N           2.1070  -11.4852  -50.7161 N.am      1 UNK        -0.5000 
      5 CA          2.2891  -12.9326  -50.4856 C.3       1 UNK         0.1400 
      6 C6          0.9648  -13.7511  -50.4544 C.3       23 UNK        -0.0398 
      7 S7         -0.2445  -13.2991  -49.1629 S.3       23 UNK        -0.2404 
      8 C8          0.0215  -14.5877  -47.9084 C.3       23 UNK        -0.0205 
      9 C9         -0.4661  -15.9591  -48.3542 C.ar      23 UNK        -0.0193 
     10 C10        -1.8332  -16.2026  -48.5244 C.ar      23 UNK        -0.1150 
     11 C11        -2.2893  -17.4754  -48.8817 C.ar      23 UNK        -0.0193 
     12 C12        -1.3684  -18.5129  -49.0486 C.ar      23 UNK        -0.1150 
     13 C13        -0.0004  -18.2823  -48.8818 C.ar      23 UNK        -0.0193 
     14 C14         0.4461  -17.0001  -48.5504 C.ar      23 UNK        -0.1150 
     15 C15         0.9913  -19.4216  -49.0492 C.3       23 UNK        -0.0205 
     16 S16         1.6627  -19.9420  -47.4395 S.3       23 UNK        -0.2404 
     17 C17         2.0753  -21.6868  -47.7631 C.3       23 UNK        -0.0398 
     18 CA          1.1024  -22.7078  -47.1236 C.3       11 UNK         0.1400 
     19 N           1.0084  -22.5990  -45.6655 N.am      11 UNK        -0.5000 
     20 C           0.5936  -23.6016  -44.8780 C.2       10 UNK         0.5000 
     21 O           0.2433  -24.7035  -45.3049 O.2       10 UNK        -0.5000 
     22 CA          0.5366  -23.3175  -43.3681 C.3       10 UNK         0.1400 
     23 CB          1.9481  -23.2442  -42.7657 C.3       10 UNK        -0.1800 
     24 N          -0.1930  -22.0876  -43.0651 N.am      10 UNK        -0.5000 
     25 C          -1.5203  -21.9509  -43.2031 C.2       9 UNK         0.5000 
     26 O          -2.2594  -22.8468  -43.6100 O.2       9 UNK        -0.5000 
     27 CA         -2.1285  -20.5768  -42.8585 C.3       9 UNK         0.1400 
     28 CB         -2.5055  -20.5124  -41.3712 C.3       9 UNK        -0.1800 
     29 N          -1.2574  -19.4466  -43.1786 N.am      9 UNK        -0.5000 
     30 C          -0.7661  -19.1816  -44.3969 C.2       8 UNK         0.5000 
     31 O          -1.0070  -19.8629  -45.3895 O.2       8 UNK        -0.5000 
     32 CA          0.1788  -17.9780  -44.5279 C.3       8 UNK         0.1400 
     33 CB         -0.6322  -16.7255  -44.8892 C.3       8 UNK        -0.1800 
     34 N           0.9892  -17.6960  -43.3426 N.am      8 UNK        -0.5000 
     35 C           1.7409  -18.5517  -42.6359 C.2       7 UNK         0.5000 
     36 O           1.8452  -19.7534  -42.8882 O.2       7 UNK        -0.5000 
     37 CA          2.4753  -17.9659  -41.4129 C.3       7 UNK         0.1400 
     38 CB          3.9271  -17.6141  -41.7709 C.3       7 UNK        -0.1800 
     39 N           1.8270  -16.7843  -40.8309 N.am      7 UNK        -0.5000 
     40 C           0.6022  -16.7500  -40.2910 C.2       6 UNK         0.5000 
     41 O          -0.1431  -17.7307  -40.2526 O.2       6 UNK        -0.5000 
     42 CA          0.0976  -15.4133  -39.7047 C.3       6 UNK         0.1400 
     43 CB          0.2582  -15.3962  -38.1726 C.3       6 UNK        -0.1800 
     44 N           0.6427  -14.1839  -40.3025 N.am      6 UNK        -0.5000 
     45 C           1.8869  -13.6874  -40.2635 C.2       5 UNK         0.5000 
     46 O           2.8454  -14.2855  -39.7722 O.2       5 UNK        -0.5000 
     47 CA          2.0846  -12.2970  -40.9125 C.3       5 UNK         0.1400 
     48 CB          3.4847  -11.7149  -40.6485 C.3       5 UNK        -0.1800 
     49 N           1.8661  -12.3423  -42.3576 N.am      5 UNK        -0.5000 
     50 C           0.6797  -12.4575  -42.9681 C.2       4 UNK         0.5000 
     51 O          -0.3966  -12.3875  -42.3722 O.2       4 UNK        -0.5000 
     52 CA          0.6880  -12.7534  -44.4836 C.3       4 UNK         0.1400 
     53 CB          0.4101  -11.4742  -45.2862 C.3       4 UNK        -0.1800 
     54 N           1.9114  -13.3789  -45.0034 N.am      4 UNK        -0.5000 
     55 C           2.4913  -14.5006  -44.5499 C.2       3 UNK         0.5000 
     56 O           2.0887  -15.1129  -43.5626 O.2       3 UNK        -0.5000 
     57 CA          3.7102  -15.0478  -45.3185 C.3       3 UNK         0.1400 
     58 CB          3.4590  -16.4925  -45.7793 C.3       3 UNK        -0.1800 
     59 N           4.0799  -14.2493  -46.4874 N.am      3 UNK        -0.5000 
     60 C           4.7820  -13.1128  -46.4730 C.2       2 UNK         0.5000 
     61 O           5.1467  -12.5560  -45.4374 O.2       2 UNK        -0.5000 
     62 CA          5.1344  -12.4877  -47.8378 C.3       2 UNK         0.1400 
     63 CB          6.3488  -13.1964  -48.4663 C.3       2 UNK        -0.1800 
     64 N           4.0253  -12.3935  -48.7991 N.am      2 UNK        -0.5000 
     65 C           3.3121  -13.3576  -49.4004 C.2       1 UNK         0.5000 
     66 O           3.4705  -14.5574  -49.1687 O.2       1 UNK        -0.5000 
     67 C          -0.2873  -22.7296  -47.7912 C.2       11 UNK         0.5000 
     68 O          -0.4604  -23.4543  -48.7693 O.2       11 UNK        -0.5000 
     69 N          -1.2669  -22.0031  -47.2298 N.am      12 UNK        -0.5000 
     70 CA         -2.6670  -22.0370  -47.6540 C.3       12 UNK         0.1400 
     71 CB         -3.4839  -20.9831  -46.8936 C.3       12 UNK        -0.1800 
     72 C          -3.3001  -23.4253  -47.4763 C.2       12 UNK         0.5000 
     73 O          -3.9953  -23.8808  -48.3822 O.2       12 UNK        -0.5000 
     74 N          -3.0228  -24.0882  -46.3432 N.am      13 UNK        -0.5000 
     75 CA         -3.4668  -25.4551  -46.0658 C.3       13 UNK         0.1400 
     76 CB         -3.1736  -25.8187  -44.6029 C.3       13 UNK        -0.1800 
     77 C          -2.8395  -26.4835  -47.0229 C.2       13 UNK         0.5000 
     78 O          -3.5519  -27.3554  -47.5207 O.2       13 UNK        -0.5000 
     79 N          -1.5352  -26.3374  -47.2996 N.am      14 UNK        -0.5000 
     80 CA         -0.7938  -27.1647  -48.2559 C.3       14 UNK         0.1400 
     81 CB          0.7062  -26.8528  -48.1449 C.3       14 UNK        -0.1800 
     82 C          -1.2844  -26.9886  -49.7073 C.2       14 UNK         0.5000 
     83 O          -1.3888  -27.9712  -50.4417 O.2       14 UNK        -0.5000 
     84 N          -1.6040  -25.7430  -50.0798 N.am      15 UNK        -0.5000 
     85 CA         -2.1576  -25.3572  -51.3783 C.3       15 UNK         0.1400 
     86 CB         -1.9374  -23.8466  -51.5580 C.3       15 UNK        -0.1800 
     87 C          -3.6556  -25.6831  -51.5444 C.2       15 UNK         0.5000 
     88 O          -4.1762  -25.5496  -52.6543 O.2       15 UNK        -0.5000 
     89 N          -4.3312  -26.0304  -50.4373 N.am      16 UNK        -0.5000 
     90 CA         -5.7838  -26.1856  -50.2885 C.3       16 UNK         0.1400 
     91 CB         -6.2726  -27.4420  -51.0372 C.3       16 UNK        -0.1800 
     92 C          -6.5505  -24.9060  -50.6928 C.2       16 UNK         0.5000 
     93 O          -7.6222  -24.9875  -51.2962 O.2       16 UNK        -0.5000 
     94 N          -5.9385  -23.7462  -50.4070 N.am      17 UNK        -0.5000 
     95 CA         -6.2555  -22.3756  -50.8264 C.3       17 UNK         0.1400 
     96 CB         -7.6102  -21.9182  -50.2580 C.3       17 UNK        -0.1800 
     97 C          -6.1787  -22.1362  -52.3498 C.2       17 UNK         0.5000 
     98 O          -5.6088  -21.1307  -52.7756 O.2       17 UNK        -0.5000 
     99 N          -6.7397  -23.0606  -53.1371 N.am      18 UNK        -0.5000 
    100 CA        -6.9070  -23.0031  -54.5864 C.3       18 UNK         0.1400 
    101 CB        -7.6532  -24.2614  -55.0546 C.3       18 UNK        -0.1800 
    102 C         -5.5989  -22.8270  -55.3733 C.2       18 UNK         0.5000 
    103 O         -5.5557  -21.9897  -56.2749 O.2       18 UNK        -0.5000 
    104 N         -4.5462  -23.5777  -55.0136 N.am      19 UNK        -0.5000 
    105 CA        -3.2485  -23.5125  -55.6991 C.3       19 UNK         0.1400 
    106 CB        -2.4249  -24.7711  -55.3878 C.3       19 UNK        -0.1800 
    107 C         -2.4535  -22.2276  -55.3861 C.2       19 UNK         0.5000 
    108 O         -1.5558  -21.8731  -56.1505 O.2       19 UNK        -0.5000 
    109 N         -2.8134  -21.5403  -54.2935 N.am      20 UNK        -0.5000 
    110 CA        -2.2930  -20.2246  -53.9183 C.3       20 UNK         0.1400 
    111 CB        -2.2102  -20.1484  -52.3835 C.3       20 UNK        -0.1800 
    112 C         -3.1583  -19.0776  -54.4840 C.2       20 UNK         0.5000 
    113 O         -2.7770  -17.9155  -54.3427 O.2       20 UNK        -0.5000 
    114 N         -4.3010  -19.4203  -55.1027 N.am      21 UNK        -0.5000 
    115 CA        -5.3541  -18.5356  -55.6129 C.3       21 UNK         0.1400 
    116 CB        -4.8325  -17.6601  -56.7715 C.3       21 UNK        -0.1800 
    117 C         -6.0544  -17.7218  -54.5022 C.2       21 UNK         0.5000 
    118 O         -6.5455  -16.6209  -54.7608 O.2       21 UNK        -0.5000 
    119 N         -6.0906  -18.2796  -53.2872 N.am      22 UNK        -0.5000 
    120 CA        -6.7241  -17.6892  -52.1022 C.3       22 UNK         0.1400 
    121 C         -8.2264  -18.0702  -52.0025 C.2       22 UNK         0.5000 
    122 N         -9.0236  -17.2755  -51.3014 N.am      22 UNK        -0.7600 
    123 O         -8.6773  -19.0875  -52.5251 O.2       22 UNK        -0.5000 
    124 C124       -5.9628  -18.0760  -50.8091 C.3       23 UNK        -0.0398 
    125 S125       -4.2484  -17.4534  -50.8157 S.3       23 UNK        -0.2404 
    126 C126       -3.7736  -17.7352  -49.0859 C.3       23 UNK        -0.0205 
    127 H127        0.5583   -8.7738  -50.2287 H         1 UNK         0.0600 
    128 H128        2.2714   -8.4186  -49.9834 H         1 UNK         0.0600 
    129 H129        1.7214   -9.1039  -51.5153 H         1 UNK         0.0600 
    130 H130        2.2163  -11.2180  -51.6846 H         1 UNK         0.3000 
    131 H131        2.7879  -13.2545  -51.4011 H         1 UNK         0.0600 
    132 H132        1.1714  -14.8209  -50.4031 H         1 UNK         0.0800 
    133 H133        0.4559  -13.6164  -51.4094 H         1 UNK         0.0800 
    134 H134        1.0767  -14.6163  -47.6350 H         1 UNK         0.0800 
    135 H135       -0.5189  -14.3021  -47.0058 H         1 UNK         0.0800 
    136 H136       -2.5414  -15.3990  -48.3797 H         1 UNK         0.1150 
    137 H137       -1.7186  -19.5007  -49.3116 H         1 UNK         0.1150 
    138 H138        1.5045  -16.8223  -48.4250 H         1 UNK         0.1150 
    139 H139        0.5066  -20.2660  -49.5418 H         1 UNK         0.0800 
    140 H140        1.8091  -19.1096  -49.7001 H         1 UNK         0.0800 
    141 H141        2.1565  -21.8581  -48.8379 H         1 UNK         0.0800 
    142 H142        3.0779  -21.8591  -47.3697 H         1 UNK         0.0800 
    143 H143        1.5388  -23.6874  -47.3311 H         1 UNK         0.0600 
    144 H144        1.2330  -21.7018  -45.2588 H         1 UNK         0.3000 
    145 H145        0.0127  -24.1498  -42.8931 H         1 UNK         0.0600 
    146 H146        1.9080  -23.1069  -41.6850 H         1 UNK         0.0600 
    147 H147        2.5014  -24.1646  -42.9565 H         1 UNK         0.0600 
    148 H148        2.5268  -22.4205  -43.1853 H         1 UNK         0.0600 
    149 H149        0.3594  -21.2817  -42.7935 H         1 UNK         0.3000 
    150 H150       -3.0406  -20.4650  -43.4478 H         1 UNK         0.0600 
    151 H151       -3.1700  -21.3337  -41.0996 H         1 UNK         0.0600 
    152 H152       -3.0246  -19.5831  -41.1355 H         1 UNK         0.0600 
    153 H153       -1.6245  -20.5749  -40.7310 H         1 UNK         0.0600 
    154 H154       -0.9805  -18.8506  -42.4100 H         1 UNK         0.3000 
    155 H155        0.8664  -18.1871  -45.3462 H         1 UNK         0.0600 
    156 H156        0.0199  -15.9130  -45.2017 H         1 UNK         0.0600 
    157 H157       -1.2307  -16.3750  -44.0477 H         1 UNK         0.0600 
    158 H158       -1.3142  -16.9251  -45.7166 H         1 UNK         0.0600 
    159 H159        1.0784  -16.7147  -43.0972 H         1 UNK         0.3000 
    160 H160        2.4919  -18.7428  -40.6461 H         1 UNK         0.0600 
    161 H161        3.9773  -16.8013  -42.4956 H         1 UNK         0.0600 
    162 H162        4.4439  -18.4724  -42.2023 H         1 UNK         0.0600 
    163 H163        4.4869  -17.3079  -40.8871 H         1 UNK         0.0600 
    164 H164        2.3747  -15.9315  -40.7934 H         1 UNK         0.3000 
    165 H165       -0.9721  -15.3813  -39.9171 H         1 UNK         0.0600 
    166 H166        1.3055  -15.4421  -37.8727 H         1 UNK         0.0600 
    167 H167       -0.1766  -14.4952  -37.7399 H         1 UNK         0.0600 
    168 H168       -0.2466  -16.2499  -37.7186 H         1 UNK         0.0600 
    169 H169       -0.0325  -13.6305  -40.8212 H         1 UNK         0.3000 
    170 H170        1.3533  -11.6200  -40.4661 H         1 UNK         0.0600 
    171 H171        3.6841  -11.6461  -39.5783 H         1 UNK         0.0600 
    172 H172        4.2684  -12.3313  -41.0910 H         1 UNK         0.0600 
    173 H173        3.5772  -10.7096  -41.0599 H         1 UNK         0.0600 
    174 H174        2.6917  -12.4522  -42.9278 H         1 UNK         0.3000 
    175 H175       -0.1299  -13.4521  -44.6672 H         1 UNK         0.0600 
    176 H176        1.2225  -10.7533  -45.1864 H         1 UNK         0.0600 
    177 H177        0.2855  -11.6928  -46.3471 H         1 UNK         0.0600 
    178 H178       -0.5057  -10.9880  -44.9475 H         1 UNK         0.0600 
    179 H179        2.3277  -12.9366  -45.8093 H         1 UNK         0.3000 
    180 H180        4.5523  -15.0555  -44.6237 H         1 UNK         0.0600 
    181 H181        2.5664  -16.5655  -46.3994 H         1 UNK         0.0600 
    182 H182        3.3210  -17.1591  -44.9283 H         1 UNK         0.0600 
    183 H183        4.3003  -16.8793  -46.3545 H         1 UNK         0.0600 
    184 H184        3.8136  -14.6130  -47.4007 H         1 UNK         0.3000 
    185 H185        5.4303  -11.4570  -47.6360 H         1 UNK         0.0600 
    186 H186        7.2007  -13.1868  -47.7853 H         1 UNK         0.0600 
    187 H187        6.1352  -14.2387  -48.7048 H         1 UNK         0.0600 
    188 H188        6.6623  -12.7002  -49.3848 H         1 UNK         0.0600 
    189 H189        3.7352  -11.4482  -49.0114 H         1 UNK         0.3000 
    190 H190       -1.0440  -21.3703  -46.4635 H         1 UNK         0.3000 
    191 H191       -2.6972  -21.7878  -48.7165 H         1 UNK         0.0600 
    192 H192       -4.5169  -20.9616  -47.2428 H         1 UNK         0.0600 
    193 H193       -3.0711  -19.9852  -47.0344 H         1 UNK         0.0600 
    194 H194       -3.5020  -21.1856  -45.8224 H         1 UNK         0.0600 
    195 H195       -2.4704  -23.6354  -45.6243 H         1 UNK         0.3000 
    196 H196       -4.5489  -25.4893  -46.2094 H         1 UNK         0.0600 
    197 H197       -3.4840  -26.8410  -44.3835 H         1 UNK         0.0600 
    198 H198       -3.7139  -25.1632  -43.9200 H         1 UNK         0.0600 
    199 H199       -2.1111  -25.7402  -44.3713 H         1 UNK         0.0600 
    200 H200       -1.0141  -25.6127  -46.8190 H         1 UNK         0.3000 
    201 H201       -0.9442  -28.2101  -47.9787 H         1 UNK         0.0600 
    202 H202        1.0689  -27.0117  -47.1291 H         1 UNK         0.0600 
    203 H203        0.9249  -25.8213  -48.4208 H         1 UNK         0.0600 
    204 H204        1.2879  -27.4984  -48.8040 H         1 UNK         0.0600 
    205 H205       -1.4103  -24.9804  -49.4359 H         1 UNK         0.3000 
    206 H206       -1.6151  -25.8867  -52.1637 H         1 UNK         0.0600 
    207 H207       -0.8759  -23.5987  -51.5625 H         1 UNK         0.0600 
    208 H208       -2.3568  -23.4924  -52.4965 H         1 UNK         0.0600 
    209 H209       -2.4125  -23.2746  -50.7606 H         1 UNK         0.0600 
    210 H210       -3.8060  -26.0728  -49.5740 H         1 UNK         0.3000 
    211 H211       -5.9706  -26.3339  -49.2240 H         1 UNK         0.0600 
    212 H212       -6.1650  -27.3373  -52.1173 H         1 UNK         0.0600 
    213 H213       -7.3256  -27.6359  -50.8302 H         1 UNK         0.0600 
    214 H214       -5.7137  -28.3254  -50.7284 H         1 UNK         0.0600 
    215 H215       -5.0929  -23.8244  -49.8443 H         1 UNK         0.3000 
    216 H216       -5.4835  -21.7492  -50.3764 H         1 UNK         0.0600 
    217 H217       -8.4399  -22.4968  -50.6647 H         1 UNK         0.0600 
    218 H218       -7.7995  -20.8712  -50.4955 H         1 UNK         0.0600 
    219 H219       -7.6337  -22.0146  -49.1725 H         1 UNK         0.0600 
    220 H220       -7.1644  -23.8554  -52.6654 H         1 UNK         0.3000 
    221 H221       -7.5354  -22.1363  -54.8009 H         1 UNK         0.0600 
    222 H222       -7.0992  -25.1696  -54.8127 H         1 UNK         0.0600 
    223 H223       -8.6347  -24.3344  -54.5858 H         1 UNK         0.0600 
    224 H224       -7.8090  -24.2470  -56.1342 H         1 UNK         0.0600 
    225 H225       -4.6333  -24.2384  -54.2472 H         1 UNK         0.3000 
    226 H226       -3.4390  -23.5112  -56.7746 H         1 UNK         0.0600 
    227 H227       -2.9807  -25.6769  -55.6306 H         1 UNK         0.0600 
    228 H228       -1.5054  -24.7876  -55.9740 H         1 UNK         0.0600 
    229 H229       -2.1400  -24.8253  -54.3398 H         1 UNK         0.0600 
    230 H230       -3.5879  -21.8840  -53.7419 H         1 UNK         0.3000 
    231 H231       -1.2841  -20.0976  -54.3159 H         1 UNK         0.0600 
    232 H232       -3.1882  -20.2711  -51.9175 H         1 UNK         0.0600 
    233 H233       -1.5487  -20.9167  -51.9841 H         1 UNK         0.0600 
    234 H234       -1.8148  -19.1845  -52.0607 H         1 UNK         0.0600 
    235 H235       -4.5106  -20.4071  -55.1823 H         1 UNK         0.3000 
    236 H236       -6.1206  -19.1942  -56.0235 H         1 UNK         0.0600 
    237 H237       -4.3454  -18.2666  -57.5350 H         1 UNK         0.0600 
    238 H238       -5.6505  -17.1263  -57.2563 H         1 UNK         0.0600 
    239 H239       -4.1164  -16.9139  -56.4267 H         1 UNK         0.0600 
    240 H240       -5.7313  -19.2222  -53.1708 H         1 UNK         0.3000 
    241 H241       -6.6787  -16.6021  -52.1957 H         1 UNK         0.0600 
    242 H242       -8.6843  -16.4328  -50.8635 H         1 UNK         0.3800 
    243 H243      -10.0000  -17.5140  -51.2197 H         1 UNK         0.3800 
    244 H244       -6.4680  -17.6703  -49.9309 H         1 UNK         0.0800 
    245 H245       -5.9405  -19.1593  -50.6834 H         1 UNK         0.0800 
    246 H246       -4.0163  -18.7624  -48.8133 H         1 UNK         0.0800 
    247 H247       -4.3642  -17.0906  -48.4333 H         1 UNK         0.0800 
@<TRIPOS>BOND
     1    1    2 1    
     2    1  127 1    
     3    1  128 1    
     4    1  129 1    
     5    2    3 2    
     6    2    4 am   BACKBONE|DICT|INTERRES
     7    4    5 1    
     8    4  130 1    
     9    5    6 1    
    10    5   65 1    
    11    5  131 1    
    12    6    7 1    
    13    6  132 1    
    14    6  133 1    
    15    7    8 1    
    16    8    9 1    
    17    8  134 1    
    18    8  135 1    
    19    9   10 ar   
    20    9   14 ar   
    21   10   11 ar   
    22   10  136 1    
    23   11   12 ar   
    24   11  126 1    
    25   12   13 ar   
    26   12  137 1    
    27   13   14 ar   
    28   13   15 1    
    29   14  138 1    
    30   15   16 1    
    31   15  139 1    
    32   15  140 1    
    33   16   17 1    
    34   17   18 1    
    35   17  141 1    
    36   17  142 1    
    37   18   19 1    
    38   18   67 1    
    39   18  143 1    
    40   19   20 am   BACKBONE|DICT|INTERRES
    41   19  144 1    
    42   20   21 2    
    43   20   22 1    
    44   22   23 1    
    45   22   24 1    
    46   22  145 1    
    47   23  146 1    
    48   23  147 1    
    49   23  148 1    
    50   24   25 am   BACKBONE|DICT|INTERRES
    51   24  149 1    
    52   25   26 2    
    53   25   27 1    
    54   27   28 1    
    55   27   29 1    
    56   27  150 1    
    57   28  151 1    
    58   28  152 1    
    59   28  153 1    
    60   29   30 am   BACKBONE|DICT|INTERRES
    61   29  154 1    
    62   30   31 2    
    63   30   32 1    
    64   32   33 1    
    65   32   34 1    
    66   32  155 1    
    67   33  156 1    
    68   33  157 1    
    69   33  158 1    
    70   34   35 am   BACKBONE|DICT|INTERRES
    71   34  159 1    
    72   35   36 2    
    73   35   37 1    
    74   37   38 1    
    75   37   39 1    
    76   37  160 1    
    77   38  161 1    
    78   38  162 1    
    79   38  163 1    
    80   39   40 am   BACKBONE|DICT|INTERRES
    81   39  164 1    
    82   40   41 2    
    83   40   42 1    
    84   42   43 1    
    85   42   44 1    
    86   42  165 1    
    87   43  166 1    
    88   43  167 1    
    89   43  168 1    
    90   44   45 am   BACKBONE|DICT|INTERRES
    91   44  169 1    
    92   45   46 2    
    93   45   47 1    
    94   47   48 1    
    95   47   49 1    
    96   47  170 1    
    97   48  171 1    
    98   48  172 1    
    99   48  173 1    
   100   49   50 am   BACKBONE|DICT|INTERRES
   101   49  174 1    
   102   50   51 2    
   103   50   52 1    
   104   52   53 1    
   105   52   54 1    
   106   52  175 1    
   107   53  176 1    
   108   53  177 1    
   109   53  178 1    
   110   54   55 am   BACKBONE|DICT|INTERRES
   111   54  179 1    
   112   55   56 2    
   113   55   57 1    
   114   57   58 1    
   115   57   59 1    
   116   57  180 1    
   117   58  181 1    
   118   58  182 1    
   119   58  183 1    
   120   59   60 am   BACKBONE|DICT|INTERRES
   121   59  184 1    
   122   60   61 2    
   123   60   62 1    
   124   62   63 1    
   125   62   64 1    
   126   62  185 1    
   127   63  186 1    
   128   63  187 1    
   129   63  188 1    
   130   64   65 am   BACKBONE|DICT|INTERRES
   131   64  189 1    
   132   65   66 2    
   133   67   68 2    
   134   67   69 am   BACKBONE|DICT|INTERRES
   135   69   70 1    
   136   69  190 1    
   137   70   71 1    
   138   70   72 1    
   139   70  191 1    
   140   71  192 1    
   141   71  193 1    
   142   71  194 1    
   143   72   73 2    
   144   72   74 am   BACKBONE|DICT|INTERRES
   145   74   75 1    
   146   74  195 1    
   147   75   76 1    
   148   75   77 1    
   149   75  196 1    
   150   76  197 1    
   151   76  198 1    
   152   76  199 1    
   153   77   78 2    
   154   77   79 am   BACKBONE|DICT|INTERRES
   155   79   80 1    
   156   79  200 1    
   157   80   81 1    
   158   80   82 1    
   159   80  201 1    
   160   81  202 1    
   161   81  203 1    
   162   81  204 1    
   163   82   83 2    
   164   82   84 am   BACKBONE|DICT|INTERRES
   165   84   85 1    
   166   84  205 1    
   167   85   86 1    
   168   85   87 1    
   169   85  206 1    
   170   86  207 1    
   171   86  208 1    
   172   86  209 1    
   173   87   88 2    
   174   87   89 am   BACKBONE|DICT|INTERRES
   175   89   90 1    
   176   89  210 1    
   177   90   91 1    
   178   90   92 1    
   179   90  211 1    
   180   91  212 1    
   181   91  213 1    
   182   91  214 1    
   183   92   93 2    
   184   92   94 am   BACKBONE|DICT|INTERRES
   185   94   95 1    
   186   94  215 1    
   187   95   96 1    
   188   95   97 1    
   189   95  216 1    
   190   96  217 1    
   191   96  218 1    
   192   96  219 1    
   193   97   98 2    
   194   97   99 am   BACKBONE|DICT|INTERRES
   195   99  100 1    
   196   99  220 1    
   197  100  101 1    
   198  100  102 1    
   199  100  221 1    
   200  101  222 1    
   201  101  223 1    
   202  101  224 1    
   203  102  103 2    
   204  102  104 am   BACKBONE|DICT|INTERRES
   205  104  105 1    
   206  104  225 1    
   207  105  106 1    
   208  105  107 1    
   209  105  226 1    
   210  106  227 1    
   211  106  228 1    
   212  106  229 1    
   213  107  108 2    
   214  107  109 am   BACKBONE|DICT|INTERRES
   215  109  110 1    
   216  109  230 1    
   217  110  111 1    
   218  110  112 1    
   219  110  231 1    
   220  111  232 1    
   221  111  233 1    
   222  111  234 1    
   223  112  113 2    
   224  112  114 am   BACKBONE|DICT|INTERRES
   225  114  115 1    
   226  114  235 1    
   227  115  116 1    
   228  115  117 1    
   229  115  236 1    
   230  116  237 1    
   231  116  238 1    
   232  116  239 1    
   233  117  118 2    
   234  117  119 am   BACKBONE|DICT|INTERRES
   235  119  120 1    
   236  119  240 1    
   237  120  121 1    
   238  120  124 1    
   239  120  241 1    
   240  121  122 am   BACKBONE|DICT|INTERRES
   241  121  123 2    
   242  122  242 1    
   243  122  243 1    
   244  124  125 1    
   245  124  244 1    
   246  124  245 1    
   247  125  126 1    
   248  126  246 1    
   249  126  247 1    
@<TRIPOS>SUBSTRUCTURE
     1 UNK         1 GROUP             0       ****    0 ROOT    
