@<TRIPOS>MOLECULE
3R540
247   249    1
SMALL
USER_CHARGES


@<TRIPOS>ATOM
      1 CA         -2.3652  -12.6219  -43.8685 C.3       0 UNK        -0.1800 
      2 C          -1.9527  -12.2138  -45.2763 C.2       0 UNK         0.5000 
      3 O          -1.5412  -11.0732  -45.4866 O.2       0 UNK        -0.5000 
      4 N          -2.0719  -13.1375  -46.2395 N.am      1 UNK        -0.5000 
      5 CA         -1.7013  -12.9382  -47.6479 C.3       1 UNK         0.1400 
      6 C6         -2.2115  -14.0822  -48.5585 C.3       23 UNK        -0.0398 
      7 S7         -3.9946  -14.4453  -48.3969 S.3       23 UNK        -0.2404 
      8 C8         -3.9858  -16.2462  -48.0941 C.3       23 UNK        -0.0205 
      9 C9         -3.3233  -17.0146  -49.2306 C.ar      23 UNK        -0.0193 
     10 C10        -3.9715  -17.1507  -50.4618 C.ar      23 UNK        -0.1150 
     11 C11        -3.3465  -17.8097  -51.5250 C.ar      23 UNK        -0.0193 
     12 C12        -2.0717  -18.3535  -51.3414 C.ar      23 UNK        -0.1150 
     13 C13        -1.4176  -18.2342  -50.1116 C.ar      23 UNK        -0.0193 
     14 C14        -2.0507  -17.5689  -49.0586 C.ar      23 UNK        -0.1150 
     15 C15        -0.0144  -18.7947  -49.9383 C.3       23 UNK        -0.0205 
     16 S16        -0.0381  -20.5196  -49.3670 S.3       23 UNK        -0.2404 
     17 C17        -0.0823  -20.3044  -47.5593 C.3       23 UNK        -0.0398 
     18 CA         -0.2972  -21.6451  -46.8168 C.3       11 UNK         0.1400 
     19 N           0.2334  -21.6092  -45.4534 N.am      11 UNK        -0.5000 
     20 C           0.3654  -22.6799  -44.6576 C.2       10 UNK         0.5000 
     21 O           0.1311  -23.8335  -45.0174 O.2       10 UNK        -0.5000 
     22 CA          0.7844  -22.4115  -43.2000 C.3       10 UNK         0.1400 
     23 CB          2.3112  -22.2962  -43.0822 C.3       10 UNK        -0.1800 
     24 N           0.1517  -21.2137  -42.6425 N.am      10 UNK        -0.5000 
     25 C          -1.1702  -21.0720  -42.4658 C.2       9 UNK         0.5000 
     26 O          -1.9877  -21.9599  -42.7033 O.2       9 UNK        -0.5000 
     27 CA         -1.6731  -19.6973  -41.9932 C.3       9 UNK         0.1400 
     28 CB         -1.5169  -19.5534  -40.4723 C.3       9 UNK        -0.1800 
     29 N          -1.0043  -18.5858  -42.6696 N.am      9 UNK        -0.5000 
     30 C          -1.0689  -18.3386  -43.9859 C.2       8 UNK         0.5000 
     31 O          -1.7336  -19.0057  -44.7779 O.2       8 UNK        -0.5000 
     32 CA         -0.1980  -17.1862  -44.5176 C.3       8 UNK         0.1400 
     33 CB         -0.8543  -15.8271  -44.2406 C.3       8 UNK        -0.1800 
     34 N           1.1514  -17.2085  -43.9541 N.am      8 UNK        -0.5000 
     35 C           2.0355  -18.1963  -44.1559 C.2       7 UNK         0.5000 
     36 O           1.8226  -19.1665  -44.8830 O.2       7 UNK        -0.5000 
     37 CA          3.3536  -18.1133  -43.3685 C.3       7 UNK         0.1400 
     38 CB          4.3679  -17.1997  -44.0737 C.3       7 UNK        -0.1800 
     39 N           3.1377  -17.6515  -41.9971 N.am      7 UNK        -0.5000 
     40 C           2.5206  -18.3718  -41.0491 C.2       6 UNK         0.5000 
     41 O           2.1061  -19.5174  -41.2228 O.2       6 UNK        -0.5000 
     42 CA          2.2893  -17.6782  -39.6942 C.3       6 UNK         0.1400 
     43 CB          3.5426  -17.7807  -38.8124 C.3       6 UNK        -0.1800 
     44 N           1.9129  -16.2715  -39.8411 N.am      6 UNK        -0.5000 
     45 C           0.7705  -15.8455  -40.3991 C.2       5 UNK         0.5000 
     46 O          -0.1106  -16.5985  -40.8093 O.2       5 UNK        -0.5000 
     47 CA          0.6100  -14.3249  -40.5789 C.3       5 UNK         0.1400 
     48 CB         -0.0423  -13.6982  -39.3381 C.3       5 UNK        -0.1800 
     49 N           1.8781  -13.6466  -40.8602 N.am      5 UNK        -0.5000 
     50 C           2.6142  -13.8512  -41.9594 C.2       4 UNK         0.5000 
     51 O           2.3031  -14.6402  -42.8567 O.2       4 UNK        -0.5000 
     52 CA          3.9439  -13.0939  -42.0404 C.3       4 UNK         0.1400 
     53 CB          5.0816  -13.9309  -41.4332 C.3       4 UNK        -0.1800 
     54 N           4.2354  -12.8252  -43.4417 N.am      4 UNK        -0.5000 
     55 C           4.7444  -11.6873  -43.9268 C.2       3 UNK         0.5000 
     56 O           5.1256  -10.7549  -43.2175 O.2       3 UNK        -0.5000 
     57 CA          4.8476  -11.5548  -45.4621 C.3       3 UNK         0.1400 
     58 CB          6.3080  -11.7103  -45.9151 C.3       3 UNK        -0.1800 
     59 N           4.0205  -12.5064  -46.2124 N.am      3 UNK        -0.5000 
     60 C           2.6811  -12.5303  -46.2204 C.2       2 UNK         0.5000 
     61 O           1.9829  -11.7373  -45.5851 O.2       2 UNK        -0.5000 
     62 CA          2.0371  -13.6519  -47.0581 C.3       2 UNK         0.1400 
     63 CB          2.4446  -15.0406  -46.5350 C.3       2 UNK        -0.1800 
     64 N           0.5794  -13.5748  -47.0394 N.am      2 UNK        -0.5000 
     65 C          -0.1737  -12.8061  -47.8357 C.2       1 UNK         0.5000 
     66 O           0.2788  -12.0582  -48.7037 O.2       1 UNK        -0.5000 
     67 C          -1.7776  -22.0772  -46.8290 C.2       11 UNK         0.5000 
     68 O          -2.1371  -22.9944  -47.5676 O.2       11 UNK        -0.5000 
     69 N          -2.6011  -21.4465  -45.9788 N.am      12 UNK        -0.5000 
     70 CA         -4.0251  -21.7436  -45.8070 C.3       12 UNK         0.1400 
     71 CB         -4.6500  -20.7337  -44.8344 C.3       12 UNK        -0.1800 
     72 C          -4.2932  -23.1893  -45.3480 C.2       12 UNK         0.5000 
     73 O          -5.2097  -23.8263  -45.8672 O.2       12 UNK        -0.5000 
     74 N          -3.4525  -23.7053  -44.4402 N.am      13 UNK        -0.5000 
     75 CA         -3.4605  -25.0962  -43.9760 C.3       13 UNK         0.1400 
     76 CB         -2.4831  -25.2447  -42.8005 C.3       13 UNK        -0.1800 
     77 C          -3.1352  -26.1204  -45.0834 C.2       13 UNK         0.5000 
     78 O          -3.5869  -27.2626  -45.0010 O.2       13 UNK        -0.5000 
     79 N          -2.4016  -25.6862  -46.1165 N.am      14 UNK        -0.5000 
     80 CA         -2.1099  -26.4404  -47.3364 C.3       14 UNK         0.1400 
     81 CB         -0.6791  -26.1041  -47.7948 C.3       14 UNK        -0.1800 
     82 C          -3.1480  -26.1686  -48.4485 C.2       14 UNK         0.5000 
     83 O          -2.8489  -26.3907  -49.6226 O.2       14 UNK        -0.5000 
     84 N          -4.3375  -25.6695  -48.0760 N.am      15 UNK        -0.5000 
     85 CA         -5.4622  -25.3010  -48.9422 C.3       15 UNK         0.1400 
     86 CB         -6.0480  -26.5441  -49.6451 C.3       15 UNK        -0.1800 
     87 C          -5.0949  -24.1685  -49.9201 C.2       15 UNK         0.5000 
     88 O          -5.3988  -24.2566  -51.1104 O.2       15 UNK        -0.5000 
     89 N          -4.4031  -23.1458  -49.3962 N.am      16 UNK        -0.5000 
     90 CA         -3.8148  -22.0124  -50.1206 C.3       16 UNK         0.1400 
     91 CB         -4.9127  -21.1421  -50.7642 C.3       16 UNK        -0.1800 
     92 C          -2.7251  -22.4737  -51.1111 C.2       16 UNK         0.5000 
     93 O          -2.6547  -21.9702  -52.2306 O.2       16 UNK        -0.5000 
     94 N          -1.9248  -23.4598  -50.6731 N.am      17 UNK        -0.5000 
     95 CA         -0.9331  -24.2161  -51.4467 C.3       17 UNK         0.1400 
     96 CB          0.2859  -23.3363  -51.7908 C.3       17 UNK        -0.1800 
     97 C          -1.5626  -24.9049  -52.6770 C.2       17 UNK         0.5000 
     98 O          -1.0611  -24.7663  -53.7941 O.2       17 UNK        -0.5000 
     99 N          -2.6718  -25.6196  -52.4316 N.am      18 UNK        -0.5000 
    100 CA        -3.5611  -26.2530  -53.4107 C.3       18 UNK         0.1400 
    101 CB        -2.8616  -27.4459  -54.0941 C.3       18 UNK        -0.1800 
    102 C         -4.1337  -25.2261  -54.4108 C.2       18 UNK         0.5000 
    103 O         -3.9316  -25.3483  -55.6211 O.2       18 UNK        -0.5000 
    104 N         -4.8021  -24.2015  -53.8646 N.am      19 UNK        -0.5000 
    105 CA        -5.3932  -23.0197  -54.5058 C.3       19 UNK         0.1400 
    106 CB        -6.4635  -23.4087  -55.5433 C.3       19 UNK        -0.1800 
    107 C         -4.3710  -22.0312  -55.1016 C.2       19 UNK         0.5000 
    108 O         -4.5301  -20.8249  -54.9138 O.2       19 UNK        -0.5000 
    109 N         -3.3639  -22.5528  -55.8184 N.am      20 UNK        -0.5000 
    110 CA        -2.2110  -21.8602  -56.4106 C.3       20 UNK         0.1400 
    111 CB        -1.2795  -21.3400  -55.2965 C.3       20 UNK        -0.1800 
    112 C         -2.5710  -20.7498  -57.4232 C.2       20 UNK         0.5000 
    113 O         -1.7532  -19.8592  -57.6640 O.2       20 UNK        -0.5000 
    114 N         -3.7934  -20.7979  -57.9754 N.am      21 UNK        -0.5000 
    115 CA        -4.4729  -19.8039  -58.8212 C.3       21 UNK         0.1400 
    116 CB        -3.7153  -19.5610  -60.1406 C.3       21 UNK        -0.1800 
    117 C         -4.7861  -18.4759  -58.0974 C.2       21 UNK         0.5000 
    118 O         -5.9135  -17.9892  -58.1879 O.2       21 UNK        -0.5000 
    119 N         -3.7987  -17.9351  -57.3750 N.am      22 UNK        -0.5000 
    120 CA        -3.8647  -16.7372  -56.5236 C.3       22 UNK         0.1400 
    121 C         -4.0207  -15.3859  -57.2888 C.2       22 UNK         0.5000 
    122 N         -3.7834  -15.3363  -58.5942 N.am      22 UNK        -0.7600 
    123 O         -4.3326  -14.3578  -56.6940 O.2       22 UNK        -0.5000 
    124 C124       -4.8675  -16.9032  -55.3414 C.3       23 UNK        -0.0398 
    125 S125       -4.1572  -16.3627  -53.7479 S.3       23 UNK        -0.2404 
    126 C126       -4.0543  -17.9511  -52.8647 C.3       23 UNK        -0.0205 
    127 H127       -1.4846  -12.7099  -43.2317 H         1 UNK         0.0600 
    128 H128       -2.8911  -13.5767  -43.8601 H         1 UNK         0.0600 
    129 H129       -3.0260  -11.8702  -43.4368 H         1 UNK         0.0600 
    130 H130       -2.4806  -14.0333  -46.0199 H         1 UNK         0.3000 
    131 H131       -2.1595  -12.0056  -47.9842 H         1 UNK         0.0600 
    132 H132       -2.0206  -13.8443  -49.6067 H         1 UNK         0.0800 
    133 H133       -1.6440  -14.9891  -48.3517 H         1 UNK         0.0800 
    134 H134       -3.4872  -16.4516  -47.1454 H         1 UNK         0.0800 
    135 H135       -5.0143  -16.5910  -47.9784 H         1 UNK         0.0800 
    136 H136       -4.9544  -16.7225  -50.6006 H         1 UNK         0.1150 
    137 H137       -1.5863  -18.8717  -52.1569 H         1 UNK         0.1150 
    138 H138       -1.5430  -17.4628  -48.1107 H         1 UNK         0.1150 
    139 H139        0.5147  -18.7536  -50.8916 H         1 UNK         0.0800 
    140 H140        0.5630  -18.1779  -49.2478 H         1 UNK         0.0800 
    141 H141       -0.8395  -19.5691  -47.2859 H         1 UNK         0.0800 
    142 H142        0.8767  -19.8702  -47.2745 H         1 UNK         0.0800 
    143 H143        0.2690  -22.4178  -47.3422 H         1 UNK         0.0600 
    144 H144        0.5038  -20.7001  -45.0928 H         1 UNK         0.3000 
    145 H145        0.4626  -23.2661  -42.6013 H         1 UNK         0.0600 
    146 H146        2.6185  -22.1844  -42.0423 H         1 UNK         0.0600 
    147 H147        2.8013  -23.1891  -43.4721 H         1 UNK         0.0600 
    148 H148        2.6956  -21.4412  -43.6382 H         1 UNK         0.0600 
    149 H149        0.7698  -20.4570  -42.3669 H         1 UNK         0.3000 
    150 H150       -2.7370  -19.6345  -42.2295 H         1 UNK         0.0600 
    151 H151       -2.0225  -20.3657  -39.9489 H         1 UNK         0.0600 
    152 H152       -1.9519  -18.6185  -40.1188 H         1 UNK         0.0600 
    153 H153       -0.4694  -19.5695  -40.1712 H         1 UNK         0.0600 
    154 H154       -0.4784  -17.9486  -42.0770 H         1 UNK         0.3000 
    155 H155       -0.1079  -17.3056  -45.5994 H         1 UNK         0.0600 
    156 H156       -1.8198  -15.7585  -44.7421 H         1 UNK         0.0600 
    157 H157       -0.2335  -15.0056  -44.5960 H         1 UNK         0.0600 
    158 H158       -1.0287  -15.6710  -43.1763 H         1 UNK         0.0600 
    159 H159        1.4216  -16.4265  -43.3673 H         1 UNK         0.3000 
    160 H160        3.7786  -19.1184  -43.3273 H         1 UNK         0.0600 
    161 H161        4.0266  -16.1664  -44.1188 H         1 UNK         0.0600 
    162 H162        4.5433  -17.5307  -45.0981 H         1 UNK         0.0600 
    163 H163        5.3293  -17.2105  -43.5602 H         1 UNK         0.0600 
    164 H164        3.4007  -16.7000  -41.7907 H         1 UNK         0.3000 
    165 H165        1.4721  -18.1973  -39.1890 H         1 UNK         0.0600 
    166 H166        3.3635  -17.3604  -37.8226 H         1 UNK         0.0600 
    167 H167        3.8373  -18.8218  -38.6736 H         1 UNK         0.0600 
    168 H168        4.3911  -17.2550  -39.2524 H         1 UNK         0.0600 
    169 H169        2.5800  -15.5835  -39.5256 H         1 UNK         0.3000 
    170 H170       -0.0531  -14.1620  -41.4310 H         1 UNK         0.0600 
    171 H171       -0.9996  -14.1732  -39.1192 H         1 UNK         0.0600 
    172 H172        0.5871  -13.8044  -38.4537 H         1 UNK         0.0600 
    173 H173       -0.2355  -12.6359  -39.4883 H         1 UNK         0.0600 
    174 H174        2.2021  -12.9902  -40.1643 H         1 UNK         0.3000 
    175 H175        3.8433  -12.1575  -41.4875 H         1 UNK         0.0600 
    176 H176        5.2104  -14.8781  -41.9586 H         1 UNK         0.0600 
    177 H177        6.0294  -13.3942  -41.4782 H         1 UNK         0.0600 
    178 H178        4.8872  -14.1581  -40.3844 H         1 UNK         0.0600 
    179 H179        3.8817  -13.5185  -44.0864 H         1 UNK         0.3000 
    180 H180        4.5154  -10.5474  -45.7208 H         1 UNK         0.0600 
    181 H181        6.6915  -12.7082  -45.6989 H         1 UNK         0.0600 
    182 H182        6.9545  -10.9935  -45.4070 H         1 UNK         0.0600 
    183 H183        6.4110  -11.5341  -46.9860 H         1 UNK         0.0600 
    184 H184        4.5224  -13.1921  -46.7579 H         1 UNK         0.3000 
    185 H185        2.3869  -13.5504  -48.0876 H         1 UNK         0.0600 
    186 H186        3.5179  -15.2074  -46.6297 H         1 UNK         0.0600 
    187 H187        2.1861  -15.1574  -45.4838 H         1 UNK         0.0600 
    188 H188        1.9482  -15.8365  -47.0908 H         1 UNK         0.0600 
    189 H189        0.1156  -14.0957  -46.3125 H         1 UNK         0.3000 
    190 H190       -2.2325  -20.6787  -45.4216 H         1 UNK         0.3000 
    191 H191       -4.5043  -21.6120  -46.7790 H         1 UNK         0.0600 
    192 H192       -4.5185  -19.7113  -45.1893 H         1 UNK         0.0600 
    193 H193       -5.7215  -20.9064  -44.7273 H         1 UNK         0.0600 
    194 H194       -4.2056  -20.8028  -43.8417 H         1 UNK         0.0600 
    195 H195       -2.7646  -23.0904  -44.0117 H         1 UNK         0.3000 
    196 H196       -4.4659  -25.3178  -43.6124 H         1 UNK         0.0600 
    197 H197       -2.4857  -26.2649  -42.4148 H         1 UNK         0.0600 
    198 H198       -2.7547  -24.5852  -41.9761 H         1 UNK         0.0600 
    199 H199       -1.4610  -25.0074  -43.0962 H         1 UNK         0.0600 
    200 H200       -2.0810  -24.7255  -46.1094 H         1 UNK         0.3000 
    201 H201       -2.1472  -27.5101  -47.1223 H         1 UNK         0.0600 
    202 H202        0.0421  -26.2930  -46.9994 H         1 UNK         0.0600 
    203 H203       -0.5810  -25.0593  -48.0890 H         1 UNK         0.0600 
    204 H204       -0.3847  -26.7152  -48.6487 H         1 UNK         0.0600 
    205 H205       -4.4736  -25.4598  -47.0948 H         1 UNK         0.3000 
    206 H206       -6.2366  -24.8987  -48.2877 H         1 UNK         0.0600 
    207 H207       -6.3100  -27.3173  -48.9230 H         1 UNK         0.0600 
    208 H208       -6.9569  -26.2900  -50.1916 H         1 UNK         0.0600 
    209 H209       -5.3489  -26.9771  -50.3609 H         1 UNK         0.0600 
    210 H210       -4.1148  -23.2248  -48.4292 H         1 UNK         0.3000 
    211 H211       -3.3068  -21.3903  -49.3831 H         1 UNK         0.0600 
    212 H212       -5.4695  -21.6790  -51.5302 H         1 UNK         0.0600 
    213 H213       -4.4782  -20.2669  -51.2405 H         1 UNK         0.0600 
    214 H214       -5.6225  -20.7867  -50.0175 H         1 UNK         0.0600 
    215 H215       -2.0674  -23.7722  -49.7213 H         1 UNK         0.3000 
    216 H216       -0.5818  -25.0196  -50.7981 H         1 UNK         0.0600 
    217 H217        1.0338  -23.9014  -52.3480 H         1 UNK         0.0600 
    218 H218        0.7702  -22.9708  -50.8861 H         1 UNK         0.0600 
    219 H219        0.0086  -22.4727  -52.3950 H         1 UNK         0.0600 
    220 H220       -2.9580  -25.7108  -51.4606 H         1 UNK         0.3000 
    221 H221       -4.4093  -26.6461  -52.8483 H         1 UNK         0.0600 
    222 H222       -2.0090  -27.1299  -54.6958 H         1 UNK         0.0600 
    223 H223       -2.5036  -28.1656  -53.3580 H         1 UNK         0.0600 
    224 H224       -3.5502  -27.9726  -54.7557 H         1 UNK         0.0600 
    225 H225       -4.8968  -24.2057  -52.8493 H         1 UNK         0.3000 
    226 H226       -5.9049  -22.4869  -53.7037 H         1 UNK         0.0600 
    227 H227       -7.2231  -24.0537  -55.1018 H         1 UNK         0.0600 
    228 H228       -6.9718  -22.5224  -55.9250 H         1 UNK         0.0600 
    229 H229       -6.0360  -23.9305  -56.3996 H         1 UNK         0.0600 
    230 H230       -3.3629  -23.5654  -55.9133 H         1 UNK         0.3000 
    231 H231       -1.6624  -22.6156  -56.9743 H         1 UNK         0.0600 
    232 H232       -1.7496  -20.5451  -54.7161 H         1 UNK         0.0600 
    233 H233       -0.3498  -20.9442  -55.7063 H         1 UNK         0.0600 
    234 H234       -1.0117  -22.1392  -54.6064 H         1 UNK         0.0600 
    235 H235       -4.3788  -21.5648  -57.6767 H         1 UNK         0.3000 
    236 H236       -5.4345  -20.2509  -59.0787 H         1 UNK         0.0600 
    237 H237       -3.5425  -20.4963  -60.6730 H         1 UNK         0.0600 
    238 H238       -4.2902  -18.9121  -60.8023 H         1 UNK         0.0600 
    239 H239       -2.7487  -19.0835  -59.9795 H         1 UNK         0.0600 
    240 H240       -2.9074  -18.4247  -57.3850 H         1 UNK         0.3000 
    241 H241       -2.8598  -16.6815  -56.1038 H         1 UNK         0.0600 
    242 H242       -3.8758  -14.4599  -59.0836 H         1 UNK         0.3800 
    243 H243       -3.5159  -16.1672  -59.0971 H         1 UNK         0.3800 
    244 H244       -5.7951  -16.3578  -55.5229 H         1 UNK         0.0800 
    245 H245       -5.1712  -17.9463  -55.2398 H         1 UNK         0.0800 
    246 H246       -5.0604  -18.3418  -52.7056 H         1 UNK         0.0800 
    247 H247       -3.5364  -18.6794  -53.4916 H         1 UNK         0.0800 
@<TRIPOS>BOND
     1    1    2 1    
     2    1  127 1    
     3    1  128 1    
     4    1  129 1    
     5    2    3 2    
     6    2    4 am   BACKBONE|DICT|INTERRES
     7    4    5 1    
     8    4  130 1    
     9    5    6 1    
    10    5   65 1    
    11    5  131 1    
    12    6    7 1    
    13    6  132 1    
    14    6  133 1    
    15    7    8 1    
    16    8    9 1    
    17    8  134 1    
    18    8  135 1    
    19    9   10 ar   
    20    9   14 ar   
    21   10   11 ar   
    22   10  136 1    
    23   11   12 ar   
    24   11  126 1    
    25   12   13 ar   
    26   12  137 1    
    27   13   14 ar   
    28   13   15 1    
    29   14  138 1    
    30   15   16 1    
    31   15  139 1    
    32   15  140 1    
    33   16   17 1    
    34   17   18 1    
    35   17  141 1    
    36   17  142 1    
    37   18   19 1    
    38   18   67 1    
    39   18  143 1    
    40   19   20 am   BACKBONE|DICT|INTERRES
    41   19  144 1    
    42   20   21 2    
    43   20   22 1    
    44   22   23 1    
    45   22   24 1    
    46   22  145 1    
    47   23  146 1    
    48   23  147 1    
    49   23  148 1    
    50   24   25 am   BACKBONE|DICT|INTERRES
    51   24  149 1    
    52   25   26 2    
    53   25   27 1    
    54   27   28 1    
    55   27   29 1    
    56   27  150 1    
    57   28  151 1    
    58   28  152 1    
    59   28  153 1    
    60   29   30 am   BACKBONE|DICT|INTERRES
    61   29  154 1    
    62   30   31 2    
    63   30   32 1    
    64   32   33 1    
    65   32   34 1    
    66   32  155 1    
    67   33  156 1    
    68   33  157 1    
    69   33  158 1    
    70   34   35 am   BACKBONE|DICT|INTERRES
    71   34  159 1    
    72   35   36 2    
    73   35   37 1    
    74   37   38 1    
    75   37   39 1    
    76   37  160 1    
    77   38  161 1    
    78   38  162 1    
    79   38  163 1    
    80   39   40 am   BACKBONE|DICT|INTERRES
    81   39  164 1    
    82   40   41 2    
    83   40   42 1    
    84   42   43 1    
    85   42   44 1    
    86   42  165 1    
    87   43  166 1    
    88   43  167 1    
    89   43  168 1    
    90   44   45 am   BACKBONE|DICT|INTERRES
    91   44  169 1    
    92   45   46 2    
    93   45   47 1    
    94   47   48 1    
    95   47   49 1    
    96   47  170 1    
    97   48  171 1    
    98   48  172 1    
    99   48  173 1    
   100   49   50 am   BACKBONE|DICT|INTERRES
   101   49  174 1    
   102   50   51 2    
   103   50   52 1    
   104   52   53 1    
   105   52   54 1    
   106   52  175 1    
   107   53  176 1    
   108   53  177 1    
   109   53  178 1    
   110   54   55 am   BACKBONE|DICT|INTERRES
   111   54  179 1    
   112   55   56 2    
   113   55   57 1    
   114   57   58 1    
   115   57   59 1    
   116   57  180 1    
   117   58  181 1    
   118   58  182 1    
   119   58  183 1    
   120   59   60 am   BACKBONE|DICT|INTERRES
   121   59  184 1    
   122   60   61 2    
   123   60   62 1    
   124   62   63 1    
   125   62   64 1    
   126   62  185 1    
   127   63  186 1    
   128   63  187 1    
   129   63  188 1    
   130   64   65 am   BACKBONE|DICT|INTERRES
   131   64  189 1    
   132   65   66 2    
   133   67   68 2    
   134   67   69 am   BACKBONE|DICT|INTERRES
   135   69   70 1    
   136   69  190 1    
   137   70   71 1    
   138   70   72 1    
   139   70  191 1    
   140   71  192 1    
   141   71  193 1    
   142   71  194 1    
   143   72   73 2    
   144   72   74 am   BACKBONE|DICT|INTERRES
   145   74   75 1    
   146   74  195 1    
   147   75   76 1    
   148   75   77 1    
   149   75  196 1    
   150   76  197 1    
   151   76  198 1    
   152   76  199 1    
   153   77   78 2    
   154   77   79 am   BACKBONE|DICT|INTERRES
   155   79   80 1    
   156   79  200 1    
   157   80   81 1    
   158   80   82 1    
   159   80  201 1    
   160   81  202 1    
   161   81  203 1    
   162   81  204 1    
   163   82   83 2    
   164   82   84 am   BACKBONE|DICT|INTERRES
   165   84   85 1    
   166   84  205 1    
   167   85   86 1    
   168   85   87 1    
   169   85  206 1    
   170   86  207 1    
   171   86  208 1    
   172   86  209 1    
   173   87   88 2    
   174   87   89 am   BACKBONE|DICT|INTERRES
   175   89   90 1    
   176   89  210 1    
   177   90   91 1    
   178   90   92 1    
   179   90  211 1    
   180   91  212 1    
   181   91  213 1    
   182   91  214 1    
   183   92   93 2    
   184   92   94 am   BACKBONE|DICT|INTERRES
   185   94   95 1    
   186   94  215 1    
   187   95   96 1    
   188   95   97 1    
   189   95  216 1    
   190   96  217 1    
   191   96  218 1    
   192   96  219 1    
   193   97   98 2    
   194   97   99 am   BACKBONE|DICT|INTERRES
   195   99  100 1    
   196   99  220 1    
   197  100  101 1    
   198  100  102 1    
   199  100  221 1    
   200  101  222 1    
   201  101  223 1    
   202  101  224 1    
   203  102  103 2    
   204  102  104 am   BACKBONE|DICT|INTERRES
   205  104  105 1    
   206  104  225 1    
   207  105  106 1    
   208  105  107 1    
   209  105  226 1    
   210  106  227 1    
   211  106  228 1    
   212  106  229 1    
   213  107  108 2    
   214  107  109 am   BACKBONE|DICT|INTERRES
   215  109  110 1    
   216  109  230 1    
   217  110  111 1    
   218  110  112 1    
   219  110  231 1    
   220  111  232 1    
   221  111  233 1    
   222  111  234 1    
   223  112  113 2    
   224  112  114 am   BACKBONE|DICT|INTERRES
   225  114  115 1    
   226  114  235 1    
   227  115  116 1    
   228  115  117 1    
   229  115  236 1    
   230  116  237 1    
   231  116  238 1    
   232  116  239 1    
   233  117  118 2    
   234  117  119 am   BACKBONE|DICT|INTERRES
   235  119  120 1    
   236  119  240 1    
   237  120  121 1    
   238  120  124 1    
   239  120  241 1    
   240  121  122 am   BACKBONE|DICT|INTERRES
   241  121  123 2    
   242  122  242 1    
   243  122  243 1    
   244  124  125 1    
   245  124  244 1    
   246  124  245 1    
   247  125  126 1    
   248  126  246 1    
   249  126  247 1    
@<TRIPOS>SUBSTRUCTURE
     1 UNK         1 GROUP             0       ****    0 ROOT    
