@<TRIPOS>MOLECULE
3R540
247   249    1
SMALL
USER_CHARGES


@<TRIPOS>ATOM
      1 CA         -0.9820  -11.4533  -45.2189 C.3       0 UNK        -0.1800 
      2 C           0.2005  -11.5152  -46.1745 C.2       0 UNK         0.5000 
      3 O           0.9937  -10.5745  -46.2286 O.2       0 UNK        -0.5000 
      4 N           0.3232  -12.6177  -46.9251 N.am      1 UNK        -0.5000 
      5 CA          1.4288  -12.9020  -47.8489 C.3       1 UNK         0.1400 
      6 C6          1.2069  -14.2127  -48.6430 C.3       23 UNK        -0.0398 
      7 S7         -0.2772  -14.1018  -49.7004 S.3       23 UNK        -0.2404 
      8 C8          0.1507  -15.2081  -51.0807 C.3       23 UNK        -0.0205 
      9 C9         -0.2063  -16.6527  -50.7692 C.ar      23 UNK        -0.0193 
     10 C10        -1.5067  -17.1102  -51.0005 C.ar      23 UNK        -0.1150 
     11 C11        -1.8577  -18.4366  -50.7281 C.ar      23 UNK        -0.0193 
     12 C12        -0.8848  -19.3099  -50.2372 C.ar      23 UNK        -0.1150 
     13 C13         0.4219  -18.8696  -50.0129 C.ar      23 UNK        -0.0193 
     14 C14         0.7566  -17.5372  -50.2739 C.ar      23 UNK        -0.1150 
     15 C15         1.4679  -19.8472  -49.5068 C.3       23 UNK        -0.0205 
     16 S16         1.6134  -19.7620  -47.6985 S.3       23 UNK        -0.2404 
     17 C17         2.0907  -21.4724  -47.2881 C.3       23 UNK        -0.0398 
     18 CA          0.9807  -22.3292  -46.6294 C.3       11 UNK         0.1400 
     19 N           0.6468  -21.9167  -45.2627 N.am      11 UNK        -0.5000 
     20 C           0.0592  -22.7362  -44.3780 C.2       10 UNK         0.5000 
     21 O          -0.2481  -23.9003  -44.6368 O.2       10 UNK        -0.5000 
     22 CA         -0.2741  -22.1661  -42.9882 C.3       10 UNK         0.1400 
     23 CB          0.9821  -22.0811  -42.1087 C.3       10 UNK        -0.1800 
     24 N          -0.9337  -20.8626  -43.0497 N.am      10 UNK        -0.5000 
     25 C          -2.1434  -20.6547  -43.5892 C.2       9 UNK         0.5000 
     26 O          -2.8339  -21.5468  -44.0814 O.2       9 UNK        -0.5000 
     27 CA         -2.6573  -19.2038  -43.6129 C.3       9 UNK         0.1400 
     28 CB         -3.2520  -18.8123  -42.2521 C.3       9 UNK        -0.1800 
     29 N          -1.6204  -18.2446  -43.9906 N.am      9 UNK        -0.5000 
     30 C          -1.0043  -18.2283  -45.1813 C.2       8 UNK         0.5000 
     31 O          -1.2860  -18.9907  -46.1033 O.2       8 UNK        -0.5000 
     32 CA          0.1569  -17.2318  -45.3445 C.3       8 UNK         0.1400 
     33 CB         -0.3683  -15.8063  -45.5661 C.3       8 UNK        -0.1800 
     34 N           1.0676  -17.2507  -44.1999 N.am      8 UNK        -0.5000 
     35 C           1.7532  -18.3222  -43.7735 C.2       7 UNK         0.5000 
     36 O           1.7389  -19.4198  -44.3285 O.2       7 UNK        -0.5000 
     37 CA          2.5451  -18.1543  -42.4672 C.3       7 UNK         0.1400 
     38 CB          3.9113  -17.5049  -42.7318 C.3       7 UNK        -0.1800 
     39 N           1.7979  -17.3702  -41.4837 N.am      7 UNK        -0.5000 
     40 C           0.7077  -17.8136  -40.8413 C.2       6 UNK         0.5000 
     41 O           0.2473  -18.9471  -40.9792 O.2       6 UNK        -0.5000 
     42 CA         -0.0087  -16.8081  -39.9206 C.3       6 UNK         0.1400 
     43 CB          0.6812  -16.7397  -38.5500 C.3       6 UNK        -0.1800 
     44 N          -0.0752  -15.4648  -40.4993 N.am      6 UNK        -0.5000 
     45 C          -0.7958  -15.1475  -41.5841 C.2       5 UNK         0.5000 
     46 O          -1.5169  -15.9473  -42.1794 O.2       5 UNK        -0.5000 
     47 CA         -0.6554  -13.7095  -42.1227 C.3       5 UNK         0.1400 
     48 CB         -1.6862  -12.7834  -41.4610 C.3       5 UNK        -0.1800 
     49 N           0.6853  -13.1329  -41.9684 N.am      5 UNK        -0.5000 
     50 C           1.8108  -13.6637  -42.4644 C.2       4 UNK         0.5000 
     51 O           1.8443  -14.7235  -43.0889 O.2       4 UNK        -0.5000 
     52 CA          3.0988  -12.8669  -42.2306 C.3       4 UNK         0.1400 
     53 CB          4.3564  -13.7537  -42.2466 C.3       4 UNK        -0.1800 
     54 N           3.2144  -11.8648  -43.2812 N.am      4 UNK        -0.5000 
     55 C           3.5615  -10.5851  -43.0923 C.2       3 UNK         0.5000 
     56 O           3.7631  -10.0963  -41.9789 O.2       3 UNK        -0.5000 
     57 CA          3.7044   -9.7020  -44.3526 C.3       3 UNK         0.1400 
     58 CB          4.6930   -8.5326  -44.1600 C.3       3 UNK        -0.1800 
     59 N           4.0209  -10.4652  -45.5652 N.am      3 UNK        -0.5000 
     60 C           5.1167  -11.2037  -45.8101 C.2       2 UNK         0.5000 
     61 O           6.0845  -11.2622  -45.0502 O.2       2 UNK        -0.5000 
     62 CA          5.1265  -12.0225  -47.1238 C.3       2 UNK         0.1400 
     63 CB          5.9043  -13.3486  -46.9845 C.3       2 UNK        -0.1800 
     64 N           3.7882  -12.2623  -47.6854 N.am      2 UNK        -0.5000 
     65 C           2.7785  -12.9251  -47.1017 C.2       1 UNK         0.5000 
     66 O           2.8627  -13.4837  -46.0060 O.2       1 UNK        -0.5000 
     67 C          -0.2762  -22.5159  -47.5086 C.2       11 UNK         0.5000 
     68 O          -0.2926  -23.4300  -48.3316 O.2       11 UNK        -0.5000 
     69 N          -1.3275  -21.7110  -47.2857 N.am      12 UNK        -0.5000 
     70 CA         -2.6386  -21.8783  -47.9183 C.3       12 UNK         0.1400 
     71 CB         -3.5234  -20.6565  -47.6322 C.3       12 UNK        -0.1800 
     72 C          -3.3484  -23.1749  -47.4894 C.2       12 UNK         0.5000 
     73 O          -3.9949  -23.8068  -48.3212 O.2       12 UNK        -0.5000 
     74 N          -3.2011  -23.5684  -46.2170 N.am      13 UNK        -0.5000 
     75 CA         -3.7040  -24.8404  -45.6965 C.3       13 UNK         0.1400 
     76 CB         -3.6709  -24.8195  -44.1607 C.3       13 UNK        -0.1800 
     77 C          -2.9291  -26.0533  -46.2476 C.2       13 UNK         0.5000 
     78 O          -3.5341  -27.0995  -46.4856 O.2       13 UNK        -0.5000 
     79 N          -1.6116  -25.8953  -46.4376 N.am      14 UNK        -0.5000 
     80 CA         -0.7261  -26.9183  -46.9937 C.3       14 UNK         0.1400 
     81 CB          0.7339  -26.5481  -46.6912 C.3       14 UNK        -0.1800 
     82 C          -0.9293  -27.1356  -48.5056 C.2       14 UNK         0.5000 
     83 O          -0.8949  -28.2803  -48.9600 O.2       14 UNK        -0.5000 
     84 N          -1.1181  -26.0423  -49.2573 N.am      15 UNK        -0.5000 
     85 CA         -1.3363  -26.0435  -50.7039 C.3       15 UNK         0.1400 
     86 CB         -1.2816  -24.5980  -51.2229 C.3       15 UNK        -0.1800 
     87 C          -2.6659  -26.7104  -51.1027 C.2       15 UNK         0.5000 
     88 O          -3.6880  -26.4864  -50.4497 O.2       15 UNK        -0.5000 
     89 N          -2.6330  -27.4904  -52.1920 N.am      16 UNK        -0.5000 
     90 CA         -3.7809  -28.1942  -52.7677 C.3       16 UNK         0.1400 
     91 CB         -3.3066  -29.0522  -53.9512 C.3       16 UNK        -0.1800 
     92 C          -4.8822  -27.2109  -53.2017 C.2       16 UNK         0.5000 
     93 O          -4.6517  -26.3990  -54.1009 O.2       16 UNK        -0.5000 
     94 N          -6.0251  -27.2583  -52.5015 N.am      17 UNK        -0.5000 
     95 CA         -7.1836  -26.3621  -52.6318 C.3       17 UNK         0.1400 
     96 CB         -7.9009  -26.6073  -53.9759 C.3       17 UNK        -0.1800 
     97 C          -6.8471  -24.8683  -52.4059 C.2       17 UNK         0.5000 
     98 O          -7.5623  -24.0004  -52.9071 O.2       17 UNK        -0.5000 
     99 N          -5.7535  -24.6029  -51.6736 N.am      18 UNK        -0.5000 
    100 CA        -5.1208  -23.2995  -51.4501 C.3       18 UNK         0.1400 
    101 CB        -6.0428  -22.3586  -50.6485 C.3       18 UNK        -0.1800 
    102 C         -4.5510  -22.6470  -52.7299 C.2       18 UNK         0.5000 
    103 O         -4.3327  -21.4354  -52.7441 O.2       18 UNK        -0.5000 
    104 N         -4.2859  -23.4577  -53.7674 N.am      19 UNK        -0.5000 
    105 CA        -3.7619  -23.0691  -55.0805 C.3       19 UNK         0.1400 
    106 CB        -2.2938  -22.6016  -54.9508 C.3       19 UNK        -0.1800 
    107 C         -4.6689  -22.0551  -55.8189 C.2       19 UNK         0.5000 
    108 O         -5.8744  -22.0057  -55.5666 O.2       19 UNK        -0.5000 
    109 N         -4.0831  -21.2829  -56.7426 N.am      20 UNK        -0.5000 
    110 CA        -4.7633  -20.2262  -57.4972 C.3       20 UNK         0.1400 
    111 CB        -4.1726  -20.1830  -58.9159 C.3       20 UNK        -0.1800 
    112 C         -4.6390  -18.8435  -56.8254 C.2       20 UNK         0.5000 
    113 O         -5.3563  -17.9199  -57.2116 O.2       20 UNK        -0.5000 
    114 N         -3.7182  -18.7088  -55.8599 N.am      21 UNK        -0.5000 
    115 CA        -3.3895  -17.4490  -55.1878 C.3       21 UNK         0.1400 
    116 CB        -1.9878  -17.5714  -54.5682 C.3       21 UNK        -0.1800 
    117 C         -4.4229  -17.0121  -54.1301 C.2       21 UNK         0.5000 
    118 O         -4.4483  -15.8338  -53.7721 O.2       21 UNK        -0.5000 
    119 N         -5.2435  -17.9534  -53.6525 N.am      22 UNK        -0.5000 
    120 CA        -6.3070  -17.7450  -52.6606 C.3       22 UNK         0.1400 
    121 C         -7.6820  -18.1639  -53.2450 C.2       22 UNK         0.5000 
    122 N         -8.7704  -17.5960  -52.7432 N.am      22 UNK        -0.7600 
    123 O         -7.7819  -19.0127  -54.1282 O.2       22 UNK        -0.5000 
    124 C124       -6.0161  -18.5159  -51.3464 C.3       23 UNK        -0.0398 
    125 S125       -4.5830  -17.8503  -50.4323 S.3       23 UNK        -0.2404 
    126 C126       -3.2593  -18.9544  -51.0236 C.3       23 UNK        -0.0205 
    127 H127       -1.6356  -10.6225  -45.4842 H         1 UNK         0.0600 
    128 H128       -0.6280  -11.2980  -44.2000 H         1 UNK         0.0600 
    129 H129       -1.5700  -12.3711  -45.2403 H         1 UNK         0.0600 
    130 H130       -0.3683  -13.3478  -46.8461 H         1 UNK         0.3000 
    131 H131        1.4581  -12.0772  -48.5644 H         1 UNK         0.0600 
    132 H132        2.0723  -14.4175  -49.2754 H         1 UNK         0.0800 
    133 H133        1.1073  -15.0702  -47.9763 H         1 UNK         0.0800 
    134 H134        1.2073  -15.1148  -51.3354 H         1 UNK         0.0800 
    135 H135       -0.3988  -14.8851  -51.9663 H         1 UNK         0.0800 
    136 H136       -2.2479  -16.4311  -51.3985 H         1 UNK         0.1150 
    137 H137       -1.1376  -20.3414  -50.0417 H         1 UNK         0.1150 
    138 H138        1.7659  -17.1930  -50.0976 H         1 UNK         0.1150 
    139 H139        1.1988  -20.8584  -49.8162 H         1 UNK         0.0800 
    140 H140        2.4376  -19.6341  -49.9589 H         1 UNK         0.0800 
    141 H141        2.4623  -21.9726  -48.1837 H         1 UNK         0.0800 
    142 H142        2.9475  -21.4191  -46.6153 H         1 UNK         0.0800 
    143 H143        1.4184  -23.3256  -46.5392 H         1 UNK         0.0600 
    144 H144        0.8952  -20.9673  -44.9904 H         1 UNK         0.3000 
    145 H145       -0.9675  -22.8602  -42.5086 H         1 UNK         0.0600 
    146 H146        0.7357  -21.7469  -41.1008 H         1 UNK         0.0600 
    147 H147        1.4613  -23.0568  -42.0197 H         1 UNK         0.0600 
    148 H148        1.7190  -21.3914  -42.5188 H         1 UNK         0.0600 
    149 H149       -0.4390  -20.0803  -42.6364 H         1 UNK         0.3000 
    150 H150       -3.4518  -19.1458  -44.3596 H         1 UNK         0.0600 
    151 H151       -4.0359  -19.5091  -41.9529 H         1 UNK         0.0600 
    152 H152       -3.6970  -17.8178  -42.2889 H         1 UNK         0.0600 
    153 H153       -2.4955  -18.8101  -41.4668 H         1 UNK         0.0600 
    154 H154       -1.3678  -17.5479  -43.2960 H         1 UNK         0.3000 
    155 H155        0.7339  -17.5125  -46.2251 H         1 UNK         0.0600 
    156 H156       -1.0581  -15.5005  -44.7811 H         1 UNK         0.0600 
    157 H157       -0.9021  -15.7359  -46.5146 H         1 UNK         0.0600 
    158 H158        0.4509  -15.0881  -45.5892 H         1 UNK         0.0600 
    159 H159        1.1998  -16.3702  -43.7082 H         1 UNK         0.3000 
    160 H160        2.7208  -19.1471  -42.0479 H         1 UNK         0.0600 
    161 H161        3.8104  -16.5332  -43.2143 H         1 UNK         0.0600 
    162 H162        4.5149  -18.1313  -43.3894 H         1 UNK         0.0600 
    163 H163        4.4721  -17.3673  -41.8073 H         1 UNK         0.0600 
    164 H164        2.0679  -16.4036  -41.3767 H         1 UNK         0.3000 
    165 H165       -1.0301  -17.1649  -39.7704 H         1 UNK         0.0600 
    166 H166        0.1352  -16.0896  -37.8661 H         1 UNK         0.0600 
    167 H167        0.7299  -17.7271  -38.0888 H         1 UNK         0.0600 
    168 H168        1.7019  -16.3634  -38.6289 H         1 UNK         0.0600 
    169 H169        0.4887  -14.7482  -40.0669 H         1 UNK         0.3000 
    170 H170       -0.8702  -13.7436  -43.1915 H         1 UNK         0.0600 
    171 H171       -2.6974  -13.1736  -41.5844 H         1 UNK         0.0600 
    172 H172       -1.5035  -12.6772  -40.3910 H         1 UNK         0.0600 
    173 H173       -1.6682  -11.7883  -41.9054 H         1 UNK         0.0600 
    174 H174        0.7409  -12.2527  -41.4763 H         1 UNK         0.3000 
    175 H175        3.0236  -12.3992  -41.2467 H         1 UNK         0.0600 
    176 H176        4.5175  -14.2043  -43.2270 H         1 UNK         0.0600 
    177 H177        5.2462  -13.1743  -42.0001 H         1 UNK         0.0600 
    178 H178        4.2790  -14.5601  -41.5165 H         1 UNK         0.0600 
    179 H179        3.0506  -12.2033  -44.2237 H         1 UNK         0.3000 
    180 H180        2.7185   -9.2672  -44.5213 H         1 UNK         0.0600 
    181 H181        5.6919   -8.8829  -43.8993 H         1 UNK         0.0600 
    182 H182        4.3624   -7.8689  -43.3603 H         1 UNK         0.0600 
    183 H183        4.7732   -7.9308  -45.0652 H         1 UNK         0.0600 
    184 H184        3.2642  -10.5101  -46.2368 H         1 UNK         0.3000 
    185 H185        5.6551  -11.4077  -47.8535 H         1 UNK         0.0600 
    186 H186        6.9486  -13.1654  -46.7291 H         1 UNK         0.0600 
    187 H187        5.4859  -13.9846  -46.2037 H         1 UNK         0.0600 
    188 H188        5.8950  -13.9119  -47.9175 H         1 UNK         0.0600 
    189 H189        3.6164  -11.8179  -48.5772 H         1 UNK         0.3000 
    190 H190       -1.2287  -20.9295  -46.6438 H         1 UNK         0.3000 
    191 H191       -2.4856  -21.9373  -48.9974 H         1 UNK         0.0600 
    192 H192       -3.6907  -20.5231  -46.5633 H         1 UNK         0.0600 
    193 H193       -4.4994  -20.7577  -48.1078 H         1 UNK         0.0600 
    194 H194       -3.0701  -19.7425  -48.0160 H         1 UNK         0.0600 
    195 H195       -2.7205  -22.9605  -45.5620 H         1 UNK         0.3000 
    196 H196       -4.7457  -24.9454  -46.0071 H         1 UNK         0.0600 
    197 H197       -4.0651  -25.7495  -43.7492 H         1 UNK         0.0600 
    198 H198       -4.2785  -24.0054  -43.7651 H         1 UNK         0.0600 
    199 H199       -2.6576  -24.6953  -43.7788 H         1 UNK         0.0600 
    200 H200       -1.1824  -25.0246  -46.1461 H         1 UNK         0.3000 
    201 H201       -0.9427  -27.8627  -46.4900 H         1 UNK         0.0600 
    202 H202        0.8972  -26.4248  -45.6204 H         1 UNK         0.0600 
    203 H203        1.0244  -25.6205  -47.1840 H         1 UNK         0.0600 
    204 H204        1.4128  -27.3285  -47.0370 H         1 UNK         0.0600 
    205 H205       -1.0849  -25.1315  -48.8095 H         1 UNK         0.3000 
    206 H206       -0.5172  -26.6015  -51.1622 H         1 UNK         0.0600 
    207 H207       -0.2874  -24.1712  -51.0896 H         1 UNK         0.0600 
    208 H208       -1.5171  -24.5497  -52.2864 H         1 UNK         0.0600 
    209 H209       -1.9882  -23.9567  -50.6968 H         1 UNK         0.0600 
    210 H210       -1.7600  -27.5945  -52.6880 H         1 UNK         0.3000 
    211 H211       -4.1807  -28.8636  -52.0032 H         1 UNK         0.0600 
    212 H212       -2.8528  -28.4442  -54.7350 H         1 UNK         0.0600 
    213 H213       -4.1410  -29.5940  -54.3984 H         1 UNK         0.0600 
    214 H214       -2.5724  -29.7927  -53.6332 H         1 UNK         0.0600 
    215 H215       -6.0909  -27.9332  -51.7518 H         1 UNK         0.3000 
    216 H216       -7.8742  -26.6376  -51.8336 H         1 UNK         0.0600 
    217 H217       -8.8436  -26.0610  -54.0238 H         1 UNK         0.0600 
    218 H218       -8.1338  -27.6633  -54.1121 H         1 UNK         0.0600 
    219 H219       -7.2937  -26.2854  -54.8226 H         1 UNK         0.0600 
    220 H220       -5.2398  -25.3892  -51.2873 H         1 UNK         0.3000 
    221 H221       -4.2521  -23.5073  -50.8296 H         1 UNK         0.0600 
    222 H222       -6.8714  -21.9885  -51.2527 H         1 UNK         0.0600 
    223 H223       -6.4573  -22.8627  -49.7755 H         1 UNK         0.0600 
    224 H224       -5.4873  -21.4955  -50.2827 H         1 UNK         0.0600 
    225 H225       -4.5294  -24.4396  -53.6837 H         1 UNK         0.3000 
    226 H226       -3.7700  -23.9778  -55.6839 H         1 UNK         0.0600 
    227 H227       -1.7021  -23.3250  -54.3907 H         1 UNK         0.0600 
    228 H228       -1.8171  -22.4983  -55.9258 H         1 UNK         0.0600 
    229 H229       -2.2150  -21.6425  -54.4374 H         1 UNK         0.0600 
    230 H230       -3.0972  -21.4038  -56.9250 H         1 UNK         0.3000 
    231 H231       -5.8280  -20.4539  -57.5831 H         1 UNK         0.0600 
    232 H232       -4.6719  -19.4286  -59.5254 H         1 UNK         0.0600 
    233 H233       -4.2951  -21.1403  -59.4229 H         1 UNK         0.0600 
    234 H234       -3.1087  -19.9429  -58.9032 H         1 UNK         0.0600 
    235 H235       -3.1858  -19.5205  -55.5866 H         1 UNK         0.3000 
    236 H236       -3.3519  -16.6585  -55.9405 H         1 UNK         0.0600 
    237 H237       -1.2331  -17.7431  -55.3358 H         1 UNK         0.0600 
    238 H238       -1.7090  -16.6579  -54.0413 H         1 UNK         0.0600 
    239 H239       -1.9292  -18.3933  -53.8549 H         1 UNK         0.0600 
    240 H240       -5.1964  -18.8845  -54.0424 H         1 UNK         0.3000 
    241 H241       -6.3815  -16.6824  -52.4214 H         1 UNK         0.0600 
    242 H242       -9.6721  -17.8642  -53.1064 H         1 UNK         0.3800 
    243 H243       -8.7198  -16.8976  -52.0173 H         1 UNK         0.3800 
    244 H244       -6.8728  -18.4614  -50.6724 H         1 UNK         0.0800 
    245 H245       -5.8640  -19.5745  -51.5540 H         1 UNK         0.0800 
    246 H246       -3.4088  -19.9406  -50.5826 H         1 UNK         0.0800 
    247 H247       -3.3454  -19.0856  -52.1002 H         1 UNK         0.0800 
@<TRIPOS>BOND
     1    1    2 1    
     2    1  127 1    
     3    1  128 1    
     4    1  129 1    
     5    2    3 2    
     6    2    4 am   BACKBONE|DICT|INTERRES
     7    4    5 1    
     8    4  130 1    
     9    5    6 1    
    10    5   65 1    
    11    5  131 1    
    12    6    7 1    
    13    6  132 1    
    14    6  133 1    
    15    7    8 1    
    16    8    9 1    
    17    8  134 1    
    18    8  135 1    
    19    9   10 ar   
    20    9   14 ar   
    21   10   11 ar   
    22   10  136 1    
    23   11   12 ar   
    24   11  126 1    
    25   12   13 ar   
    26   12  137 1    
    27   13   14 ar   
    28   13   15 1    
    29   14  138 1    
    30   15   16 1    
    31   15  139 1    
    32   15  140 1    
    33   16   17 1    
    34   17   18 1    
    35   17  141 1    
    36   17  142 1    
    37   18   19 1    
    38   18   67 1    
    39   18  143 1    
    40   19   20 am   BACKBONE|DICT|INTERRES
    41   19  144 1    
    42   20   21 2    
    43   20   22 1    
    44   22   23 1    
    45   22   24 1    
    46   22  145 1    
    47   23  146 1    
    48   23  147 1    
    49   23  148 1    
    50   24   25 am   BACKBONE|DICT|INTERRES
    51   24  149 1    
    52   25   26 2    
    53   25   27 1    
    54   27   28 1    
    55   27   29 1    
    56   27  150 1    
    57   28  151 1    
    58   28  152 1    
    59   28  153 1    
    60   29   30 am   BACKBONE|DICT|INTERRES
    61   29  154 1    
    62   30   31 2    
    63   30   32 1    
    64   32   33 1    
    65   32   34 1    
    66   32  155 1    
    67   33  156 1    
    68   33  157 1    
    69   33  158 1    
    70   34   35 am   BACKBONE|DICT|INTERRES
    71   34  159 1    
    72   35   36 2    
    73   35   37 1    
    74   37   38 1    
    75   37   39 1    
    76   37  160 1    
    77   38  161 1    
    78   38  162 1    
    79   38  163 1    
    80   39   40 am   BACKBONE|DICT|INTERRES
    81   39  164 1    
    82   40   41 2    
    83   40   42 1    
    84   42   43 1    
    85   42   44 1    
    86   42  165 1    
    87   43  166 1    
    88   43  167 1    
    89   43  168 1    
    90   44   45 am   BACKBONE|DICT|INTERRES
    91   44  169 1    
    92   45   46 2    
    93   45   47 1    
    94   47   48 1    
    95   47   49 1    
    96   47  170 1    
    97   48  171 1    
    98   48  172 1    
    99   48  173 1    
   100   49   50 am   BACKBONE|DICT|INTERRES
   101   49  174 1    
   102   50   51 2    
   103   50   52 1    
   104   52   53 1    
   105   52   54 1    
   106   52  175 1    
   107   53  176 1    
   108   53  177 1    
   109   53  178 1    
   110   54   55 am   BACKBONE|DICT|INTERRES
   111   54  179 1    
   112   55   56 2    
   113   55   57 1    
   114   57   58 1    
   115   57   59 1    
   116   57  180 1    
   117   58  181 1    
   118   58  182 1    
   119   58  183 1    
   120   59   60 am   BACKBONE|DICT|INTERRES
   121   59  184 1    
   122   60   61 2    
   123   60   62 1    
   124   62   63 1    
   125   62   64 1    
   126   62  185 1    
   127   63  186 1    
   128   63  187 1    
   129   63  188 1    
   130   64   65 am   BACKBONE|DICT|INTERRES
   131   64  189 1    
   132   65   66 2    
   133   67   68 2    
   134   67   69 am   BACKBONE|DICT|INTERRES
   135   69   70 1    
   136   69  190 1    
   137   70   71 1    
   138   70   72 1    
   139   70  191 1    
   140   71  192 1    
   141   71  193 1    
   142   71  194 1    
   143   72   73 2    
   144   72   74 am   BACKBONE|DICT|INTERRES
   145   74   75 1    
   146   74  195 1    
   147   75   76 1    
   148   75   77 1    
   149   75  196 1    
   150   76  197 1    
   151   76  198 1    
   152   76  199 1    
   153   77   78 2    
   154   77   79 am   BACKBONE|DICT|INTERRES
   155   79   80 1    
   156   79  200 1    
   157   80   81 1    
   158   80   82 1    
   159   80  201 1    
   160   81  202 1    
   161   81  203 1    
   162   81  204 1    
   163   82   83 2    
   164   82   84 am   BACKBONE|DICT|INTERRES
   165   84   85 1    
   166   84  205 1    
   167   85   86 1    
   168   85   87 1    
   169   85  206 1    
   170   86  207 1    
   171   86  208 1    
   172   86  209 1    
   173   87   88 2    
   174   87   89 am   BACKBONE|DICT|INTERRES
   175   89   90 1    
   176   89  210 1    
   177   90   91 1    
   178   90   92 1    
   179   90  211 1    
   180   91  212 1    
   181   91  213 1    
   182   91  214 1    
   183   92   93 2    
   184   92   94 am   BACKBONE|DICT|INTERRES
   185   94   95 1    
   186   94  215 1    
   187   95   96 1    
   188   95   97 1    
   189   95  216 1    
   190   96  217 1    
   191   96  218 1    
   192   96  219 1    
   193   97   98 2    
   194   97   99 am   BACKBONE|DICT|INTERRES
   195   99  100 1    
   196   99  220 1    
   197  100  101 1    
   198  100  102 1    
   199  100  221 1    
   200  101  222 1    
   201  101  223 1    
   202  101  224 1    
   203  102  103 2    
   204  102  104 am   BACKBONE|DICT|INTERRES
   205  104  105 1    
   206  104  225 1    
   207  105  106 1    
   208  105  107 1    
   209  105  226 1    
   210  106  227 1    
   211  106  228 1    
   212  106  229 1    
   213  107  108 2    
   214  107  109 am   BACKBONE|DICT|INTERRES
   215  109  110 1    
   216  109  230 1    
   217  110  111 1    
   218  110  112 1    
   219  110  231 1    
   220  111  232 1    
   221  111  233 1    
   222  111  234 1    
   223  112  113 2    
   224  112  114 am   BACKBONE|DICT|INTERRES
   225  114  115 1    
   226  114  235 1    
   227  115  116 1    
   228  115  117 1    
   229  115  236 1    
   230  116  237 1    
   231  116  238 1    
   232  116  239 1    
   233  117  118 2    
   234  117  119 am   BACKBONE|DICT|INTERRES
   235  119  120 1    
   236  119  240 1    
   237  120  121 1    
   238  120  124 1    
   239  120  241 1    
   240  121  122 am   BACKBONE|DICT|INTERRES
   241  121  123 2    
   242  122  242 1    
   243  122  243 1    
   244  124  125 1    
   245  124  244 1    
   246  124  245 1    
   247  125  126 1    
   248  126  246 1    
   249  126  247 1    
@<TRIPOS>SUBSTRUCTURE
     1 UNK         1 GROUP             0       ****    0 ROOT    
