@<TRIPOS>MOLECULE
3R540
247   249    1
SMALL
USER_CHARGES


@<TRIPOS>ATOM
      1 CA          8.3164  -15.5631  -50.4983 C.3       0 UNK        -0.1800 
      2 C           6.9279  -15.4356  -49.8874 C.2       0 UNK         0.5000 
      3 O           6.1085  -16.3431  -50.0301 O.2       0 UNK        -0.5000 
      4 N           6.6599  -14.3169  -49.2082 N.am      1 UNK        -0.5000 
      5 CA          5.3967  -14.0199  -48.5418 C.3       1 UNK         0.1400 
      6 C6          4.3047  -13.5667  -49.5545 C.3       23 UNK        -0.0398 
      7 S7          2.7794  -12.8465  -48.8473 S.3       23 UNK        -0.2404 
      8 C8          1.9923  -14.2905  -48.0724 C.3       23 UNK        -0.0205 
      9 C9          1.3429  -15.2142  -49.0833 C.ar      23 UNK        -0.0193 
     10 C10         0.0600  -14.9347  -49.5585 C.ar      23 UNK        -0.1150 
     11 C11        -0.5734  -15.8099  -50.4434 C.ar      23 UNK        -0.0193 
     12 C12         0.0896  -16.9685  -50.8597 C.ar      23 UNK        -0.1150 
     13 C13         1.3788  -17.2509  -50.3967 C.ar      23 UNK        -0.0193 
     14 C14         2.0011  -16.3696  -49.5094 C.ar      23 UNK        -0.1150 
     15 C15         2.1027  -18.5100  -50.8458 C.3       23 UNK        -0.0205 
     16 S16         2.1349  -19.7699  -49.5342 S.3       23 UNK        -0.2404 
     17 C17         0.3617  -20.1627  -49.3856 C.3       23 UNK        -0.0398 
     18 CA          0.1336  -21.4647  -48.5876 C.3       11 UNK         0.1400 
     19 N           0.4906  -21.3333  -47.1712 N.am      11 UNK        -0.5000 
     20 C           0.5683  -22.3635  -46.3169 C.2       10 UNK         0.5000 
     21 O           0.3970  -23.5373  -46.6448 O.2       10 UNK        -0.5000 
     22 CA          0.8217  -22.0275  -44.8376 C.3       10 UNK         0.1400 
     23 CB          2.3109  -21.7532  -44.5801 C.3       10 UNK        -0.1800 
     24 N           0.0213  -20.8927  -44.3807 N.am      10 UNK        -0.5000 
     25 C          -1.3173  -20.8736  -44.3295 C.2       9 UNK         0.5000 
     26 O          -2.0246  -21.8382  -44.6157 O.2       9 UNK        -0.5000 
     27 CA         -1.9816  -19.5428  -43.9366 C.3       9 UNK         0.1400 
     28 CB         -2.0215  -19.3739  -42.4103 C.3       9 UNK        -0.1800 
     29 N          -1.3226  -18.3872  -44.5448 N.am      9 UNK        -0.5000 
     30 C          -1.3137  -18.1216  -45.8590 C.2       8 UNK         0.5000 
     31 O          -1.8700  -18.8233  -46.7042 O.2       8 UNK        -0.5000 
     32 CA         -0.5122  -16.8828  -46.3012 C.3       8 UNK         0.1400 
     33 CB         -1.3608  -15.6120  -46.1440 C.3       8 UNK        -0.1800 
     34 N           0.7509  -16.7291  -45.5704 N.am      8 UNK        -0.5000 
     35 C           1.7512  -17.6215  -45.6286 C.2       7 UNK         0.5000 
     36 O           1.7114  -18.6458  -46.3105 O.2       7 UNK        -0.5000 
     37 CA          2.9801  -17.3600  -44.7379 C.3       7 UNK         0.1400 
     38 CB          3.8369  -16.2110  -45.2846 C.3       7 UNK        -0.1800 
     39 N           2.6574  -17.0927  -43.3358 N.am      7 UNK        -0.5000 
     40 C           1.9887  -17.9149  -42.5193 C.2       6 UNK         0.5000 
     41 O           1.4683  -18.9628  -42.8959 O.2       6 UNK        -0.5000 
     42 CA          1.8661  -17.5274  -41.0326 C.3       6 UNK         0.1400 
     43 CB          2.9485  -18.2331  -40.1948 C.3       6 UNK        -0.1800 
     44 N           1.8330  -16.0874  -40.7495 N.am      6 UNK        -0.5000 
     45 C           2.7856  -15.1579  -40.8958 C.2       5 UNK         0.5000 
     46 O           3.8932  -15.3801  -41.3871 O.2       5 UNK        -0.5000 
     47 CA          2.3919  -13.7310  -40.4626 C.3       5 UNK         0.1400 
     48 CB          3.6029  -12.7874  -40.3620 C.3       5 UNK        -0.1800 
     49 N           1.4003  -13.1578  -41.3757 N.am      5 UNK        -0.5000 
     50 C           0.1024  -13.4975  -41.4147 C.2       4 UNK         0.5000 
     51 O          -0.4040  -14.3014  -40.6295 O.2       4 UNK        -0.5000 
     52 CA         -0.7920  -12.8550  -42.4945 C.3       4 UNK         0.1400 
     53 CB         -1.8394  -11.9335  -41.8492 C.3       4 UNK        -0.1800 
     54 N          -0.0675  -12.0934  -43.5115 N.am      4 UNK        -0.5000 
     55 C           0.7081  -12.6111  -44.4712 C.2       3 UNK         0.5000 
     56 O           0.9322  -13.8190  -44.5929 O.2       3 UNK        -0.5000 
     57 CA          1.3477  -11.6147  -45.4637 C.3       3 UNK         0.1400 
     58 CB          1.1019  -10.1246  -45.1315 C.3       3 UNK        -0.1800 
     59 N           2.7782  -11.8753  -45.6344 N.am      3 UNK        -0.5000 
     60 C           3.7220  -11.8571  -44.6812 C.2       2 UNK         0.5000 
     61 O           3.4996  -11.5318  -43.5146 O.2       2 UNK        -0.5000 
     62 CA          5.1394  -12.2985  -45.1015 C.3       2 UNK         0.1400 
     63 CB          5.8771  -13.0226  -43.9602 C.3       2 UNK        -0.1800 
     64 N           5.0794  -13.1856  -46.2661 N.am      2 UNK        -0.5000 
     65 C           5.7006  -12.9924  -47.4353 C.2       1 UNK         0.5000 
     66 O           6.4744  -12.0597  -47.6654 O.2       1 UNK        -0.5000 
     67 C          -1.3089  -21.9759  -48.7692 C.2       11 UNK         0.5000 
     68 O          -1.5279  -22.8720  -49.5843 O.2       11 UNK        -0.5000 
     69 N          -2.2573  -21.4384  -47.9870 N.am      12 UNK        -0.5000 
     70 CA         -3.6517  -21.8842  -47.9635 C.3       12 UNK         0.1400 
     71 CB         -4.4851  -20.9536  -47.0712 C.3       12 UNK        -0.1800 
     72 C          -3.8004  -23.3516  -47.5240 C.2       12 UNK         0.5000 
     73 O          -4.5495  -24.0962  -48.1558 O.2       12 UNK        -0.5000 
     74 N          -3.0556  -23.7506  -46.4839 N.am      13 UNK        -0.5000 
     75 CA         -2.9846  -25.1247  -45.9889 C.3       13 UNK         0.1400 
     76 CB         -2.2065  -25.1616  -44.6651 C.3       13 UNK        -0.1800 
     77 C          -2.3710  -26.0929  -47.0156 C.2       13 UNK         0.5000 
     78 O          -2.9256  -27.1708  -47.2296 O.2       13 UNK        -0.5000 
     79 N          -1.2716  -25.6805  -47.6638 N.am      14 UNK        -0.5000 
     80 CA         -0.5934  -26.4350  -48.7223 C.3       14 UNK         0.1400 
     81 CB          0.7236  -25.7361  -49.0915 C.3       14 UNK        -0.1800 
     82 C          -1.4687  -26.6411  -49.9732 C.2       14 UNK         0.5000 
     83 O          -1.4373  -27.7193  -50.5672 O.2       14 UNK        -0.5000 
     84 N          -2.2615  -25.6205  -50.3249 N.am      15 UNK        -0.5000 
     85 CA         -3.2563  -25.6635  -51.3975 C.3       15 UNK         0.1400 
     86 CB         -3.5974  -24.2233  -51.8111 C.3       15 UNK        -0.1800 
     87 C          -4.5439  -26.4215  -51.0159 C.2       15 UNK         0.5000 
     88 O          -5.3844  -26.6328  -51.8882 O.2       15 UNK        -0.5000 
     89 N          -4.7075  -26.7783  -49.7326 N.am      16 UNK        -0.5000 
     90 CA         -5.8987  -27.3864  -49.1276 C.3       16 UNK         0.1400 
     91 CB         -6.1008  -28.8263  -49.6431 C.3       16 UNK        -0.1800 
     92 C          -7.1548  -26.5004  -49.2833 C.2       16 UNK         0.5000 
     93 O          -8.2459  -27.0052  -49.5534 O.2       16 UNK        -0.5000 
     94 N          -6.9543  -25.1831  -49.1299 N.am      17 UNK        -0.5000 
     95 CA         -7.9253  -24.0936  -49.2696 C.3       17 UNK         0.1400 
     96 CB         -9.0365  -24.2067  -48.2052 C.3       17 UNK        -0.1800 
     97 C          -8.4843  -23.9068  -50.6986 C.2       17 UNK         0.5000 
     98 O          -9.5053  -23.2357  -50.8631 O.2       17 UNK        -0.5000 
     99 N          -7.8127  -24.4723  -51.7123 N.am      18 UNK        -0.5000 
    100 CA        -8.1357  -24.2739  -53.1254 C.3       18 UNK         0.1400 
    101 CB        -7.4421  -25.3611  -53.9608 C.3       18 UNK        -0.1800 
    102 C         -7.7134  -22.8774  -53.6186 C.2       18 UNK         0.5000 
    103 O         -6.8462  -22.2384  -53.0174 O.2       18 UNK        -0.5000 
    104 N         -8.2907  -22.4647  -54.7555 N.am      19 UNK        -0.5000 
    105 CA        -8.0705  -21.1774  -55.4290 C.3       19 UNK         0.1400 
    106 CB        -9.0951  -21.0424  -56.5674 C.3       19 UNK        -0.1800 
    107 C         -6.6363  -20.9400  -55.9547 C.2       19 UNK         0.5000 
    108 O         -6.3369  -19.8379  -56.4164 O.2       19 UNK        -0.5000 
    109 N         -5.7700  -21.9586  -55.8645 N.am      20 UNK        -0.5000 
    110 CA        -4.3279  -21.8745  -56.1002 C.3       20 UNK         0.1400 
    111 CB        -3.7448  -23.2964  -56.0887 C.3       20 UNK        -0.1800 
    112 C         -3.5899  -20.9816  -55.0781 C.2       20 UNK         0.5000 
    113 O         -2.4950  -20.5057  -55.3811 O.2       20 UNK        -0.5000 
    114 N         -4.1966  -20.7615  -53.9048 N.am      21 UNK        -0.5000 
    115 CA        -3.7394  -19.8362  -52.8740 C.3       21 UNK         0.1400 
    116 CB        -3.2213  -20.6439  -51.6732 C.3       21 UNK        -0.1800 
    117 C         -4.8932  -18.9072  -52.4604 C.2       21 UNK         0.5000 
    118 O         -6.0370  -19.0949  -52.8811 O.2       21 UNK        -0.5000 
    119 N         -4.5615  -17.9174  -51.6275 N.am      22 UNK        -0.5000 
    120 CA        -5.4904  -16.9389  -51.0384 C.3       22 UNK         0.1400 
    121 C         -6.3598  -17.4751  -49.8604 C.2       22 UNK         0.5000 
    122 N         -6.1791  -18.7068  -49.4004 N.am      22 UNK        -0.7600 
    123 O         -7.2307  -16.7642  -49.3660 O.2       22 UNK        -0.5000 
    124 C124       -4.7561  -15.6206  -50.6720 C.3       23 UNK        -0.0398 
    125 S125       -3.2314  -15.8757  -49.6929 S.3       23 UNK        -0.2404 
    126 C126       -1.9705  -15.4956  -50.9489 C.3       23 UNK        -0.0205 
    127 H127        8.9320  -14.6871  -50.2921 H         1 UNK         0.0600 
    128 H128        8.2411  -15.6789  -51.5795 H         1 UNK         0.0600 
    129 H129        8.8248  -16.4388  -50.0950 H         1 UNK         0.0600 
    130 H130        7.3659  -13.5998  -49.0926 H         1 UNK         0.3000 
    131 H131        5.0552  -14.9353  -48.0554 H         1 UNK         0.0600 
    132 H132        4.7235  -12.8114  -50.2215 H         1 UNK         0.0800 
    133 H133        4.0277  -14.4009  -50.1999 H         1 UNK         0.0800 
    134 H134        1.2329  -13.9466  -47.3719 H         1 UNK         0.0800 
    135 H135        2.7184  -14.8368  -47.4767 H         1 UNK         0.0800 
    136 H136       -0.4537  -14.0431  -49.2270 H         1 UNK         0.1150 
    137 H137       -0.3968  -17.6505  -51.5426 H         1 UNK         0.1150 
    138 H138        2.9920  -16.5961  -49.1405 H         1 UNK         0.1150 
    139 H139        1.6426  -18.9263  -51.7432 H         1 UNK         0.0800 
    140 H140        3.1289  -18.2573  -51.1173 H         1 UNK         0.0800 
    141 H141       -0.0465  -20.2530  -50.3942 H         1 UNK         0.0800 
    142 H142       -0.1526  -19.3232  -48.9138 H         1 UNK         0.0800 
    143 H143        0.7857  -22.2310  -49.0126 H         1 UNK         0.0600 
    144 H144        0.6934  -20.3971  -46.8350 H         1 UNK         0.3000 
    145 H145        0.5312  -22.8975  -44.2453 H         1 UNK         0.0600 
    146 H146        2.5025  -21.5871  -43.5199 H         1 UNK         0.0600 
    147 H147        2.9233  -22.5993  -44.8938 H         1 UNK         0.0600 
    148 H148        2.6604  -20.8751  -45.1233 H         1 UNK         0.0600 
    149 H149        0.5344  -20.0720  -44.0675 H         1 UNK         0.3000 
    150 H150       -3.0113  -19.5675  -44.2989 H         1 UNK         0.0600 
    151 H151       -2.5492  -20.2059  -41.9422 H         1 UNK         0.0600 
    152 H152       -2.5428  -18.4592  -42.1277 H         1 UNK         0.0600 
    153 H153       -1.0216  -19.3379  -41.9782 H         1 UNK         0.0600 
    154 H154       -0.7927  -17.7879  -43.9303 H         1 UNK         0.3000 
    155 H155       -0.2770  -17.0079  -47.3602 H         1 UNK         0.0600 
    156 H156       -1.5719  -15.3940  -45.0966 H         1 UNK         0.0600 
    157 H157       -0.8590  -14.7452  -46.5715 H         1 UNK         0.0600 
    158 H158       -2.3167  -15.7149  -46.6592 H         1 UNK         0.0600 
    159 H159        0.8597  -15.8907  -45.0095 H         1 UNK         0.3000 
    160 H160        3.5883  -18.2667  -44.7583 H         1 UNK         0.0600 
    161 H161        3.3115  -15.2584  -45.2136 H         1 UNK         0.0600 
    162 H162        4.0982  -16.3874  -46.3283 H         1 UNK         0.0600 
    163 H163        4.7704  -16.1212  -44.7284 H         1 UNK         0.0600 
    164 H164        3.0931  -16.2815  -42.9095 H         1 UNK         0.3000 
    165 H165        0.8990  -17.9082  -40.7005 H         1 UNK         0.0600 
    166 H166        2.8210  -18.0283  -39.1319 H         1 UNK         0.0600 
    167 H167        2.8970  -19.3149  -40.3253 H         1 UNK         0.0600 
    168 H168        3.9533  -17.9199  -40.4797 H         1 UNK         0.0600 
    169 H169        0.9308  -15.7393  -40.4370 H         1 UNK         0.3000 
    170 H170        1.9500  -13.7987  -39.4662 H         1 UNK         0.0600 
    171 H171        4.3128  -13.1479  -39.6167 H         1 UNK         0.0600 
    172 H172        4.1386  -12.7106  -41.3074 H         1 UNK         0.0600 
    173 H173        3.3002  -11.7833  -40.0647 H         1 UNK         0.0600 
    174 H174        1.7551  -12.5213  -42.0774 H         1 UNK         0.3000 
    175 H175       -1.3187  -13.6695  -42.9962 H         1 UNK         0.0600 
    176 H176       -1.3724  -11.0907  -41.3380 H         1 UNK         0.0600 
    177 H177       -2.5283  -11.5357  -42.5946 H         1 UNK         0.0600 
    178 H178       -2.4380  -12.4726  -41.1136 H         1 UNK         0.0600 
    179 H179       -0.1735  -11.0900  -43.4751 H         1 UNK         0.3000 
    180 H180        0.8791  -11.8090  -46.4287 H         1 UNK         0.0600 
    181 H181        1.4995   -9.8463  -44.1549 H         1 UNK         0.0600 
    182 H182        0.0377   -9.8862  -45.1412 H         1 UNK         0.0600 
    183 H183        1.5754   -9.4806  -45.8727 H         1 UNK         0.0600 
    184 H184        3.0574  -12.1441  -46.5679 H         1 UNK         0.3000 
    185 H185        5.6898  -11.3874  -45.3437 H         1 UNK         0.0600 
    186 H186        5.3212  -13.8928  -43.6090 H         1 UNK         0.0600 
    187 H187        6.8633  -13.3599  -44.2792 H         1 UNK         0.0600 
    188 H188        6.0237  -12.3611  -43.1056 H         1 UNK         0.0600 
    189 H189        4.4790  -13.9892  -46.1587 H         1 UNK         0.3000 
    190 H190       -2.0141  -20.6699  -47.3683 H         1 UNK         0.3000 
    191 H191       -4.0399  -21.8085  -48.9797 H         1 UNK         0.0600 
    192 H192       -4.1621  -20.9945  -46.0313 H         1 UNK         0.0600 
    193 H193       -5.5397  -21.2300  -47.0979 H         1 UNK         0.0600 
    194 H194       -4.4092  -19.9176  -47.4015 H         1 UNK         0.0600 
    195 H195       -2.5088  -23.0572  -45.9794 H         1 UNK         0.3000 
    196 H196       -4.0053  -25.4575  -45.7892 H         1 UNK         0.0600 
    197 H197       -2.1563  -26.1766  -44.2692 H         1 UNK         0.0600 
    198 H198       -2.6874  -24.5407  -43.9091 H         1 UNK         0.0600 
    199 H199       -1.1836  -24.8051  -44.7875 H         1 UNK         0.0600 
    200 H200       -0.8479  -24.7955  -47.3970 H         1 UNK         0.3000 
    201 H201       -0.3526  -27.4220  -48.3224 H         1 UNK         0.0600 
    202 H202        1.3858  -25.6622  -48.2287 H         1 UNK         0.0600 
    203 H203        0.5517  -24.7277  -49.4686 H         1 UNK         0.0600 
    204 H204        1.2574  -26.2900  -49.8646 H         1 UNK         0.0600 
    205 H205       -2.1731  -24.7400  -49.8255 H         1 UNK         0.3000 
    206 H206       -2.8212  -26.1723  -52.2600 H         1 UNK         0.0600 
    207 H207       -2.7092  -23.6930  -52.1536 H         1 UNK         0.0600 
    208 H208       -4.3217  -24.2017  -52.6263 H         1 UNK         0.0600 
    209 H209       -4.0252  -23.6633  -50.9791 H         1 UNK         0.0600 
    210 H210       -3.9639  -26.5540  -49.0833 H         1 UNK         0.3000 
    211 H211       -5.6995  -27.4446  -48.0566 H         1 UNK         0.0600 
    212 H212       -6.3618  -28.8466  -50.7015 H         1 UNK         0.0600 
    213 H213       -6.9030  -29.3264  -49.0993 H         1 UNK         0.0600 
    214 H214       -5.1979  -29.4219  -49.5084 H         1 UNK         0.0600 
    215 H215       -6.0124  -24.8789  -48.8847 H         1 UNK         0.3000 
    216 H216       -7.3663  -23.1814  -49.0562 H         1 UNK         0.0600 
    217 H217       -9.6604  -23.3123  -48.1926 H         1 UNK         0.0600 
    218 H218       -8.6153  -24.3190  -47.2061 H         1 UNK         0.0600 
    219 H219       -9.6919  -25.0577  -48.3919 H         1 UNK         0.0600 
    220 H220       -6.9846  -25.0167  -51.5107 H         1 UNK         0.3000 
    221 H221       -9.2157  -24.3766  -53.2506 H         1 UNK         0.0600 
    222 H222       -7.7574  -25.3182  -55.0038 H         1 UNK         0.0600 
    223 H223       -6.3572  -25.2509  -53.9443 H         1 UNK         0.0600 
    224 H224       -7.6837  -26.3582  -53.5918 H         1 UNK         0.0600 
    225 H225       -8.9668  -23.0728  -55.1950 H         1 UNK         0.3000 
    226 H226       -8.2667  -20.3898  -54.6984 H         1 UNK         0.0600 
    227 H227      -10.1159  -21.1145  -56.1915 H         1 UNK         0.0600 
    228 H228       -9.0047  -20.0768  -57.0668 H         1 UNK         0.0600 
    229 H229       -8.9585  -21.8166  -57.3234 H         1 UNK         0.0600 
    230 H230       -6.1102  -22.8246  -55.4753 H         1 UNK         0.3000 
    231 H231       -4.1704  -21.4428  -57.0906 H         1 UNK         0.0600 
    232 H232       -2.6727  -23.2808  -56.2892 H         1 UNK         0.0600 
    233 H233       -4.2080  -23.9198  -56.8537 H         1 UNK         0.0600 
    234 H234       -3.8908  -23.7832  -55.1237 H         1 UNK         0.0600 
    235 H235       -5.1230  -21.1470  -53.7483 H         1 UNK         0.3000 
    236 H236       -2.9333  -19.2053  -53.2541 H         1 UNK         0.0600 
    237 H237       -2.3872  -21.2834  -51.9617 H         1 UNK         0.0600 
    238 H238       -2.8642  -19.9958  -50.8722 H         1 UNK         0.0600 
    239 H239       -4.0046  -21.2798  -51.2619 H         1 UNK         0.0600 
    240 H240       -3.6090  -17.8415  -51.3026 H         1 UNK         0.3000 
    241 H241       -6.2147  -16.6822  -51.8138 H         1 UNK         0.0600 
    242 H242       -5.4835  -19.3060  -49.8094 H         1 UNK         0.3800 
    243 H243       -6.7577  -19.0388  -48.6460 H         1 UNK         0.3800 
    244 H244       -4.5038  -15.0883  -51.5899 H         1 UNK         0.0800 
    245 H245       -5.4119  -14.9413  -50.1248 H         1 UNK         0.0800 
    246 H246       -2.1765  -16.0572  -51.8613 H         1 UNK         0.0800 
    247 H247       -2.0335  -14.4396  -51.2163 H         1 UNK         0.0800 
@<TRIPOS>BOND
     1    1    2 1    
     2    1  127 1    
     3    1  128 1    
     4    1  129 1    
     5    2    3 2    
     6    2    4 am   BACKBONE|DICT|INTERRES
     7    4    5 1    
     8    4  130 1    
     9    5    6 1    
    10    5   65 1    
    11    5  131 1    
    12    6    7 1    
    13    6  132 1    
    14    6  133 1    
    15    7    8 1    
    16    8    9 1    
    17    8  134 1    
    18    8  135 1    
    19    9   10 ar   
    20    9   14 ar   
    21   10   11 ar   
    22   10  136 1    
    23   11   12 ar   
    24   11  126 1    
    25   12   13 ar   
    26   12  137 1    
    27   13   14 ar   
    28   13   15 1    
    29   14  138 1    
    30   15   16 1    
    31   15  139 1    
    32   15  140 1    
    33   16   17 1    
    34   17   18 1    
    35   17  141 1    
    36   17  142 1    
    37   18   19 1    
    38   18   67 1    
    39   18  143 1    
    40   19   20 am   BACKBONE|DICT|INTERRES
    41   19  144 1    
    42   20   21 2    
    43   20   22 1    
    44   22   23 1    
    45   22   24 1    
    46   22  145 1    
    47   23  146 1    
    48   23  147 1    
    49   23  148 1    
    50   24   25 am   BACKBONE|DICT|INTERRES
    51   24  149 1    
    52   25   26 2    
    53   25   27 1    
    54   27   28 1    
    55   27   29 1    
    56   27  150 1    
    57   28  151 1    
    58   28  152 1    
    59   28  153 1    
    60   29   30 am   BACKBONE|DICT|INTERRES
    61   29  154 1    
    62   30   31 2    
    63   30   32 1    
    64   32   33 1    
    65   32   34 1    
    66   32  155 1    
    67   33  156 1    
    68   33  157 1    
    69   33  158 1    
    70   34   35 am   BACKBONE|DICT|INTERRES
    71   34  159 1    
    72   35   36 2    
    73   35   37 1    
    74   37   38 1    
    75   37   39 1    
    76   37  160 1    
    77   38  161 1    
    78   38  162 1    
    79   38  163 1    
    80   39   40 am   BACKBONE|DICT|INTERRES
    81   39  164 1    
    82   40   41 2    
    83   40   42 1    
    84   42   43 1    
    85   42   44 1    
    86   42  165 1    
    87   43  166 1    
    88   43  167 1    
    89   43  168 1    
    90   44   45 am   BACKBONE|DICT|INTERRES
    91   44  169 1    
    92   45   46 2    
    93   45   47 1    
    94   47   48 1    
    95   47   49 1    
    96   47  170 1    
    97   48  171 1    
    98   48  172 1    
    99   48  173 1    
   100   49   50 am   BACKBONE|DICT|INTERRES
   101   49  174 1    
   102   50   51 2    
   103   50   52 1    
   104   52   53 1    
   105   52   54 1    
   106   52  175 1    
   107   53  176 1    
   108   53  177 1    
   109   53  178 1    
   110   54   55 am   BACKBONE|DICT|INTERRES
   111   54  179 1    
   112   55   56 2    
   113   55   57 1    
   114   57   58 1    
   115   57   59 1    
   116   57  180 1    
   117   58  181 1    
   118   58  182 1    
   119   58  183 1    
   120   59   60 am   BACKBONE|DICT|INTERRES
   121   59  184 1    
   122   60   61 2    
   123   60   62 1    
   124   62   63 1    
   125   62   64 1    
   126   62  185 1    
   127   63  186 1    
   128   63  187 1    
   129   63  188 1    
   130   64   65 am   BACKBONE|DICT|INTERRES
   131   64  189 1    
   132   65   66 2    
   133   67   68 2    
   134   67   69 am   BACKBONE|DICT|INTERRES
   135   69   70 1    
   136   69  190 1    
   137   70   71 1    
   138   70   72 1    
   139   70  191 1    
   140   71  192 1    
   141   71  193 1    
   142   71  194 1    
   143   72   73 2    
   144   72   74 am   BACKBONE|DICT|INTERRES
   145   74   75 1    
   146   74  195 1    
   147   75   76 1    
   148   75   77 1    
   149   75  196 1    
   150   76  197 1    
   151   76  198 1    
   152   76  199 1    
   153   77   78 2    
   154   77   79 am   BACKBONE|DICT|INTERRES
   155   79   80 1    
   156   79  200 1    
   157   80   81 1    
   158   80   82 1    
   159   80  201 1    
   160   81  202 1    
   161   81  203 1    
   162   81  204 1    
   163   82   83 2    
   164   82   84 am   BACKBONE|DICT|INTERRES
   165   84   85 1    
   166   84  205 1    
   167   85   86 1    
   168   85   87 1    
   169   85  206 1    
   170   86  207 1    
   171   86  208 1    
   172   86  209 1    
   173   87   88 2    
   174   87   89 am   BACKBONE|DICT|INTERRES
   175   89   90 1    
   176   89  210 1    
   177   90   91 1    
   178   90   92 1    
   179   90  211 1    
   180   91  212 1    
   181   91  213 1    
   182   91  214 1    
   183   92   93 2    
   184   92   94 am   BACKBONE|DICT|INTERRES
   185   94   95 1    
   186   94  215 1    
   187   95   96 1    
   188   95   97 1    
   189   95  216 1    
   190   96  217 1    
   191   96  218 1    
   192   96  219 1    
   193   97   98 2    
   194   97   99 am   BACKBONE|DICT|INTERRES
   195   99  100 1    
   196   99  220 1    
   197  100  101 1    
   198  100  102 1    
   199  100  221 1    
   200  101  222 1    
   201  101  223 1    
   202  101  224 1    
   203  102  103 2    
   204  102  104 am   BACKBONE|DICT|INTERRES
   205  104  105 1    
   206  104  225 1    
   207  105  106 1    
   208  105  107 1    
   209  105  226 1    
   210  106  227 1    
   211  106  228 1    
   212  106  229 1    
   213  107  108 2    
   214  107  109 am   BACKBONE|DICT|INTERRES
   215  109  110 1    
   216  109  230 1    
   217  110  111 1    
   218  110  112 1    
   219  110  231 1    
   220  111  232 1    
   221  111  233 1    
   222  111  234 1    
   223  112  113 2    
   224  112  114 am   BACKBONE|DICT|INTERRES
   225  114  115 1    
   226  114  235 1    
   227  115  116 1    
   228  115  117 1    
   229  115  236 1    
   230  116  237 1    
   231  116  238 1    
   232  116  239 1    
   233  117  118 2    
   234  117  119 am   BACKBONE|DICT|INTERRES
   235  119  120 1    
   236  119  240 1    
   237  120  121 1    
   238  120  124 1    
   239  120  241 1    
   240  121  122 am   BACKBONE|DICT|INTERRES
   241  121  123 2    
   242  122  242 1    
   243  122  243 1    
   244  124  125 1    
   245  124  244 1    
   246  124  245 1    
   247  125  126 1    
   248  126  246 1    
   249  126  247 1    
@<TRIPOS>SUBSTRUCTURE
     1 UNK         1 GROUP             0       ****    0 ROOT    
