@<TRIPOS>MOLECULE
3R540
247   249    1
SMALL
USER_CHARGES


@<TRIPOS>ATOM
      1 CA          4.4529  -10.7840  -45.1260 C.3       0 UNK        -0.1800 
      2 C           3.5093  -11.9693  -45.2679 C.2       0 UNK         0.5000 
      3 O           2.8865  -12.3901  -44.2904 O.2       0 UNK        -0.5000 
      4 N           3.4134  -12.5244  -46.4808 N.am      1 UNK        -0.5000 
      5 CA          2.6113  -13.7085  -46.8016 C.3       1 UNK         0.1400 
      6 C6          3.0350  -14.3188  -48.1600 C.3       23 UNK        -0.0398 
      7 S7          2.8484  -16.1261  -48.1865 S.3       23 UNK        -0.2404 
      8 C8          2.9749  -16.4483  -49.9721 C.3       23 UNK        -0.0205 
      9 C9          2.5846  -17.8793  -50.3056 C.ar      23 UNK        -0.0193 
     10 C10         1.4505  -18.1415  -51.0805 C.ar      23 UNK        -0.1150 
     11 C11         1.0951  -19.4563  -51.3933 C.ar      23 UNK        -0.0193 
     12 C12         1.8722  -20.5116  -50.9063 C.ar      23 UNK        -0.1150 
     13 C13         2.9925  -20.2662  -50.1078 C.ar      23 UNK        -0.0193 
     14 C14         3.3585  -18.9443  -49.8356 C.ar      23 UNK        -0.1150 
     15 C15         3.7862  -21.4394  -49.5393 C.3       23 UNK        -0.0205 
     16 S16         4.2036  -21.2733  -47.7663 S.3       23 UNK        -0.2404 
     17 C17         2.5873  -20.9191  -46.9923 C.3       23 UNK        -0.0398 
     18 CA          1.9516  -22.1359  -46.2772 C.3       11 UNK         0.1400 
     19 N           1.0082  -21.6929  -45.2470 N.am      11 UNK        -0.5000 
     20 C           0.3526  -22.4828  -44.3855 C.2       10 UNK         0.5000 
     21 O           0.4843  -23.7055  -44.3368 O.2       10 UNK        -0.5000 
     22 CA         -0.6408  -21.7850  -43.4428 C.3       10 UNK         0.1400 
     23 CB          0.0894  -21.1705  -42.2390 C.3       10 UNK        -0.1800 
     24 N          -1.3865  -20.7428  -44.1484 N.am      10 UNK        -0.5000 
     25 C          -2.4884  -20.9700  -44.8767 C.2       9 UNK         0.5000 
     26 O          -3.0300  -22.0704  -44.9727 O.2       9 UNK        -0.5000 
     27 CA         -3.0897  -19.7699  -45.6343 C.3       9 UNK         0.1400 
     28 CB         -4.1287  -19.0533  -44.7587 C.3       9 UNK        -0.1800 
     29 N          -2.0971  -18.7948  -46.0856 N.am      9 UNK        -0.5000 
     30 C          -1.1344  -19.0375  -46.9862 C.2       8 UNK         0.5000 
     31 O          -0.9763  -20.1222  -47.5420 O.2       8 UNK        -0.5000 
     32 CA         -0.1476  -17.8869  -47.2622 C.3       8 UNK         0.1400 
     33 CB         -0.7397  -16.9371  -48.3163 C.3       8 UNK        -0.1800 
     34 N           0.2130  -17.1209  -46.0613 N.am      8 UNK        -0.5000 
     35 C           0.6900  -17.6397  -44.9209 C.2       7 UNK         0.5000 
     36 O           0.9040  -18.8424  -44.7553 O.2       7 UNK        -0.5000 
     37 CA          0.8665  -16.6520  -43.7534 C.3       7 UNK         0.1400 
     38 CB          0.5021  -17.2925  -42.3991 C.3       7 UNK        -0.1800 
     39 N           2.1871  -16.0200  -43.6758 N.am      7 UNK        -0.5000 
     40 C           3.3887  -16.6086  -43.5515 C.2       6 UNK         0.5000 
     41 O           3.5814  -17.8222  -43.6055 O.2       6 UNK        -0.5000 
     42 CA          4.5828  -15.6792  -43.2512 C.3       6 UNK         0.1400 
     43 CB          5.4021  -15.3745  -44.5152 C.3       6 UNK        -0.1800 
     44 N           4.1509  -14.4258  -42.6235 N.am      6 UNK        -0.5000 
     45 C           4.0667  -14.2367  -41.2984 C.2       5 UNK         0.5000 
     46 O           4.4551  -15.0498  -40.4592 O.2       5 UNK        -0.5000 
     47 CA          3.3834  -12.9387  -40.8384 C.3       5 UNK         0.1400 
     48 CB          4.2534  -11.7058  -41.1295 C.3       5 UNK        -0.1800 
     49 N           2.0854  -12.7972  -41.4962 N.am      5 UNK        -0.5000 
     50 C           0.9525  -13.3650  -41.0584 C.2       4 UNK         0.5000 
     51 O           0.8722  -13.9852  -39.9973 O.2       4 UNK        -0.5000 
     52 CA         -0.2869  -13.2592  -41.9723 C.3       4 UNK         0.1400 
     53 CB         -1.6178  -13.2428  -41.1911 C.3       4 UNK        -0.1800 
     54 N          -0.2113  -12.1649  -42.9452 N.am      4 UNK        -0.5000 
     55 C          -0.2793  -10.8477  -42.7004 C.2       3 UNK         0.5000 
     56 O          -0.4467  -10.3642  -41.5804 O.2       3 UNK        -0.5000 
     57 CA         -0.1014   -9.9011  -43.9049 C.3       3 UNK         0.1400 
     58 CB          1.1508   -9.0312  -43.7126 C.3       3 UNK        -0.1800 
     59 N           0.0070  -10.6053  -45.1867 N.am      3 UNK        -0.5000 
     60 C          -1.0274  -11.0643  -45.9062 C.2       2 UNK         0.5000 
     61 O          -2.2028  -10.9442  -45.5609 O.2       2 UNK        -0.5000 
     62 CA         -0.6958  -11.7820  -47.2298 C.3       2 UNK         0.1400 
     63 CB         -0.9255  -10.8396  -48.4214 C.3       2 UNK        -0.1800 
     64 N           0.6830  -12.2754  -47.2768 N.am      2 UNK        -0.5000 
     65 C           1.0982  -13.4222  -46.7220 C.2       1 UNK         0.5000 
     66 O           0.3577  -14.2042  -46.1222 O.2       1 UNK        -0.5000 
     67 C           1.2962  -23.1037  -47.2869 C.2       11 UNK         0.5000 
     68 O           1.8890  -24.1253  -47.6351 O.2       11 UNK        -0.5000 
     69 N           0.0693  -22.7738  -47.7060 N.am      12 UNK        -0.5000 
     70 CA         -0.7288  -23.5124  -48.6785 C.3       12 UNK         0.1400 
     71 CB         -1.2258  -22.5173  -49.7319 C.3       12 UNK        -0.1800 
     72 C          -1.9077  -24.2433  -48.0140 C.2       12 UNK         0.5000 
     73 O          -2.9490  -24.4163  -48.6525 O.2       12 UNK        -0.5000 
     74 N          -1.7464  -24.6774  -46.7556 N.am      13 UNK        -0.5000 
     75 CA         -2.7619  -25.4184  -45.9964 C.3       13 UNK         0.1400 
     76 CB         -2.2610  -25.6627  -44.5664 C.3       13 UNK        -0.1800 
     77 C          -3.1719  -26.7476  -46.6627 C.2       13 UNK         0.5000 
     78 O          -4.3450  -27.1182  -46.6160 O.2       13 UNK        -0.5000 
     79 N          -2.2099  -27.4008  -47.3307 N.am      14 UNK        -0.5000 
     80 CA         -2.4069  -28.6060  -48.1411 C.3       14 UNK         0.1400 
     81 CB         -1.0323  -29.2026  -48.4797 C.3       14 UNK        -0.1800 
     82 C          -3.2192  -28.3612  -49.4313 C.2       14 UNK         0.5000 
     83 O          -3.7764  -29.3117  -49.9803 O.2       14 UNK        -0.5000 
     84 N          -3.2921  -27.1000  -49.8776 N.am      15 UNK        -0.5000 
     85 CA         -4.0890  -26.6334  -51.0128 C.3       15 UNK         0.1400 
     86 CB         -3.2085  -25.7411  -51.9062 C.3       15 UNK        -0.1800 
     87 C          -5.3517  -25.8948  -50.5238 C.2       15 UNK         0.5000 
     88 O          -5.8278  -24.9826  -51.2013 O.2       15 UNK        -0.5000 
     89 N          -5.8535  -26.2841  -49.3407 N.am      16 UNK        -0.5000 
     90 CA         -7.0454  -25.7675  -48.6616 C.3       16 UNK         0.1400 
     91 CB         -8.3217  -26.2023  -49.4106 C.3       16 UNK        -0.1800 
     92 C          -6.9762  -24.2504  -48.3892 C.2       16 UNK         0.5000 
     93 O          -7.9588  -23.5372  -48.5969 O.2       16 UNK        -0.5000 
     94 N          -5.7985  -23.7992  -47.9325 N.am      17 UNK        -0.5000 
     95 CA         -5.4289  -22.4102  -47.6470 C.3       17 UNK         0.1400 
     96 CB         -6.2965  -21.8151  -46.5170 C.3       17 UNK        -0.1800 
     97 C          -5.3967  -21.5498  -48.9252 C.2       17 UNK         0.5000 
     98 O          -5.9708  -20.4603  -48.9565 O.2       17 UNK        -0.5000 
     99 N          -4.7122  -22.0762  -49.9518 N.am      18 UNK        -0.5000 
    100 CA        -4.5222  -21.4962  -51.2860 C.3       18 UNK         0.1400 
    101 CB        -3.6934  -20.1927  -51.2182 C.3       18 UNK        -0.1800 
    102 C         -5.8495  -21.3033  -52.0479 C.2       18 UNK         0.5000 
    103 O         -6.0981  -20.2251  -52.5924 O.2       18 UNK        -0.5000 
    104 N         -6.6861  -22.3497  -52.0743 N.am      19 UNK        -0.5000 
    105 CA        -7.9738  -22.3681  -52.7685 C.3       19 UNK         0.1400 
    106 CB        -8.7424  -23.6418  -52.3851 C.3       19 UNK        -0.1800 
    107 C         -7.7878  -22.2478  -54.2934 C.2       19 UNK         0.5000 
    108 O         -7.4427  -23.2332  -54.9485 O.2       19 UNK        -0.5000 
    109 N         -7.9811  -21.0242  -54.8072 N.am      20 UNK        -0.5000 
    110 CA        -7.7623  -20.5948  -56.1929 C.3       20 UNK         0.1400 
    111 CB        -8.7737  -21.2712  -57.1429 C.3       20 UNK        -0.1800 
    112 C         -6.2949  -20.7548  -56.6518 C.2       20 UNK         0.5000 
    113 O         -6.0469  -21.0991  -57.8093 O.2       20 UNK        -0.5000 
    114 N         -5.3494  -20.5014  -55.7374 N.am      21 UNK        -0.5000 
    115 CA        -3.9093  -20.5843  -55.9719 C.3       21 UNK         0.1400 
    116 CB        -3.3430  -21.7686  -55.1714 C.3       21 UNK        -0.1800 
    117 C         -3.2274  -19.2753  -55.5472 C.2       21 UNK         0.5000 
    118 O         -3.7488  -18.5564  -54.6921 O.2       21 UNK        -0.5000 
    119 N         -2.0559  -19.0140  -56.1402 N.am      22 UNK        -0.5000 
    120 CA        -1.1478  -17.8890  -55.8365 C.3       22 UNK         0.1400 
    121 C         -1.6928  -16.4749  -56.2092 C.2       22 UNK         0.5000 
    122 N         -2.7306  -16.3605  -57.0289 N.am      22 UNK        -0.7600 
    123 O         -1.1488  -15.4610  -55.7797 O.2       22 UNK        -0.5000 
    124 C124       -0.5660  -17.9416  -54.3934 C.3       23 UNK        -0.0398 
    125 S125        0.2229  -19.5477  -54.0176 S.3       23 UNK        -0.2404 
    126 C126       -0.1332  -19.7412  -52.2444 C.3       23 UNK        -0.0205 
    127 H127        5.2253  -11.0061  -44.3904 H         1 UNK         0.0600 
    128 H128        3.9121   -9.8979  -44.7993 H         1 UNK         0.0600 
    129 H129        4.9466  -10.5472  -46.0686 H         1 UNK         0.0600 
    130 H130        3.9518  -12.1342  -47.2416 H         1 UNK         0.3000 
    131 H131        2.8154  -14.4432  -46.0224 H         1 UNK         0.0600 
    132 H132        2.4893  -13.8686  -48.9915 H         1 UNK         0.0800 
    133 H133        4.0903  -14.1202  -48.3534 H         1 UNK         0.0800 
    134 H134        2.3389  -15.7467  -50.5139 H         1 UNK         0.0800 
    135 H135        3.9979  -16.2635  -50.3029 H         1 UNK         0.0800 
    136 H136        0.8464  -17.3244  -51.4489 H         1 UNK         0.1150 
    137 H137        1.5991  -21.5298  -51.1437 H         1 UNK         0.1150 
    138 H138        4.2300  -18.7414  -49.2291 H         1 UNK         0.1150 
    139 H139        3.2368  -22.3726  -49.6733 H         1 UNK         0.0800 
    140 H140        4.7106  -21.5433  -50.1085 H         1 UNK         0.0800 
    141 H141        1.8934  -20.4789  -47.7087 H         1 UNK         0.0800 
    142 H142        2.7818  -20.1295  -46.2647 H         1 UNK         0.0800 
    143 H143        2.7403  -22.6842  -45.7579 H         1 UNK         0.0600 
    144 H144        0.8703  -20.6883  -45.1711 H         1 UNK         0.3000 
    145 H145       -1.3380  -22.5355  -43.0645 H         1 UNK         0.0600 
    146 H146       -0.6072  -20.6667  -41.5688 H         1 UNK         0.0600 
    147 H147        0.5987  -21.9418  -41.6600 H         1 UNK         0.0600 
    148 H148        0.8423  -20.4452  -42.5481 H         1 UNK         0.0600 
    149 H149       -0.9621  -19.8254  -44.1755 H         1 UNK         0.3000 
    150 H150       -3.5937  -20.1602  -46.5201 H         1 UNK         0.0600 
    151 H151       -4.8753  -19.7527  -44.3803 H         1 UNK         0.0600 
    152 H152       -4.6594  -18.2871  -45.3241 H         1 UNK         0.0600 
    153 H153       -3.6652  -18.5747  -43.8950 H         1 UNK         0.0600 
    154 H154       -2.1463  -17.8738  -45.6762 H         1 UNK         0.3000 
    155 H155        0.7682  -18.3228  -47.6647 H         1 UNK         0.0600 
    156 H156       -0.9812  -17.4763  -49.2334 H         1 UNK         0.0600 
    157 H157       -0.0404  -16.1458  -48.5827 H         1 UNK         0.0600 
    158 H158       -1.6554  -16.4624  -47.9620 H         1 UNK         0.0600 
    159 H159        0.1006  -16.1123  -46.1214 H         1 UNK         0.3000 
    160 H160        0.1518  -15.8491  -43.9279 H         1 UNK         0.0600 
    161 H161        1.2084  -18.0736  -42.1168 H         1 UNK         0.0600 
    162 H162       -0.4899  -17.7447  -42.4318 H         1 UNK         0.0600 
    163 H163        0.4946  -16.5503  -41.6009 H         1 UNK         0.0600 
    164 H164        2.1751  -15.0121  -43.6446 H         1 UNK         0.3000 
    165 H165        5.2399  -16.2216  -42.5680 H         1 UNK         0.0600 
    166 H166        6.3188  -14.8410  -44.2639 H         1 UNK         0.0600 
    167 H167        5.6922  -16.2945  -45.0245 H         1 UNK         0.0600 
    168 H168        4.8541  -14.7651  -45.2287 H         1 UNK         0.0600 
    169 H169        3.8059  -13.6943  -43.2373 H         1 UNK         0.3000 
    170 H170        3.2401  -12.9943  -39.7571 H         1 UNK         0.0600 
    171 H171        4.4413  -11.5791  -42.1944 H         1 UNK         0.0600 
    172 H172        3.7765  -10.7956  -40.7657 H         1 UNK         0.0600 
    173 H173        5.2212  -11.7873  -40.6333 H         1 UNK         0.0600 
    174 H174        2.0876  -12.3483  -42.4051 H         1 UNK         0.3000 
    175 H175       -0.2892  -14.1701  -42.5654 H         1 UNK         0.0600 
    176 H176       -2.4702  -13.1552  -41.8648 H         1 UNK         0.0600 
    177 H177       -1.6640  -12.4181  -40.4798 H         1 UNK         0.0600 
    178 H178       -1.7482  -14.1654  -40.6244 H         1 UNK         0.0600 
    179 H179       -0.0524  -12.4433  -43.9033 H         1 UNK         0.3000 
    180 H180       -0.9718   -9.2425  -43.9384 H         1 UNK         0.0600 
    181 H181        1.3442   -8.4063  -44.5847 H         1 UNK         0.0600 
    182 H182        2.0340   -9.6412  -43.5252 H         1 UNK         0.0600 
    183 H183        1.0327   -8.3651  -42.8570 H         1 UNK         0.0600 
    184 H184        0.9398  -10.7623  -45.5366 H         1 UNK         0.3000 
    185 H185       -1.3804  -12.6274  -47.3279 H         1 UNK         0.0600 
    186 H186       -1.9529  -10.4732  -48.4378 H         1 UNK         0.0600 
    187 H187       -0.2677   -9.9705  -48.3814 H         1 UNK         0.0600 
    188 H188       -0.7497  -11.3513  -49.3678 H         1 UNK         0.0600 
    189 H189        1.3594  -11.6852  -47.7394 H         1 UNK         0.3000 
    190 H190       -0.3331  -21.8921  -47.3951 H         1 UNK         0.3000 
    191 H191       -0.1194  -24.2654  -49.1815 H         1 UNK         0.0600 
    192 H192       -1.6769  -23.0213  -50.5856 H         1 UNK         0.0600 
    193 H193       -1.9694  -21.8486  -49.3015 H         1 UNK         0.0600 
    194 H194       -0.4097  -21.9052  -50.1038 H         1 UNK         0.0600 
    195 H195       -0.8777  -24.4757  -46.2790 H         1 UNK         0.3000 
    196 H196       -3.6540  -24.7915  -45.9385 H         1 UNK         0.0600 
    197 H197       -2.9857  -26.2382  -43.9890 H         1 UNK         0.0600 
    198 H198       -2.1074  -24.7205  -44.0411 H         1 UNK         0.0600 
    199 H199       -1.3185  -26.2114  -44.5563 H         1 UNK         0.0600 
    200 H200       -1.2762  -27.0171  -47.3140 H         1 UNK         0.3000 
    201 H201       -2.9582  -29.3324  -47.5404 H         1 UNK         0.0600 
    202 H202       -0.4756  -29.4501  -47.5756 H         1 UNK         0.0600 
    203 H203       -0.4279  -28.5117  -49.0690 H         1 UNK         0.0600 
    204 H204       -1.1361  -30.1224  -49.0570 H         1 UNK         0.0600 
    205 H205       -2.8620  -26.3650  -49.3292 H         1 UNK         0.3000 
    206 H206       -4.4280  -27.4796  -51.6130 H         1 UNK         0.0600 
    207 H207       -2.3077  -26.2667  -52.2230 H         1 UNK         0.0600 
    208 H208       -3.7414  -25.4395  -52.8088 H         1 UNK         0.0600 
    209 H209       -2.9026  -24.8335  -51.3876 H         1 UNK         0.0600 
    210 H210       -5.3533  -27.0048  -48.8381 H         1 UNK         0.3000 
    211 H211       -7.0669  -26.2433  -47.6801 H         1 UNK         0.0600 
    212 H212       -8.3613  -25.7890  -50.4173 H         1 UNK         0.0600 
    213 H213       -9.2196  -25.8763  -48.8843 H         1 UNK         0.0600 
    214 H214       -8.3742  -27.2875  -49.4958 H         1 UNK         0.0600 
    215 H215       -5.0343  -24.4610  -47.8849 H         1 UNK         0.3000 
    216 H216       -4.4019  -22.4398  -47.2826 H         1 UNK         0.0600 
    217 H217       -5.9734  -20.8051  -46.2683 H         1 UNK         0.0600 
    218 H218       -6.2206  -22.4127  -45.6087 H         1 UNK         0.0600 
    219 H219       -7.3487  -21.7523  -46.7937 H         1 UNK         0.0600 
    220 H220       -4.2999  -22.9903  -49.8093 H         1 UNK         0.3000 
    221 H221       -3.9446  -22.2285  -51.8509 H         1 UNK         0.0600 
    222 H222       -4.2357  -19.3924  -50.7142 H         1 UNK         0.0600 
    223 H223       -2.7515  -20.3304  -50.6941 H         1 UNK         0.0600 
    224 H224       -3.4506  -19.8354  -52.2194 H         1 UNK         0.0600 
    225 H225       -6.3951  -23.2263  -51.6472 H         1 UNK         0.3000 
    226 H226       -8.5587  -21.5148  -52.4188 H         1 UNK         0.0600 
    227 H227       -8.9507  -23.6619  -51.3155 H         1 UNK         0.0600 
    228 H228       -9.7001  -23.6921  -52.9041 H         1 UNK         0.0600 
    229 H229       -8.1828  -24.5434  -52.6372 H         1 UNK         0.0600 
    230 H230       -8.2009  -20.2794  -54.1596 H         1 UNK         0.3000 
    231 H231       -7.9645  -19.5231  -56.2127 H         1 UNK         0.0600 
    232 H232       -8.5956  -22.3433  -57.2295 H         1 UNK         0.0600 
    233 H233       -8.7110  -20.8482  -58.1462 H         1 UNK         0.0600 
    234 H234       -9.7971  -21.1280  -56.7961 H         1 UNK         0.0600 
    235 H235       -5.6222  -20.1714  -54.8179 H         1 UNK         0.3000 
    236 H236       -3.7005  -20.7452  -57.0315 H         1 UNK         0.0600 
    237 H237       -3.8353  -22.7021  -55.4450 H         1 UNK         0.0600 
    238 H238       -2.2759  -21.8946  -55.3584 H         1 UNK         0.0600 
    239 H239       -3.4706  -21.6241  -54.0997 H         1 UNK         0.0600 
    240 H240       -1.7118  -19.6622  -56.8341 H         1 UNK         0.3000 
    241 H241       -0.3037  -18.0260  -56.5132 H         1 UNK         0.0600 
    242 H242       -3.1852  -17.1803  -57.3978 H         1 UNK         0.3800 
    243 H243       -3.0709  -15.4440  -57.2748 H         1 UNK         0.3800 
    244 H244        0.1893  -17.1667  -54.2533 H         1 UNK         0.0800 
    245 H245       -1.3548  -17.7314  -53.6705 H         1 UNK         0.0800 
    246 H246       -0.9552  -19.0967  -51.9328 H         1 UNK         0.0800 
    247 H247       -0.4785  -20.7624  -52.0851 H         1 UNK         0.0800 
@<TRIPOS>BOND
     1    1    2 1    
     2    1  127 1    
     3    1  128 1    
     4    1  129 1    
     5    2    3 2    
     6    2    4 am   BACKBONE|DICT|INTERRES
     7    4    5 1    
     8    4  130 1    
     9    5    6 1    
    10    5   65 1    
    11    5  131 1    
    12    6    7 1    
    13    6  132 1    
    14    6  133 1    
    15    7    8 1    
    16    8    9 1    
    17    8  134 1    
    18    8  135 1    
    19    9   10 ar   
    20    9   14 ar   
    21   10   11 ar   
    22   10  136 1    
    23   11   12 ar   
    24   11  126 1    
    25   12   13 ar   
    26   12  137 1    
    27   13   14 ar   
    28   13   15 1    
    29   14  138 1    
    30   15   16 1    
    31   15  139 1    
    32   15  140 1    
    33   16   17 1    
    34   17   18 1    
    35   17  141 1    
    36   17  142 1    
    37   18   19 1    
    38   18   67 1    
    39   18  143 1    
    40   19   20 am   BACKBONE|DICT|INTERRES
    41   19  144 1    
    42   20   21 2    
    43   20   22 1    
    44   22   23 1    
    45   22   24 1    
    46   22  145 1    
    47   23  146 1    
    48   23  147 1    
    49   23  148 1    
    50   24   25 am   BACKBONE|DICT|INTERRES
    51   24  149 1    
    52   25   26 2    
    53   25   27 1    
    54   27   28 1    
    55   27   29 1    
    56   27  150 1    
    57   28  151 1    
    58   28  152 1    
    59   28  153 1    
    60   29   30 am   BACKBONE|DICT|INTERRES
    61   29  154 1    
    62   30   31 2    
    63   30   32 1    
    64   32   33 1    
    65   32   34 1    
    66   32  155 1    
    67   33  156 1    
    68   33  157 1    
    69   33  158 1    
    70   34   35 am   BACKBONE|DICT|INTERRES
    71   34  159 1    
    72   35   36 2    
    73   35   37 1    
    74   37   38 1    
    75   37   39 1    
    76   37  160 1    
    77   38  161 1    
    78   38  162 1    
    79   38  163 1    
    80   39   40 am   BACKBONE|DICT|INTERRES
    81   39  164 1    
    82   40   41 2    
    83   40   42 1    
    84   42   43 1    
    85   42   44 1    
    86   42  165 1    
    87   43  166 1    
    88   43  167 1    
    89   43  168 1    
    90   44   45 am   BACKBONE|DICT|INTERRES
    91   44  169 1    
    92   45   46 2    
    93   45   47 1    
    94   47   48 1    
    95   47   49 1    
    96   47  170 1    
    97   48  171 1    
    98   48  172 1    
    99   48  173 1    
   100   49   50 am   BACKBONE|DICT|INTERRES
   101   49  174 1    
   102   50   51 2    
   103   50   52 1    
   104   52   53 1    
   105   52   54 1    
   106   52  175 1    
   107   53  176 1    
   108   53  177 1    
   109   53  178 1    
   110   54   55 am   BACKBONE|DICT|INTERRES
   111   54  179 1    
   112   55   56 2    
   113   55   57 1    
   114   57   58 1    
   115   57   59 1    
   116   57  180 1    
   117   58  181 1    
   118   58  182 1    
   119   58  183 1    
   120   59   60 am   BACKBONE|DICT|INTERRES
   121   59  184 1    
   122   60   61 2    
   123   60   62 1    
   124   62   63 1    
   125   62   64 1    
   126   62  185 1    
   127   63  186 1    
   128   63  187 1    
   129   63  188 1    
   130   64   65 am   BACKBONE|DICT|INTERRES
   131   64  189 1    
   132   65   66 2    
   133   67   68 2    
   134   67   69 am   BACKBONE|DICT|INTERRES
   135   69   70 1    
   136   69  190 1    
   137   70   71 1    
   138   70   72 1    
   139   70  191 1    
   140   71  192 1    
   141   71  193 1    
   142   71  194 1    
   143   72   73 2    
   144   72   74 am   BACKBONE|DICT|INTERRES
   145   74   75 1    
   146   74  195 1    
   147   75   76 1    
   148   75   77 1    
   149   75  196 1    
   150   76  197 1    
   151   76  198 1    
   152   76  199 1    
   153   77   78 2    
   154   77   79 am   BACKBONE|DICT|INTERRES
   155   79   80 1    
   156   79  200 1    
   157   80   81 1    
   158   80   82 1    
   159   80  201 1    
   160   81  202 1    
   161   81  203 1    
   162   81  204 1    
   163   82   83 2    
   164   82   84 am   BACKBONE|DICT|INTERRES
   165   84   85 1    
   166   84  205 1    
   167   85   86 1    
   168   85   87 1    
   169   85  206 1    
   170   86  207 1    
   171   86  208 1    
   172   86  209 1    
   173   87   88 2    
   174   87   89 am   BACKBONE|DICT|INTERRES
   175   89   90 1    
   176   89  210 1    
   177   90   91 1    
   178   90   92 1    
   179   90  211 1    
   180   91  212 1    
   181   91  213 1    
   182   91  214 1    
   183   92   93 2    
   184   92   94 am   BACKBONE|DICT|INTERRES
   185   94   95 1    
   186   94  215 1    
   187   95   96 1    
   188   95   97 1    
   189   95  216 1    
   190   96  217 1    
   191   96  218 1    
   192   96  219 1    
   193   97   98 2    
   194   97   99 am   BACKBONE|DICT|INTERRES
   195   99  100 1    
   196   99  220 1    
   197  100  101 1    
   198  100  102 1    
   199  100  221 1    
   200  101  222 1    
   201  101  223 1    
   202  101  224 1    
   203  102  103 2    
   204  102  104 am   BACKBONE|DICT|INTERRES
   205  104  105 1    
   206  104  225 1    
   207  105  106 1    
   208  105  107 1    
   209  105  226 1    
   210  106  227 1    
   211  106  228 1    
   212  106  229 1    
   213  107  108 2    
   214  107  109 am   BACKBONE|DICT|INTERRES
   215  109  110 1    
   216  109  230 1    
   217  110  111 1    
   218  110  112 1    
   219  110  231 1    
   220  111  232 1    
   221  111  233 1    
   222  111  234 1    
   223  112  113 2    
   224  112  114 am   BACKBONE|DICT|INTERRES
   225  114  115 1    
   226  114  235 1    
   227  115  116 1    
   228  115  117 1    
   229  115  236 1    
   230  116  237 1    
   231  116  238 1    
   232  116  239 1    
   233  117  118 2    
   234  117  119 am   BACKBONE|DICT|INTERRES
   235  119  120 1    
   236  119  240 1    
   237  120  121 1    
   238  120  124 1    
   239  120  241 1    
   240  121  122 am   BACKBONE|DICT|INTERRES
   241  121  123 2    
   242  122  242 1    
   243  122  243 1    
   244  124  125 1    
   245  124  244 1    
   246  124  245 1    
   247  125  126 1    
   248  126  246 1    
   249  126  247 1    
@<TRIPOS>SUBSTRUCTURE
     1 UNK         1 GROUP             0       ****    0 ROOT    
