@<TRIPOS>MOLECULE
3R540
247   249    1
SMALL
USER_CHARGES


@<TRIPOS>ATOM
      1 CA         -5.2372  -13.7914  -53.0600 C.3       0 UNK        -0.1800 
      2 C          -4.7817  -14.8958  -52.1155 C.2       0 UNK         0.5000 
      3 O          -3.8380  -15.6219  -52.4294 O.2       0 UNK        -0.5000 
      4 N          -5.4714  -15.0315  -50.9785 N.am      1 UNK        -0.5000 
      5 CA         -5.1487  -15.9603  -49.8903 C.3       1 UNK         0.1400 
      6 C6         -6.4184  -16.3334  -49.0819 C.3       23 UNK        -0.0398 
      7 S7         -7.6344  -17.2347  -50.1064 S.3       23 UNK        -0.2404 
      8 C8         -7.4720  -18.9443  -49.4939 C.3       23 UNK        -0.0205 
      9 C9         -6.0902  -19.5250  -49.7585 C.ar      23 UNK        -0.0193 
     10 C10        -5.7402  -19.9563  -51.0422 C.ar      23 UNK        -0.1150 
     11 C11        -4.4675  -20.4778  -51.2972 C.ar      23 UNK        -0.0193 
     12 C12        -3.5470  -20.5600  -50.2496 C.ar      23 UNK        -0.1150 
     13 C13        -3.8856  -20.1460  -48.9615 C.ar      23 UNK        -0.0193 
     14 C14        -5.1622  -19.6346  -48.7184 C.ar      23 UNK        -0.1150 
     15 C15        -2.8490  -20.1996  -47.8541 C.3       23 UNK        -0.0205 
     16 S16        -2.4291  -21.8942  -47.3435 S.3       23 UNK        -0.2404 
     17 C17        -1.0528  -21.5114  -46.2066 C.3       23 UNK        -0.0398 
     18 CA          0.1809  -22.4347  -46.3634 C.3       11 UNK         0.1400 
     19 N           1.3788  -21.8247  -45.7784 N.am      11 UNK        -0.5000 
     20 C           2.6238  -22.3208  -45.8259 C.2       10 UNK         0.5000 
     21 O           2.9394  -23.3300  -46.4560 O.2       10 UNK        -0.5000 
     22 CA          3.6947  -21.5732  -45.0083 C.3       10 UNK         0.1400 
     23 CB          4.3205  -20.4309  -45.8229 C.3       10 UNK        -0.1800 
     24 N           3.1518  -21.0393  -43.7581 N.am      10 UNK        -0.5000 
     25 C           2.9281  -21.7729  -42.6583 C.2       9 UNK         0.5000 
     26 O           3.2278  -22.9628  -42.5576 O.2       9 UNK        -0.5000 
     27 CA          2.2313  -21.0675  -41.4775 C.3       9 UNK         0.1400 
     28 CB          3.2664  -20.3846  -40.5712 C.3       9 UNK        -0.1800 
     29 N           1.2358  -20.0810  -41.9003 N.am      9 UNK        -0.5000 
     30 C           0.1191  -20.3672  -42.5838 C.2       8 UNK         0.5000 
     31 O          -0.2263  -21.5120  -42.8763 O.2       8 UNK        -0.5000 
     32 CA         -0.7201  -19.1740  -43.0801 C.3       8 UNK         0.1400 
     33 CB         -1.7461  -18.7547  -42.0205 C.3       8 UNK        -0.1800 
     34 N           0.0970  -18.0221  -43.4722 N.am      8 UNK        -0.5000 
     35 C           0.9910  -18.0363  -44.4723 C.2       7 UNK         0.5000 
     36 O           1.2035  -19.0251  -45.1720 O.2       7 UNK        -0.5000 
     37 CA          1.8084  -16.7576  -44.7133 C.3       7 UNK         0.1400 
     38 CB          1.0570  -15.7883  -45.6304 C.3       7 UNK        -0.1800 
     39 N           2.1308  -16.0810  -43.4608 N.am      7 UNK        -0.5000 
     40 C           3.1483  -16.4300  -42.6639 C.2       6 UNK         0.5000 
     41 O           3.9520  -17.3246  -42.9285 O.2       6 UNK        -0.5000 
     42 CA          3.2644  -15.6693  -41.3306 C.3       6 UNK         0.1400 
     43 CB          3.9943  -14.3324  -41.5302 C.3       6 UNK        -0.1800 
     44 N           1.9662  -15.4220  -40.6999 N.am      6 UNK        -0.5000 
     45 C           1.1441  -16.3827  -40.2567 C.2       5 UNK         0.5000 
     46 O           1.3870  -17.5863  -40.3430 O.2       5 UNK        -0.5000 
     47 CA         -0.1864  -15.9261  -39.6331 C.3       5 UNK         0.1400 
     48 CB          0.0013  -15.6308  -38.1374 C.3       5 UNK        -0.1800 
     49 N          -0.8073  -14.7647  -40.2763 N.am      5 UNK        -0.5000 
     50 C          -1.1348  -14.6462  -41.5713 C.2       4 UNK         0.5000 
     51 O          -0.8402  -15.4811  -42.4311 O.2       4 UNK        -0.5000 
     52 CA         -1.9805  -13.4062  -41.9391 C.3       4 UNK         0.1400 
     53 CB         -1.5669  -12.1364  -41.1600 C.3       4 UNK        -0.1800 
     54 N          -2.0339  -13.1320  -43.3784 N.am      4 UNK        -0.5000 
     55 C          -1.0228  -12.7643  -44.1747 C.2       3 UNK         0.5000 
     56 O           0.1482  -12.6576  -43.8038 O.2       3 UNK        -0.5000 
     57 CA         -1.4005  -12.4849  -45.6432 C.3       3 UNK         0.1400 
     58 CB         -0.3561  -11.6105  -46.3597 C.3       3 UNK        -0.1800 
     59 N          -1.5503  -13.7322  -46.3859 N.am      3 UNK        -0.5000 
     60 C          -2.6096  -14.5486  -46.3423 C.2       2 UNK         0.5000 
     61 O          -3.6406  -14.3129  -45.7078 O.2       2 UNK        -0.5000 
     62 CA         -2.4588  -15.8778  -47.1093 C.3       2 UNK         0.1400 
     63 CB         -2.2968  -17.0434  -46.1178 C.3       2 UNK        -0.1800 
     64 N          -3.5522  -16.1830  -48.0380 N.am      2 UNK        -0.5000 
     65 C          -4.0439  -15.3673  -48.9831 C.2       1 UNK         0.5000 
     66 O          -3.6479  -14.2118  -49.1612 O.2       1 UNK        -0.5000 
     67 C          -0.1026  -23.8234  -45.7604 C.2       11 UNK         0.5000 
     68 O          -0.3822  -24.7637  -46.5033 O.2       11 UNK        -0.5000 
     69 N          -0.0464  -23.9110  -44.4209 N.am      12 UNK        -0.5000 
     70 CA         -0.2366  -25.1098  -43.5933 C.3       12 UNK         0.1400 
     71 CB          0.9498  -26.0758  -43.7871 C.3       12 UNK        -0.1800 
     72 C          -1.6035  -25.8022  -43.8011 C.2       12 UNK         0.5000 
     73 O          -1.7180  -27.0115  -43.5961 O.2       12 UNK        -0.5000 
     74 N          -2.6034  -25.0199  -44.2388 N.am      13 UNK        -0.5000 
     75 CA         -3.9419  -25.4294  -44.6816 C.3       13 UNK         0.1400 
     76 CB         -4.7495  -26.0331  -43.5138 C.3       13 UNK        -0.1800 
     77 C          -3.9428  -26.3371  -45.9355 C.2       13 UNK         0.5000 
     78 O          -4.9599  -26.9703  -46.2222 O.2       13 UNK        -0.5000 
     79 N          -2.8253  -26.3753  -46.6765 N.am      14 UNK        -0.5000 
     80 CA         -2.6452  -27.1861  -47.8828 C.3       14 UNK         0.1400 
     81 CB         -1.1890  -27.6790  -47.9337 C.3       14 UNK        -0.1800 
     82 C          -3.0069  -26.4252  -49.1735 C.2       14 UNK         0.5000 
     83 O          -2.9510  -27.0247  -50.2478 O.2       14 UNK        -0.5000 
     84 N          -3.3619  -25.1356  -49.0500 N.am      15 UNK        -0.5000 
     85 CA         -3.6718  -24.1884  -50.1261 C.3       15 UNK         0.1400 
     86 CB         -4.9336  -24.6200  -50.9033 C.3       15 UNK        -0.1800 
     87 C          -2.4414  -23.9494  -51.0249 C.2       15 UNK         0.5000 
     88 O          -2.4531  -24.2832  -52.2113 O.2       15 UNK        -0.5000 
     89 N          -1.3860  -23.4023  -50.4135 N.am      16 UNK        -0.5000 
     90 CA         -0.0906  -23.1310  -51.0275 C.3       16 UNK         0.1400 
     91 CB          0.8461  -24.3157  -50.7278 C.3       16 UNK        -0.1800 
     92 C           0.4797  -21.8111  -50.4814 C.2       16 UNK         0.5000 
     93 O          -0.1414  -21.1753  -49.6295 O.2       16 UNK        -0.5000 
     94 N           1.6590  -21.4186  -50.9793 N.am      17 UNK        -0.5000 
     95 CA          2.4969  -20.2840  -50.5583 C.3       17 UNK         0.1400 
     96 CB          2.8749  -20.3906  -49.0681 C.3       17 UNK        -0.1800 
     97 C           1.9433  -18.8811  -50.8821 C.2       17 UNK         0.5000 
     98 O           2.7332  -17.9958  -51.2120 O.2       17 UNK        -0.5000 
     99 N           0.6200  -18.6913  -50.7985 N.am      18 UNK        -0.5000 
    100 CA        -0.0639  -17.4274  -51.0912 C.3       18 UNK         0.1400 
    101 CB        -1.5163  -17.5132  -50.6090 C.3       18 UNK        -0.1800 
    102 C         -0.0043  -17.0349  -52.5810 C.2       18 UNK         0.5000 
    103 O          0.0401  -15.8449  -52.8952 O.2       18 UNK        -0.5000 
    104 N          0.0272  -18.0494  -53.4572 N.am      19 UNK        -0.5000 
    105 CA         0.2366  -18.0287  -54.9098 C.3       19 UNK         0.1400 
    106 CB         1.6149  -17.4379  -55.2600 C.3       19 UNK        -0.1800 
    107 C         -0.8737  -17.3597  -55.7431 C.2       19 UNK         0.5000 
    108 O         -1.2683  -17.9225  -56.7649 O.2       19 UNK        -0.5000 
    109 N         -1.3502  -16.1839  -55.3184 N.am      20 UNK        -0.5000 
    110 CA        -2.2795  -15.3298  -56.0606 C.3       20 UNK         0.1400 
    111 CB        -2.4112  -13.9744  -55.3516 C.3       20 UNK        -0.1800 
    112 C         -3.6510  -15.9793  -56.3209 C.2       20 UNK         0.5000 
    113 O         -4.1175  -15.9631  -57.4608 O.2       20 UNK        -0.5000 
    114 N         -4.2528  -16.5733  -55.2816 N.am      21 UNK        -0.5000 
    115 CA        -5.4703  -17.3817  -55.4100 C.3       21 UNK         0.1400 
    116 CB        -6.1973  -17.4414  -54.0564 C.3       21 UNK        -0.1800 
    117 C         -5.1789  -18.8095  -55.9071 C.2       21 UNK         0.5000 
    118 O         -6.0712  -19.4547  -56.4591 O.2       21 UNK        -0.5000 
    119 N         -3.9564  -19.2898  -55.6569 N.am      22 UNK        -0.5000 
    120 CA        -3.5392  -20.6817  -55.8740 C.3       22 UNK         0.1400 
    121 C         -3.2116  -21.0130  -57.3552 C.2       22 UNK         0.5000 
    122 N         -2.6821  -20.0741  -58.1292 N.am      22 UNK        -0.7600 
    123 O         -3.4436  -22.1312  -57.8061 O.2       22 UNK        -0.5000 
    124 C124       -2.3627  -21.0926  -54.9457 C.3       23 UNK        -0.0398 
    125 S125       -2.4451  -20.4454  -53.2355 S.3       23 UNK        -0.2404 
    126 C126       -4.1075  -20.9704  -52.6946 C.3       23 UNK        -0.0205 
    127 H127       -5.3590  -14.1809  -54.0703 H         1 UNK         0.0600 
    128 H128       -4.4962  -12.9927  -53.0869 H         1 UNK         0.0600 
    129 H129       -6.1893  -13.3608  -52.7492 H         1 UNK         0.0600 
    130 H130       -6.2278  -14.3915  -50.7869 H         1 UNK         0.3000 
    131 H131       -4.7414  -16.8762  -50.3254 H         1 UNK         0.0600 
    132 H132       -6.8987  -15.4348  -48.6909 H         1 UNK         0.0800 
    133 H133       -6.1763  -16.9412  -48.2097 H         1 UNK         0.0800 
    134 H134       -7.7069  -18.9715  -48.4287 H         1 UNK         0.0800 
    135 H135       -8.2223  -19.5658  -49.9848 H         1 UNK         0.0800 
    136 H136       -6.4628  -19.8800  -51.8426 H         1 UNK         0.1150 
    137 H137       -2.5564  -20.9431  -50.4362 H         1 UNK         0.1150 
    138 H138       -5.4303  -19.3102  -47.7229 H         1 UNK         0.1150 
    139 H139       -1.9474  -19.6936  -48.2009 H         1 UNK         0.0800 
    140 H140       -3.2035  -19.6580  -46.9774 H         1 UNK         0.0800 
    141 H141       -0.7407  -20.4812  -46.3814 H         1 UNK         0.0800 
    142 H142       -1.4422  -21.5296  -45.1890 H         1 UNK         0.0800 
    143 H143        0.3863  -22.5699  -47.4265 H         1 UNK         0.0600 
    144 H144        1.2467  -20.9317  -45.3135 H         1 UNK         0.3000 
    145 H145        4.4881  -22.2845  -44.7688 H         1 UNK         0.0600 
    146 H146        5.0877  -19.9116  -45.2484 H         1 UNK         0.0600 
    147 H147        3.5781  -19.6945  -46.1302 H         1 UNK         0.0600 
    148 H148        4.7959  -20.8149  -46.7259 H         1 UNK         0.0600 
    149 H149        2.8543  -20.0737  -43.7674 H         1 UNK         0.3000 
    150 H150        1.7163  -21.8326  -40.8929 H         1 UNK         0.0600 
    151 H151        4.0233  -21.0945  -40.2354 H         1 UNK         0.0600 
    152 H152        2.7953  -19.9669  -39.6813 H         1 UNK         0.0600 
    153 H153        3.7803  -19.5735  -41.0888 H         1 UNK         0.0600 
    154 H154        1.4086  -19.1170  -41.6321 H         1 UNK         0.3000 
    155 H155       -1.2704  -19.4948  -43.9656 H         1 UNK         0.0600 
    156 H156       -2.4451  -19.5666  -41.8162 H         1 UNK         0.0600 
    157 H157       -2.3309  -17.8954  -42.3493 H         1 UNK         0.0600 
    158 H158       -1.2628  -18.4988  -41.0795 H         1 UNK         0.0600 
    159 H159       -0.0679  -17.1525  -42.9726 H         1 UNK         0.3000 
    160 H160        2.7332  -17.0463  -45.2177 H         1 UNK         0.0600 
    161 H161        0.1672  -15.4038  -45.1356 H         1 UNK         0.0600 
    162 H162        0.7498  -16.2772  -46.5558 H         1 UNK         0.0600 
    163 H163        1.6821  -14.9366  -45.8993 H         1 UNK         0.0600 
    164 H164        1.4869  -15.3662  -43.1484 H         1 UNK         0.3000 
    165 H165        3.8565  -16.2843  -40.6495 H         1 UNK         0.0600 
    166 H166        4.1570  -13.8260  -40.5787 H         1 UNK         0.0600 
    167 H167        4.9729  -14.4864  -41.9868 H         1 UNK         0.0600 
    168 H168        3.4316  -13.6586  -42.1779 H         1 UNK         0.0600 
    169 H169        1.6775  -14.4595  -40.6042 H         1 UNK         0.3000 
    170 H170       -0.8910  -16.7530  -39.7194 H         1 UNK         0.0600 
    171 H171        0.4421  -16.4855  -37.6222 H         1 UNK         0.0600 
    172 H172        0.6580  -14.7752  -37.9749 H         1 UNK         0.0600 
    173 H173       -0.9523  -15.4196  -37.6532 H         1 UNK         0.0600 
    174 H174       -1.0868  -14.0212  -39.6533 H         1 UNK         0.3000 
    175 H175       -3.0041  -13.6493  -41.6512 H         1 UNK         0.0600 
    176 H176       -0.5072  -11.9102  -41.2842 H         1 UNK         0.0600 
    177 H177       -2.1329  -11.2678  -41.4968 H         1 UNK         0.0600 
    178 H178       -1.7589  -12.2401  -40.0918 H         1 UNK         0.0600 
    179 H179       -2.9312  -13.2941  -43.8193 H         1 UNK         0.3000 
    180 H180       -2.3499  -11.9450  -45.6535 H         1 UNK         0.0600 
    181 H181       -0.2101  -10.6671  -45.8320 H         1 UNK         0.0600 
    182 H182       -0.6747  -11.3686  -47.3738 H         1 UNK         0.0600 
    183 H183        0.6140  -12.1054  -46.4226 H         1 UNK         0.0600 
    184 H184       -0.7457  -14.0119  -46.9265 H         1 UNK         0.3000 
    185 H185       -1.5469  -15.8180  -47.7067 H         1 UNK         0.0600 
    186 H186       -3.2598  -17.4135  -45.7648 H         1 UNK         0.0600 
    187 H187       -1.7351  -16.7460  -45.2326 H         1 UNK         0.0600 
    188 H188       -1.7520  -17.8696  -46.5717 H         1 UNK         0.0600 
    189 H189       -3.9389  -17.1106  -47.9595 H         1 UNK         0.3000 
    190 H190        0.1156  -23.0530  -43.8976 H         1 UNK         0.3000 
    191 H191       -0.2228  -24.7689  -42.5573 H         1 UNK         0.0600 
    192 H192        0.9042  -26.9036  -43.0787 H         1 UNK         0.0600 
    193 H193        1.9004  -25.5662  -43.6279 H         1 UNK         0.0600 
    194 H194        0.9624  -26.5023  -44.7908 H         1 UNK         0.0600 
    195 H195       -2.3908  -24.0405  -44.3626 H         1 UNK         0.3000 
    196 H196       -4.4463  -24.5108  -44.9847 H         1 UNK         0.0600 
    197 H197       -4.3577  -27.0030  -43.2070 H         1 UNK         0.0600 
    198 H198       -4.7378  -25.3756  -42.6445 H         1 UNK         0.0600 
    199 H199       -5.7935  -26.1786  -43.7934 H         1 UNK         0.0600 
    200 H200       -2.0223  -25.8167  -46.4002 H         1 UNK         0.3000 
    201 H201       -3.2916  -28.0646  -47.8310 H         1 UNK         0.0600 
    202 H202       -1.0464  -28.3907  -48.7476 H         1 UNK         0.0600 
    203 H203       -0.9087  -28.1833  -47.0086 H         1 UNK         0.0600 
    204 H204       -0.4895  -26.8583  -48.0946 H         1 UNK         0.0600 
    205 H205       -3.3502  -24.7477  -48.1181 H         1 UNK         0.3000 
    206 H206       -3.9053  -23.2406  -49.6419 H         1 UNK         0.0600 
    207 H207       -5.7740  -24.7808  -50.2283 H         1 UNK         0.0600 
    208 H208       -5.2344  -23.8510  -51.6144 H         1 UNK         0.0600 
    209 H209       -4.7765  -25.5396  -51.4672 H         1 UNK         0.0600 
    210 H210       -1.4761  -23.0735  -49.4601 H         1 UNK         0.3000 
    211 H211       -0.2053  -23.0159  -52.1073 H         1 UNK         0.0600 
    212 H212        1.0179  -24.4274  -49.6560 H         1 UNK         0.0600 
    213 H213        1.8174  -24.1915  -51.2071 H         1 UNK         0.0600 
    214 H214        0.4250  -25.2519  -51.0951 H         1 UNK         0.0600 
    215 H215        2.0679  -21.9869  -51.7077 H         1 UNK         0.3000 
    216 H216        3.4204  -20.3845  -51.1307 H         1 UNK         0.0600 
    217 H217        3.3176  -21.3605  -48.8419 H         1 UNK         0.0600 
    218 H218        2.0128  -20.2551  -48.4139 H         1 UNK         0.0600 
    219 H219        3.6062  -19.6277  -48.7990 H         1 UNK         0.0600 
    220 H220        0.0583  -19.4674  -50.4601 H         1 UNK         0.3000 
    221 H221        0.4341  -16.6388  -50.5231 H         1 UNK         0.0600 
    222 H222       -2.0180  -16.5565  -50.7481 H         1 UNK         0.0600 
    223 H223       -2.0843  -18.2628  -51.1592 H         1 UNK         0.0600 
    224 H224       -1.5682  -17.7574  -49.5491 H         1 UNK         0.0600 
    225 H225       -0.0701  -18.9738  -53.0617 H         1 UNK         0.3000 
    226 H226        0.2573  -19.0765  -55.2109 H         1 UNK         0.0600 
    227 H227        2.4134  -17.9656  -54.7381 H         1 UNK         0.0600 
    228 H228        1.8141  -17.5213  -56.3291 H         1 UNK         0.0600 
    229 H229        1.6848  -16.3818  -54.9977 H         1 UNK         0.0600 
    230 H230       -0.9707  -15.8152  -54.4494 H         1 UNK         0.3000 
    231 H231       -1.8314  -15.1426  -57.0388 H         1 UNK         0.0600 
    232 H232       -2.6642  -14.0958  -54.2997 H         1 UNK         0.0600 
    233 H233       -1.4757  -13.4172  -55.4008 H         1 UNK         0.0600 
    234 H234       -3.1828  -13.3566  -55.8128 H         1 UNK         0.0600 
    235 H235       -3.8432  -16.4922  -54.3565 H         1 UNK         0.3000 
    236 H236       -6.1426  -16.9128  -56.1317 H         1 UNK         0.0600 
    237 H237       -6.5794  -16.4622  -53.7716 H         1 UNK         0.0600 
    238 H238       -7.0547  -18.1145  -54.0970 H         1 UNK         0.0600 
    239 H239       -5.5415  -17.7958  -53.2599 H         1 UNK         0.0600 
    240 H240       -3.2806  -18.6830  -55.2195 H         1 UNK         0.3000 
    241 H241       -4.3868  -21.3162  -55.6076 H         1 UNK         0.0600 
    242 H242       -2.4019  -19.1815  -57.7328 H         1 UNK         0.3800 
    243 H243       -2.4725  -20.2807  -59.0926 H         1 UNK         0.3800 
    244 H244       -2.2919  -22.1806  -54.8948 H         1 UNK         0.0800 
    245 H245       -1.4150  -20.7533  -55.3652 H         1 UNK         0.0800 
    246 H246       -4.1611  -22.0580  -52.7177 H         1 UNK         0.0800 
    247 H247       -4.8503  -20.6079  -53.4039 H         1 UNK         0.0800 
@<TRIPOS>BOND
     1    1    2 1    
     2    1  127 1    
     3    1  128 1    
     4    1  129 1    
     5    2    3 2    
     6    2    4 am   BACKBONE|DICT|INTERRES
     7    4    5 1    
     8    4  130 1    
     9    5    6 1    
    10    5   65 1    
    11    5  131 1    
    12    6    7 1    
    13    6  132 1    
    14    6  133 1    
    15    7    8 1    
    16    8    9 1    
    17    8  134 1    
    18    8  135 1    
    19    9   10 ar   
    20    9   14 ar   
    21   10   11 ar   
    22   10  136 1    
    23   11   12 ar   
    24   11  126 1    
    25   12   13 ar   
    26   12  137 1    
    27   13   14 ar   
    28   13   15 1    
    29   14  138 1    
    30   15   16 1    
    31   15  139 1    
    32   15  140 1    
    33   16   17 1    
    34   17   18 1    
    35   17  141 1    
    36   17  142 1    
    37   18   19 1    
    38   18   67 1    
    39   18  143 1    
    40   19   20 am   BACKBONE|DICT|INTERRES
    41   19  144 1    
    42   20   21 2    
    43   20   22 1    
    44   22   23 1    
    45   22   24 1    
    46   22  145 1    
    47   23  146 1    
    48   23  147 1    
    49   23  148 1    
    50   24   25 am   BACKBONE|DICT|INTERRES
    51   24  149 1    
    52   25   26 2    
    53   25   27 1    
    54   27   28 1    
    55   27   29 1    
    56   27  150 1    
    57   28  151 1    
    58   28  152 1    
    59   28  153 1    
    60   29   30 am   BACKBONE|DICT|INTERRES
    61   29  154 1    
    62   30   31 2    
    63   30   32 1    
    64   32   33 1    
    65   32   34 1    
    66   32  155 1    
    67   33  156 1    
    68   33  157 1    
    69   33  158 1    
    70   34   35 am   BACKBONE|DICT|INTERRES
    71   34  159 1    
    72   35   36 2    
    73   35   37 1    
    74   37   38 1    
    75   37   39 1    
    76   37  160 1    
    77   38  161 1    
    78   38  162 1    
    79   38  163 1    
    80   39   40 am   BACKBONE|DICT|INTERRES
    81   39  164 1    
    82   40   41 2    
    83   40   42 1    
    84   42   43 1    
    85   42   44 1    
    86   42  165 1    
    87   43  166 1    
    88   43  167 1    
    89   43  168 1    
    90   44   45 am   BACKBONE|DICT|INTERRES
    91   44  169 1    
    92   45   46 2    
    93   45   47 1    
    94   47   48 1    
    95   47   49 1    
    96   47  170 1    
    97   48  171 1    
    98   48  172 1    
    99   48  173 1    
   100   49   50 am   BACKBONE|DICT|INTERRES
   101   49  174 1    
   102   50   51 2    
   103   50   52 1    
   104   52   53 1    
   105   52   54 1    
   106   52  175 1    
   107   53  176 1    
   108   53  177 1    
   109   53  178 1    
   110   54   55 am   BACKBONE|DICT|INTERRES
   111   54  179 1    
   112   55   56 2    
   113   55   57 1    
   114   57   58 1    
   115   57   59 1    
   116   57  180 1    
   117   58  181 1    
   118   58  182 1    
   119   58  183 1    
   120   59   60 am   BACKBONE|DICT|INTERRES
   121   59  184 1    
   122   60   61 2    
   123   60   62 1    
   124   62   63 1    
   125   62   64 1    
   126   62  185 1    
   127   63  186 1    
   128   63  187 1    
   129   63  188 1    
   130   64   65 am   BACKBONE|DICT|INTERRES
   131   64  189 1    
   132   65   66 2    
   133   67   68 2    
   134   67   69 am   BACKBONE|DICT|INTERRES
   135   69   70 1    
   136   69  190 1    
   137   70   71 1    
   138   70   72 1    
   139   70  191 1    
   140   71  192 1    
   141   71  193 1    
   142   71  194 1    
   143   72   73 2    
   144   72   74 am   BACKBONE|DICT|INTERRES
   145   74   75 1    
   146   74  195 1    
   147   75   76 1    
   148   75   77 1    
   149   75  196 1    
   150   76  197 1    
   151   76  198 1    
   152   76  199 1    
   153   77   78 2    
   154   77   79 am   BACKBONE|DICT|INTERRES
   155   79   80 1    
   156   79  200 1    
   157   80   81 1    
   158   80   82 1    
   159   80  201 1    
   160   81  202 1    
   161   81  203 1    
   162   81  204 1    
   163   82   83 2    
   164   82   84 am   BACKBONE|DICT|INTERRES
   165   84   85 1    
   166   84  205 1    
   167   85   86 1    
   168   85   87 1    
   169   85  206 1    
   170   86  207 1    
   171   86  208 1    
   172   86  209 1    
   173   87   88 2    
   174   87   89 am   BACKBONE|DICT|INTERRES
   175   89   90 1    
   176   89  210 1    
   177   90   91 1    
   178   90   92 1    
   179   90  211 1    
   180   91  212 1    
   181   91  213 1    
   182   91  214 1    
   183   92   93 2    
   184   92   94 am   BACKBONE|DICT|INTERRES
   185   94   95 1    
   186   94  215 1    
   187   95   96 1    
   188   95   97 1    
   189   95  216 1    
   190   96  217 1    
   191   96  218 1    
   192   96  219 1    
   193   97   98 2    
   194   97   99 am   BACKBONE|DICT|INTERRES
   195   99  100 1    
   196   99  220 1    
   197  100  101 1    
   198  100  102 1    
   199  100  221 1    
   200  101  222 1    
   201  101  223 1    
   202  101  224 1    
   203  102  103 2    
   204  102  104 am   BACKBONE|DICT|INTERRES
   205  104  105 1    
   206  104  225 1    
   207  105  106 1    
   208  105  107 1    
   209  105  226 1    
   210  106  227 1    
   211  106  228 1    
   212  106  229 1    
   213  107  108 2    
   214  107  109 am   BACKBONE|DICT|INTERRES
   215  109  110 1    
   216  109  230 1    
   217  110  111 1    
   218  110  112 1    
   219  110  231 1    
   220  111  232 1    
   221  111  233 1    
   222  111  234 1    
   223  112  113 2    
   224  112  114 am   BACKBONE|DICT|INTERRES
   225  114  115 1    
   226  114  235 1    
   227  115  116 1    
   228  115  117 1    
   229  115  236 1    
   230  116  237 1    
   231  116  238 1    
   232  116  239 1    
   233  117  118 2    
   234  117  119 am   BACKBONE|DICT|INTERRES
   235  119  120 1    
   236  119  240 1    
   237  120  121 1    
   238  120  124 1    
   239  120  241 1    
   240  121  122 am   BACKBONE|DICT|INTERRES
   241  121  123 2    
   242  122  242 1    
   243  122  243 1    
   244  124  125 1    
   245  124  244 1    
   246  124  245 1    
   247  125  126 1    
   248  126  246 1    
   249  126  247 1    
@<TRIPOS>SUBSTRUCTURE
     1 UNK         1 GROUP             0       ****    0 ROOT    
