@<TRIPOS>MOLECULE
3R540
247   249    1
SMALL
USER_CHARGES


@<TRIPOS>ATOM
      1 CA          1.9759  -15.5072  -48.8849 C.3       0 UNK        -0.1800 
      2 C           1.2251  -14.1930  -48.7190 C.2       0 UNK         0.5000 
      3 O           1.8110  -13.1244  -48.8850 O.2       0 UNK        -0.5000 
      4 N          -0.0697  -14.2715  -48.3907 N.am      1 UNK        -0.5000 
      5 CA         -1.0416  -13.1732  -48.2869 C.3       1 UNK         0.1400 
      6 C6         -1.1420  -12.3089  -49.5826 C.3       23 UNK        -0.0398 
      7 S7         -2.8718  -12.0740  -50.1230 S.3       23 UNK        -0.2404 
      8 C8         -2.9926  -13.2064  -51.5533 C.3       23 UNK        -0.0205 
      9 C9         -2.4616  -14.6037  -51.2549 C.ar      23 UNK        -0.0193 
     10 C10        -1.4240  -15.1414  -52.0239 C.ar      23 UNK        -0.1150 
     11 C11        -0.8910  -16.4004  -51.7279 C.ar      23 UNK        -0.0193 
     12 C12        -1.3927  -17.1089  -50.6321 C.ar      23 UNK        -0.1150 
     13 C13        -2.4439  -16.5919  -49.8713 C.ar      23 UNK        -0.0193 
     14 C14        -2.9875  -15.3488  -50.1966 C.ar      23 UNK        -0.1150 
     15 C15        -2.9864  -17.3829  -48.6998 C.3       23 UNK        -0.0205 
     16 S16        -2.0295  -17.0379  -47.1929 S.3       23 UNK        -0.2404 
     17 C17        -2.6708  -18.3009  -46.0367 C.3       23 UNK        -0.0398 
     18 CA         -2.5060  -19.7595  -46.5353 C.3       11 UNK         0.1400 
     19 N          -1.1461  -20.0378  -47.0034 N.am      11 UNK        -0.5000 
     20 C          -0.8346  -20.9239  -47.9565 C.2       10 UNK         0.5000 
     21 O          -1.6703  -21.6338  -48.5086 O.2       10 UNK        -0.5000 
     22 CA          0.6538  -21.0651  -48.3349 C.3       10 UNK         0.1400 
     23 CB          1.0041  -20.0835  -49.4635 C.3       10 UNK        -0.1800 
     24 N           1.5662  -20.8343  -47.2150 N.am      10 UNK        -0.5000 
     25 C           1.5774  -21.5247  -46.0665 C.2       9 UNK         0.5000 
     26 O           0.8898  -22.5260  -45.8700 O.2       9 UNK        -0.5000 
     27 CA          2.4510  -20.9655  -44.9240 C.3       9 UNK         0.1400 
     28 CB          3.7943  -21.7064  -44.8603 C.3       9 UNK        -0.1800 
     29 N           2.7051  -19.5201  -44.9927 N.am      9 UNK        -0.5000 
     30 C           1.7695  -18.5626  -45.0514 C.2       8 UNK         0.5000 
     31 O           0.5623  -18.7928  -45.1224 O.2       8 UNK        -0.5000 
     32 CA          2.2727  -17.1113  -45.0171 C.3       8 UNK         0.1400 
     33 CB          1.1751  -16.1106  -45.4187 C.3       8 UNK        -0.1800 
     34 N           2.7403  -16.7804  -43.6776 N.am      8 UNK        -0.5000 
     35 C           3.9390  -17.0835  -43.1655 C.2       7 UNK         0.5000 
     36 O           4.8271  -17.6579  -43.7969 O.2       7 UNK        -0.5000 
     37 CA          4.1586  -16.7118  -41.6911 C.3       7 UNK         0.1400 
     38 CB          4.2989  -15.1891  -41.5259 C.3       7 UNK        -0.1800 
     39 N           3.0353  -17.1834  -40.8828 N.am      7 UNK        -0.5000 
     40 C           3.0250  -18.3170  -40.1681 C.2       6 UNK         0.5000 
     41 O           3.9999  -19.0595  -40.0454 O.2       6 UNK        -0.5000 
     42 CA          1.6992  -18.6916  -39.4727 C.3       6 UNK         0.1400 
     43 CB          1.6644  -18.1288  -38.0436 C.3       6 UNK        -0.1800 
     44 N           0.5209  -18.2164  -40.1996 N.am      6 UNK        -0.5000 
     45 C           0.1150  -18.6927  -41.3846 C.2       5 UNK         0.5000 
     46 O           0.6192  -19.6758  -41.9261 O.2       5 UNK        -0.5000 
     47 CA         -1.0289  -17.9371  -42.0961 C.3       5 UNK         0.1400 
     48 CB         -2.3356  -18.7423  -42.0261 C.3       5 UNK        -0.1800 
     49 N          -1.2756  -16.5701  -41.6136 N.am      5 UNK        -0.5000 
     50 C          -0.3936  -15.5630  -41.6624 C.2       4 UNK         0.5000 
     51 O           0.7739  -15.6954  -42.0401 O.2       4 UNK        -0.5000 
     52 CA         -0.8701  -14.1915  -41.1698 C.3       4 UNK         0.1400 
     53 CB         -0.9352  -14.1589  -39.6312 C.3       4 UNK        -0.1800 
     54 N           0.0783  -13.1949  -41.6546 N.am      4 UNK        -0.5000 
     55 C          -0.1105  -11.8740  -41.7153 C.2       3 UNK         0.5000 
     56 O          -1.1515  -11.3143  -41.3719 O.2       3 UNK        -0.5000 
     57 CA          1.0572  -11.0317  -42.2639 C.3       3 UNK         0.1400 
     58 CB          1.8965  -10.4798  -41.1015 C.3       3 UNK        -0.1800 
     59 N           1.9419  -11.7895  -43.1589 N.am      3 UNK        -0.5000 
     60 C           1.7706  -12.0401  -44.4658 C.2       2 UNK         0.5000 
     61 O           2.5820  -12.7196  -45.0953 O.2       2 UNK        -0.5000 
     62 CA          0.5708  -11.4343  -45.2191 C.3       2 UNK         0.1400 
     63 CB          0.8804   -9.9954  -45.6779 C.3       2 UNK        -0.1800 
     64 N           0.2691  -12.2520  -46.3912 N.am      2 UNK        -0.5000 
     65 C          -0.9112  -12.2975  -47.0186 C.2       1 UNK         0.5000 
     66 O          -1.9000  -11.6784  -46.6225 O.2       1 UNK        -0.5000 
     67 C          -2.9868  -20.7789  -45.4839 C.2       11 UNK         0.5000 
     68 O          -4.1781  -20.7992  -45.1756 O.2       11 UNK        -0.5000 
     69 N          -2.0780  -21.6237  -44.9757 N.am      12 UNK        -0.5000 
     70 CA         -2.3977  -22.7488  -44.0968 C.3       12 UNK         0.1400 
     71 CB         -1.1928  -23.0300  -43.1844 C.3       12 UNK        -0.1800 
     72 C          -2.8087  -24.0133  -44.8824 C.2       12 UNK         0.5000 
     73 O          -3.2678  -24.9754  -44.2646 O.2       12 UNK        -0.5000 
     74 N          -2.6383  -24.0074  -46.2145 N.am      13 UNK        -0.5000 
     75 CA         -3.0516  -25.0835  -47.1169 C.3       13 UNK         0.1400 
     76 CB         -2.4135  -24.8495  -48.4945 C.3       13 UNK        -0.1800 
     77 C          -4.5869  -25.1835  -47.2315 C.2       13 UNK         0.5000 
     78 O          -5.2885  -24.1961  -46.9992 O.2       13 UNK        -0.5000 
     79 N          -5.0747  -26.3719  -47.6154 N.am      14 UNK        -0.5000 
     80 CA         -6.4879  -26.7794  -47.6043 C.3       14 UNK         0.1400 
     81 CB         -6.5889  -28.2221  -48.1237 C.3       14 UNK        -0.1800 
     82 C          -7.4660  -25.8696  -48.3764 C.2       14 UNK         0.5000 
     83 O          -8.6260  -25.7575  -47.9779 O.2       14 UNK        -0.5000 
     84 N          -6.9805  -25.2328  -49.4471 N.am      15 UNK        -0.5000 
     85 CA         -7.7053  -24.2390  -50.2420 C.3       15 UNK         0.1400 
     86 CB         -8.1222  -24.8555  -51.5905 C.3       15 UNK        -0.1800 
     87 C          -6.8616  -22.9620  -50.4120 C.2       15 UNK         0.5000 
     88 O          -7.0165  -22.2557  -51.4100 O.2       15 UNK        -0.5000 
     89 N          -5.9668  -22.6980  -49.4458 N.am      16 UNK        -0.5000 
     90 CA         -5.0433  -21.5636  -49.3800 C.3       16 UNK         0.1400 
     91 CB         -5.8148  -20.2886  -48.9723 C.3       16 UNK        -0.1800 
     92 C          -4.2104  -21.4207  -50.6726 C.2       16 UNK         0.5000 
     93 O          -3.5612  -22.3867  -51.0790 O.2       16 UNK        -0.5000 
     94 N          -4.2861  -20.2528  -51.3253 N.am      17 UNK        -0.5000 
     95 CA         -3.5700  -19.9084  -52.5552 C.3       17 UNK         0.1400 
     96 CB         -3.9098  -18.4611  -52.9405 C.3       17 UNK        -0.1800 
     97 C          -3.8399  -20.8435  -53.7506 C.2       17 UNK         0.5000 
     98 O          -2.9805  -20.9509  -54.6269 O.2       17 UNK        -0.5000 
     99 N          -5.0077  -21.5031  -53.7715 N.am      18 UNK        -0.5000 
    100 CA        -5.3789  -22.4744  -54.8004 C.3       18 UNK         0.1400 
    101 CB        -6.9089  -22.5866  -54.8732 C.3       18 UNK        -0.1800 
    102 C         -4.7451  -23.8562  -54.5575 C.2       18 UNK         0.5000 
    103 O         -4.4246  -24.5465  -55.5248 O.2       18 UNK        -0.5000 
    104 N         -4.5572  -24.2304  -53.2835 N.am      19 UNK        -0.5000 
    105 CA        -3.8999  -25.4776  -52.8832 C.3       19 UNK         0.1400 
    106 CB        -4.3700  -25.8951  -51.4823 C.3       19 UNK        -0.1800 
    107 C         -2.3701  -25.3484  -52.9328 C.2       19 UNK         0.5000 
    108 O         -1.6935  -26.2768  -53.3759 O.2       19 UNK        -0.5000 
    109 N         -1.8578  -24.1839  -52.5124 N.am      20 UNK        -0.5000 
    110 CA        -0.4465  -23.8096  -52.6135 C.3       20 UNK         0.1400 
    111 CB        -0.2048  -22.5796  -51.7299 C.3       20 UNK        -0.1800 
    112 C          0.0012  -23.5264  -54.0619 C.2       20 UNK         0.5000 
    113 O          1.1987  -23.5737  -54.3438 O.2       20 UNK        -0.5000 
    114 N         -0.9698  -23.2309  -54.9394 N.am      21 UNK        -0.5000 
    115 CA        -0.8410  -22.9057  -56.3634 C.3       21 UNK         0.1400 
    116 CB        -0.2504  -24.0928  -57.1522 C.3       21 UNK        -0.1800 
    117 C         -0.1044  -21.5761  -56.6333 C.2       21 UNK         0.5000 
    118 O          0.4004  -21.3706  -57.7388 O.2       21 UNK        -0.5000 
    119 N         -0.0730  -20.6896  -55.6309 N.am      22 UNK        -0.5000 
    120 CA         0.4704  -19.3279  -55.7265 C.3       22 UNK         0.1400 
    121 C         -0.5645  -18.2770  -56.2267 C.2       22 UNK         0.5000 
    122 N         -1.8546  -18.5918  -56.2845 N.am      22 UNK        -0.7600 
    123 O         -0.1862  -17.1654  -56.5858 O.2       22 UNK        -0.5000 
    124 C124        1.1688  -18.9019  -54.4091 C.3       23 UNK        -0.0398 
    125 S125        0.0350  -18.7319  -52.9859 S.3       23 UNK        -0.2404 
    126 C126        0.2403  -16.9630  -52.5826 C.3       23 UNK        -0.0205 
    127 H127        2.4706  -15.5351  -49.8557 H         1 UNK         0.0600 
    128 H128        1.3068  -16.3663  -48.8253 H         1 UNK         0.0600 
    129 H129        2.7359  -15.6071  -48.1101 H         1 UNK         0.0600 
    130 H130       -0.4756  -15.1876  -48.2512 H         1 UNK         0.3000 
    131 H131       -1.9864  -13.7007  -48.1515 H         1 UNK         0.0600 
    132 H132       -0.6803  -11.3285  -49.4516 H         1 UNK         0.0800 
    133 H133       -0.5885  -12.7644  -50.4041 H         1 UNK         0.0800 
    134 H134       -2.4565  -12.7620  -52.3933 H         1 UNK         0.0800 
    135 H135       -4.0367  -13.2810  -51.8599 H         1 UNK         0.0800 
    136 H136       -1.0224  -14.5726  -52.8507 H         1 UNK         0.1150 
    137 H137       -0.9764  -18.0724  -50.3776 H         1 UNK         0.1150 
    138 H138       -3.7942  -14.9422  -49.6029 H         1 UNK         0.1150 
    139 H139       -4.0385  -17.1502  -48.5293 H         1 UNK         0.0800 
    140 H140       -2.9309  -18.4393  -48.9572 H         1 UNK         0.0800 
    141 H141       -3.7212  -18.0815  -45.8382 H         1 UNK         0.0800 
    142 H142       -2.1474  -18.1658  -45.0897 H         1 UNK         0.0800 
    143 H143       -3.1891  -19.8976  -47.3725 H         1 UNK         0.0600 
    144 H144       -0.4088  -19.5190  -46.5315 H         1 UNK         0.3000 
    145 H145        0.8099  -22.0844  -48.6931 H         1 UNK         0.0600 
    146 H146        0.9519  -19.0474  -49.1268 H         1 UNK         0.0600 
    147 H147        2.0084  -20.2629  -49.8473 H         1 UNK         0.0600 
    148 H148        0.3143  -20.1866  -50.3010 H         1 UNK         0.0600 
    149 H149        2.1670  -20.0269  -47.2824 H         1 UNK         0.3000 
    150 H150        1.9130  -21.1524  -43.9923 H         1 UNK         0.0600 
    151 H151        3.6438  -22.7838  -44.7785 H         1 UNK         0.0600 
    152 H152        4.3759  -21.3943  -43.9925 H         1 UNK         0.0600 
    153 H153        4.3957  -21.5247  -45.7519 H         1 UNK         0.0600 
    154 H154        3.6684  -19.2262  -44.8870 H         1 UNK         0.3000 
    155 H155        3.0953  -17.0169  -45.7289 H         1 UNK         0.0600 
    156 H156        0.7741  -16.3520  -46.4016 H         1 UNK         0.0600 
    157 H157        0.3388  -16.1161  -44.7194 H         1 UNK         0.0600 
    158 H158        1.5649  -15.0959  -45.4667 H         1 UNK         0.0600 
    159 H159        2.0509  -16.3394  -43.0725 H         1 UNK         0.3000 
    160 H160        5.0897  -17.1752  -41.3582 H         1 UNK         0.0600 
    161 H161        4.5009  -14.9251  -40.4878 H         1 UNK         0.0600 
    162 H162        5.1257  -14.8067  -42.1257 H         1 UNK         0.0600 
    163 H163        3.3969  -14.6596  -41.8345 H         1 UNK         0.0600 
    164 H164        2.1706  -16.6635  -40.9772 H         1 UNK         0.3000 
    165 H165        1.6502  -19.7811  -39.4139 H         1 UNK         0.0600 
    166 H166        0.7634  -18.4440  -37.5171 H         1 UNK         0.0600 
    167 H167        2.5184  -18.4822  -37.4642 H         1 UNK         0.0600 
    168 H168        1.6931  -17.0384  -38.0390 H         1 UNK         0.0600 
    169 H169        0.0377  -17.4190  -39.8143 H         1 UNK         0.3000 
    170 H170       -0.7432  -17.8531  -43.1440 H         1 UNK         0.0600 
    171 H171       -2.1960  -19.7497  -42.4212 H         1 UNK         0.0600 
    172 H172       -2.6934  -18.8381  -41.0003 H         1 UNK         0.0600 
    173 H173       -3.1228  -18.2726  -42.6160 H         1 UNK         0.0600 
    174 H174       -2.2051  -16.3852  -41.2641 H         1 UNK         0.3000 
    175 H175       -1.8559  -13.9900  -41.5936 H         1 UNK         0.0600 
    176 H176        0.0414  -14.3513  -39.1847 H         1 UNK         0.0600 
    177 H177       -1.2822  -13.1916  -39.2679 H         1 UNK         0.0600 
    178 H178       -1.6265  -14.9104  -39.2485 H         1 UNK         0.0600 
    179 H179        0.9417  -13.5942  -42.0012 H         1 UNK         0.3000 
    180 H180        0.6307  -10.1779  -42.7904 H         1 UNK         0.0600 
    181 H181        2.3566  -11.2798  -40.5198 H         1 UNK         0.0600 
    182 H182        1.2816   -9.8906  -40.4197 H         1 UNK         0.0600 
    183 H183        2.6918   -9.8282  -41.4642 H         1 UNK         0.0600 
    184 H184        2.7661  -12.1705  -42.7193 H         1 UNK         0.3000 
    185 H185       -0.3015  -11.4356  -44.5647 H         1 UNK         0.0600 
    186 H186        0.0097   -9.5319  -46.1418 H         1 UNK         0.0600 
    187 H187        1.1784   -9.3580  -44.8458 H         1 UNK         0.0600 
    188 H188        1.6934   -9.9775  -46.4049 H         1 UNK         0.0600 
    189 H189        1.0513  -12.7822  -46.7580 H         1 UNK         0.3000 
    190 H190       -1.1186  -21.5594  -45.2914 H         1 UNK         0.3000 
    191 H191       -3.2395  -22.4748  -43.4574 H         1 UNK         0.0600 
    192 H192       -0.3372  -23.4045  -43.7456 H         1 UNK         0.0600 
    193 H193       -1.4416  -23.7813  -42.4340 H         1 UNK         0.0600 
    194 H194       -0.8789  -22.1314  -42.6525 H         1 UNK         0.0600 
    195 H195       -2.2777  -23.1716  -46.6523 H         1 UNK         0.3000 
    196 H196       -2.6706  -26.0239  -46.7131 H         1 UNK         0.0600 
    197 H197       -2.5543  -25.7141  -49.1425 H         1 UNK         0.0600 
    198 H198       -1.3392  -24.6823  -48.4133 H         1 UNK         0.0600 
    199 H199       -2.8462  -23.9849  -48.9979 H         1 UNK         0.0600 
    200 H200       -4.4163  -27.1117  -47.8133 H         1 UNK         0.3000 
    201 H201       -6.8095  -26.7733  -46.5610 H         1 UNK         0.0600 
    202 H202       -6.0058  -28.9067  -47.5075 H         1 UNK         0.0600 
    203 H203       -6.2306  -28.3046  -49.1507 H         1 UNK         0.0600 
    204 H204       -7.6213  -28.5742  -48.1072 H         1 UNK         0.0600 
    205 H205       -6.0134  -25.3849  -49.6922 H         1 UNK         0.3000 
    206 H206       -8.6118  -23.9289  -49.7188 H         1 UNK         0.0600 
    207 H207       -8.6694  -25.7872  -51.4466 H         1 UNK         0.0600 
    208 H208       -8.7771  -24.1792  -52.1409 H         1 UNK         0.0600 
    209 H209       -7.2631  -25.0643  -52.2273 H         1 UNK         0.0600 
    210 H210       -5.9153  -23.3301  -48.6522 H         1 UNK         0.3000 
    211 H211       -4.3347  -21.7938  -48.5840 H         1 UNK         0.0600 
    212 H212       -6.5731  -20.0149  -49.7070 H         1 UNK         0.0600 
    213 H213       -5.1472  -19.4376  -48.8454 H         1 UNK         0.0600 
    214 H214       -6.3216  -20.4351  -48.0182 H         1 UNK         0.0600 
    215 H215       -4.8889  -19.5367  -50.9489 H         1 UNK         0.3000 
    216 H216       -2.5055  -19.9668  -52.3280 H         1 UNK         0.0600 
    217 H217       -3.2965  -18.1270  -53.7782 H         1 UNK         0.0600 
    218 H218       -3.7267  -17.7733  -52.1171 H         1 UNK         0.0600 
    219 H219       -4.9551  -18.3572  -53.2336 H         1 UNK         0.0600 
    220 H220       -5.6559  -21.3834  -53.0021 H         1 UNK         0.3000 
    221 H221       -5.0256  -22.1123  -55.7685 H         1 UNK         0.0600 
    222 H222       -7.3319  -22.9737  -53.9465 H         1 UNK         0.0600 
    223 H223       -7.3668  -21.6175  -55.0719 H         1 UNK         0.0600 
    224 H224       -7.2116  -23.2601  -55.6759 H         1 UNK         0.0600 
    225 H225       -4.7717  -23.5693  -52.5487 H         1 UNK         0.3000 
    226 H226       -4.1836  -26.2718  -53.5775 H         1 UNK         0.0600 
    227 H227       -5.4016  -26.2408  -51.5096 H         1 UNK         0.0600 
    228 H228       -3.7723  -26.7222  -51.0967 H         1 UNK         0.0600 
    229 H229       -4.2973  -25.0720  -50.7721 H         1 UNK         0.0600 
    230 H230       -2.4808  -23.4969  -52.0920 H         1 UNK         0.3000 
    231 H231        0.1591  -24.6340  -52.2316 H         1 UNK         0.0600 
    232 H232        0.8455  -22.2858  -51.7416 H         1 UNK         0.0600 
    233 H233       -0.4773  -22.7863  -50.6954 H         1 UNK         0.0600 
    234 H234       -0.7917  -21.7235  -52.0635 H         1 UNK         0.0600 
    235 H235       -1.9112  -23.1778  -54.5773 H         1 UNK         0.3000 
    236 H236       -1.8605  -22.7540  -56.7210 H         1 UNK         0.0600 
    237 H237       -0.3132  -23.9187  -58.2269 H         1 UNK         0.0600 
    238 H238       -0.7943  -25.0139  -56.9423 H         1 UNK         0.0600 
    239 H239        0.7995  -24.2591  -56.9103 H         1 UNK         0.0600 
    240 H240       -0.5659  -20.9135  -54.7780 H         1 UNK         0.3000 
    241 H241        1.2528  -19.3370  -56.4877 H         1 UNK         0.0600 
    242 H242       -2.1797  -19.4872  -55.9416 H         1 UNK         0.3800 
    243 H243       -2.5159  -17.9109  -56.6209 H         1 UNK         0.3800 
    244 H244        1.7172  -17.9714  -54.5626 H         1 UNK         0.0800 
    245 H245        1.9261  -19.6411  -54.1446 H         1 UNK         0.0800 
    246 H246        1.1865  -16.8220  -52.0589 H         1 UNK         0.0800 
    247 H247        0.3079  -16.3988  -53.5142 H         1 UNK         0.0800 
@<TRIPOS>BOND
     1    1    2 1    
     2    1  127 1    
     3    1  128 1    
     4    1  129 1    
     5    2    3 2    
     6    2    4 am   BACKBONE|DICT|INTERRES
     7    4    5 1    
     8    4  130 1    
     9    5    6 1    
    10    5   65 1    
    11    5  131 1    
    12    6    7 1    
    13    6  132 1    
    14    6  133 1    
    15    7    8 1    
    16    8    9 1    
    17    8  134 1    
    18    8  135 1    
    19    9   10 ar   
    20    9   14 ar   
    21   10   11 ar   
    22   10  136 1    
    23   11   12 ar   
    24   11  126 1    
    25   12   13 ar   
    26   12  137 1    
    27   13   14 ar   
    28   13   15 1    
    29   14  138 1    
    30   15   16 1    
    31   15  139 1    
    32   15  140 1    
    33   16   17 1    
    34   17   18 1    
    35   17  141 1    
    36   17  142 1    
    37   18   19 1    
    38   18   67 1    
    39   18  143 1    
    40   19   20 am   BACKBONE|DICT|INTERRES
    41   19  144 1    
    42   20   21 2    
    43   20   22 1    
    44   22   23 1    
    45   22   24 1    
    46   22  145 1    
    47   23  146 1    
    48   23  147 1    
    49   23  148 1    
    50   24   25 am   BACKBONE|DICT|INTERRES
    51   24  149 1    
    52   25   26 2    
    53   25   27 1    
    54   27   28 1    
    55   27   29 1    
    56   27  150 1    
    57   28  151 1    
    58   28  152 1    
    59   28  153 1    
    60   29   30 am   BACKBONE|DICT|INTERRES
    61   29  154 1    
    62   30   31 2    
    63   30   32 1    
    64   32   33 1    
    65   32   34 1    
    66   32  155 1    
    67   33  156 1    
    68   33  157 1    
    69   33  158 1    
    70   34   35 am   BACKBONE|DICT|INTERRES
    71   34  159 1    
    72   35   36 2    
    73   35   37 1    
    74   37   38 1    
    75   37   39 1    
    76   37  160 1    
    77   38  161 1    
    78   38  162 1    
    79   38  163 1    
    80   39   40 am   BACKBONE|DICT|INTERRES
    81   39  164 1    
    82   40   41 2    
    83   40   42 1    
    84   42   43 1    
    85   42   44 1    
    86   42  165 1    
    87   43  166 1    
    88   43  167 1    
    89   43  168 1    
    90   44   45 am   BACKBONE|DICT|INTERRES
    91   44  169 1    
    92   45   46 2    
    93   45   47 1    
    94   47   48 1    
    95   47   49 1    
    96   47  170 1    
    97   48  171 1    
    98   48  172 1    
    99   48  173 1    
   100   49   50 am   BACKBONE|DICT|INTERRES
   101   49  174 1    
   102   50   51 2    
   103   50   52 1    
   104   52   53 1    
   105   52   54 1    
   106   52  175 1    
   107   53  176 1    
   108   53  177 1    
   109   53  178 1    
   110   54   55 am   BACKBONE|DICT|INTERRES
   111   54  179 1    
   112   55   56 2    
   113   55   57 1    
   114   57   58 1    
   115   57   59 1    
   116   57  180 1    
   117   58  181 1    
   118   58  182 1    
   119   58  183 1    
   120   59   60 am   BACKBONE|DICT|INTERRES
   121   59  184 1    
   122   60   61 2    
   123   60   62 1    
   124   62   63 1    
   125   62   64 1    
   126   62  185 1    
   127   63  186 1    
   128   63  187 1    
   129   63  188 1    
   130   64   65 am   BACKBONE|DICT|INTERRES
   131   64  189 1    
   132   65   66 2    
   133   67   68 2    
   134   67   69 am   BACKBONE|DICT|INTERRES
   135   69   70 1    
   136   69  190 1    
   137   70   71 1    
   138   70   72 1    
   139   70  191 1    
   140   71  192 1    
   141   71  193 1    
   142   71  194 1    
   143   72   73 2    
   144   72   74 am   BACKBONE|DICT|INTERRES
   145   74   75 1    
   146   74  195 1    
   147   75   76 1    
   148   75   77 1    
   149   75  196 1    
   150   76  197 1    
   151   76  198 1    
   152   76  199 1    
   153   77   78 2    
   154   77   79 am   BACKBONE|DICT|INTERRES
   155   79   80 1    
   156   79  200 1    
   157   80   81 1    
   158   80   82 1    
   159   80  201 1    
   160   81  202 1    
   161   81  203 1    
   162   81  204 1    
   163   82   83 2    
   164   82   84 am   BACKBONE|DICT|INTERRES
   165   84   85 1    
   166   84  205 1    
   167   85   86 1    
   168   85   87 1    
   169   85  206 1    
   170   86  207 1    
   171   86  208 1    
   172   86  209 1    
   173   87   88 2    
   174   87   89 am   BACKBONE|DICT|INTERRES
   175   89   90 1    
   176   89  210 1    
   177   90   91 1    
   178   90   92 1    
   179   90  211 1    
   180   91  212 1    
   181   91  213 1    
   182   91  214 1    
   183   92   93 2    
   184   92   94 am   BACKBONE|DICT|INTERRES
   185   94   95 1    
   186   94  215 1    
   187   95   96 1    
   188   95   97 1    
   189   95  216 1    
   190   96  217 1    
   191   96  218 1    
   192   96  219 1    
   193   97   98 2    
   194   97   99 am   BACKBONE|DICT|INTERRES
   195   99  100 1    
   196   99  220 1    
   197  100  101 1    
   198  100  102 1    
   199  100  221 1    
   200  101  222 1    
   201  101  223 1    
   202  101  224 1    
   203  102  103 2    
   204  102  104 am   BACKBONE|DICT|INTERRES
   205  104  105 1    
   206  104  225 1    
   207  105  106 1    
   208  105  107 1    
   209  105  226 1    
   210  106  227 1    
   211  106  228 1    
   212  106  229 1    
   213  107  108 2    
   214  107  109 am   BACKBONE|DICT|INTERRES
   215  109  110 1    
   216  109  230 1    
   217  110  111 1    
   218  110  112 1    
   219  110  231 1    
   220  111  232 1    
   221  111  233 1    
   222  111  234 1    
   223  112  113 2    
   224  112  114 am   BACKBONE|DICT|INTERRES
   225  114  115 1    
   226  114  235 1    
   227  115  116 1    
   228  115  117 1    
   229  115  236 1    
   230  116  237 1    
   231  116  238 1    
   232  116  239 1    
   233  117  118 2    
   234  117  119 am   BACKBONE|DICT|INTERRES
   235  119  120 1    
   236  119  240 1    
   237  120  121 1    
   238  120  124 1    
   239  120  241 1    
   240  121  122 am   BACKBONE|DICT|INTERRES
   241  121  123 2    
   242  122  242 1    
   243  122  243 1    
   244  124  125 1    
   245  124  244 1    
   246  124  245 1    
   247  125  126 1    
   248  126  246 1    
   249  126  247 1    
@<TRIPOS>SUBSTRUCTURE
     1 UNK         1 GROUP             0       ****    0 ROOT    
