@<TRIPOS>MOLECULE
3R540
247   249    1
SMALL
USER_CHARGES


@<TRIPOS>ATOM
      1 CA         -0.7034  -13.2380  -52.5439 C.3       0 UNK        -0.1800 
      2 C          -0.4571  -12.5724  -51.1979 C.2       0 UNK         0.5000 
      3 O          -0.9881  -11.4934  -50.9371 O.2       0 UNK        -0.5000 
      4 N           0.3247  -13.2217  -50.3276 N.am      1 UNK        -0.5000 
      5 CA          0.7026  -12.7878  -48.9734 C.3       1 UNK         0.1400 
      6 C6          2.0317  -13.4525  -48.5200 C.3       23 UNK        -0.0398 
      7 S7          2.0370  -15.2776  -48.6507 S.3       23 UNK        -0.2404 
      8 C8          3.1481  -15.5288  -50.0676 C.3       23 UNK        -0.0205 
      9 C9          3.2041  -16.9941  -50.4674 C.ar      23 UNK        -0.0193 
     10 C10         2.3639  -17.4827  -51.4725 C.ar      23 UNK        -0.1150 
     11 C11         2.4270  -18.8250  -51.8561 C.ar      23 UNK        -0.0193 
     12 C12         3.3187  -19.6849  -51.2101 C.ar      23 UNK        -0.1150 
     13 C13         4.1638  -19.2112  -50.2028 C.ar      23 UNK        -0.0193 
     14 C14         4.1083  -17.8595  -49.8438 C.ar      23 UNK        -0.1150 
     15 C15         5.1525  -20.1672  -49.5428 C.3       23 UNK        -0.0205 
     16 S16         5.2171  -20.0519  -47.7229 S.3       23 UNK        -0.2404 
     17 C17         3.4786  -20.3033  -47.2353 C.3       23 UNK        -0.0398 
     18 CA          3.1022  -21.7958  -47.0342 C.3       11 UNK         0.1400 
     19 N           2.2449  -21.9792  -45.8597 N.am      11 UNK        -0.5000 
     20 C           1.9124  -23.1545  -45.3082 C.2       10 UNK         0.5000 
     21 O           2.3530  -24.2404  -45.6840 O.2       10 UNK        -0.5000 
     22 CA          0.8880  -23.1083  -44.1589 C.3       10 UNK         0.1400 
     23 CB          1.5818  -22.8869  -42.8062 C.3       10 UNK        -0.1800 
     24 N          -0.1213  -22.0694  -44.3701 N.am      10 UNK        -0.5000 
     25 C          -1.1061  -22.1576  -45.2752 C.2       9 UNK         0.5000 
     26 O          -1.3063  -23.1566  -45.9655 O.2       9 UNK        -0.5000 
     27 CA         -1.9901  -20.9118  -45.4684 C.3       9 UNK         0.1400 
     28 CB         -3.1636  -20.9231  -44.4785 C.3       9 UNK        -0.1800 
     29 N          -1.2513  -19.6533  -45.3438 N.am      9 UNK        -0.5000 
     30 C          -0.2741  -19.2696  -46.1778 C.2       8 UNK         0.5000 
     31 O           0.0893  -19.9283  -47.1477 O.2       8 UNK        -0.5000 
     32 CA          0.4681  -17.9649  -45.8513 C.3       8 UNK         0.1400 
     33 CB         -0.2957  -16.7604  -46.4065 C.3       8 UNK        -0.1800 
     34 N           0.7086  -17.7787  -44.4231 N.am      8 UNK        -0.5000 
     35 C           1.4327  -18.5983  -43.6497 C.2       7 UNK         0.5000 
     36 O           1.9537  -19.6374  -44.0542 O.2       7 UNK        -0.5000 
     37 CA          1.5681  -18.2024  -42.1720 C.3       7 UNK         0.1400 
     38 CB          2.6549  -17.1314  -41.9922 C.3       7 UNK        -0.1800 
     39 N           0.2981  -17.7018  -41.6505 N.am      7 UNK        -0.5000 
     40 C          -0.6909  -18.4850  -41.2014 C.2       6 UNK         0.5000 
     41 O          -0.6051  -19.7099  -41.1068 O.2       6 UNK        -0.5000 
     42 CA         -2.0067  -17.7844  -40.8107 C.3       6 UNK         0.1400 
     43 CB         -1.9589  -17.3248  -39.3457 C.3       6 UNK        -0.1800 
     44 N          -2.3360  -16.6398  -41.6640 N.am      6 UNK        -0.5000 
     45 C          -2.6263  -16.7275  -42.9693 C.2       5 UNK         0.5000 
     46 O          -2.6271  -17.7838  -43.6004 O.2       5 UNK        -0.5000 
     47 CA         -2.9458  -15.4109  -43.7027 C.3       5 UNK         0.1400 
     48 CB         -4.4112  -15.0220  -43.4522 C.3       5 UNK        -0.1800 
     49 N          -2.0788  -14.2682  -43.3846 N.am      5 UNK        -0.5000 
     50 C          -0.7387  -14.2612  -43.2996 C.2       4 UNK         0.5000 
     51 O          -0.0438  -15.2765  -43.3466 O.2       4 UNK        -0.5000 
     52 CA         -0.0700  -12.8821  -43.1560 C.3       4 UNK         0.1400 
     53 CB          1.4526  -12.9390  -43.3788 C.3       4 UNK        -0.1800 
     54 N          -0.6513  -11.9580  -44.1263 N.am      4 UNK        -0.5000 
     55 C          -1.3174  -10.8317  -43.8380 C.2       3 UNK         0.5000 
     56 O          -1.4861  -10.4129  -42.6925 O.2       3 UNK        -0.5000 
     57 CA         -1.9141  -10.0416  -45.0237 C.3       3 UNK         0.1400 
     58 CB         -1.0090   -8.8545  -45.3866 C.3       3 UNK        -0.1800 
     59 N          -2.1235  -10.8585  -46.2212 N.am      3 UNK        -0.5000 
     60 C          -2.9942  -11.8725  -46.3175 C.2       2 UNK         0.5000 
     61 O          -3.8102  -12.1469  -45.4385 O.2       2 UNK        -0.5000 
     62 CA         -2.9221  -12.7526  -47.5824 C.3       2 UNK         0.1400 
     63 CB         -4.1110  -12.4646  -48.5114 C.3       2 UNK        -0.1800 
     64 N          -1.6809  -12.6247  -48.3537 N.am      2 UNK        -0.5000 
     65 C          -0.4437  -12.9255  -47.9355 C.2       1 UNK         0.5000 
     66 O          -0.2005  -13.2688  -46.7778 O.2       1 UNK        -0.5000 
     67 C           2.4568  -22.3939  -48.3046 C.2       11 UNK         0.5000 
     68 O           3.1156  -23.1286  -49.0415 O.2       11 UNK        -0.5000 
     69 N           1.1696  -22.0837  -48.5132 N.am      12 UNK        -0.5000 
     70 CA          0.3271  -22.5907  -49.5954 C.3       12 UNK         0.1400 
     71 CB         -1.0059  -21.8284  -49.5806 C.3       12 UNK        -0.1800 
     72 C           0.0691  -24.1037  -49.4871 C.2       12 UNK         0.5000 
     73 O           0.0489  -24.7896  -50.5099 O.2       12 UNK        -0.5000 
     74 N          -0.1001  -24.5830  -48.2464 N.am      13 UNK        -0.5000 
     75 CA         -0.3483  -25.9671  -47.8502 C.3       13 UNK         0.1400 
     76 CB          0.8713  -26.8588  -48.1762 C.3       13 UNK        -0.1800 
     77 C          -1.6947  -26.4884  -48.3942 C.2       13 UNK         0.5000 
     78 O          -2.6847  -25.7524  -48.3560 O.2       13 UNK        -0.5000 
     79 N          -1.7236  -27.7520  -48.8446 N.am      14 UNK        -0.5000 
     80 CA         -2.9054  -28.5068  -49.2745 C.3       14 UNK         0.1400 
     81 CB         -3.4723  -27.9269  -50.5909 C.3       14 UNK        -0.1800 
     82 C          -3.9345  -28.6136  -48.1278 C.2       14 UNK         0.5000 
     83 O          -3.5439  -28.9073  -46.9959 O.2       14 UNK        -0.5000 
     84 N          -5.2120  -28.3346  -48.4095 N.am      15 UNK        -0.5000 
     85 CA         -6.2957  -28.2533  -47.4276 C.3       15 UNK         0.1400 
     86 CB         -7.6010  -28.7190  -48.0990 C.3       15 UNK        -0.1800 
     87 C          -6.4063  -26.8323  -46.8290 C.2       15 UNK         0.5000 
     88 O          -7.5130  -26.3040  -46.7103 O.2       15 UNK        -0.5000 
     89 N          -5.2527  -26.2342  -46.4902 N.am      16 UNK        -0.5000 
     90 CA         -5.0549  -24.8518  -46.0386 C.3       16 UNK         0.1400 
     91 CB         -5.6867  -24.6267  -44.6488 C.3       16 UNK        -0.1800 
     92 C          -5.5336  -23.8431  -47.1019 C.2       16 UNK         0.5000 
     93 O          -6.4527  -23.0586  -46.8555 O.2       16 UNK        -0.5000 
     94 N          -4.9217  -23.9320  -48.2900 N.am      17 UNK        -0.5000 
     95 CA         -5.2043  -23.0962  -49.4573 C.3       17 UNK         0.1400 
     96 CB         -4.3921  -23.6286  -50.6492 C.3       17 UNK        -0.1800 
     97 C          -4.9153  -21.6001  -49.2196 C.2       17 UNK         0.5000 
     98 O          -4.1062  -21.2506  -48.3587 O.2       17 UNK        -0.5000 
     99 N          -5.5831  -20.7403  -49.9982 N.am      18 UNK        -0.5000 
    100 CA        -5.3918  -19.2909  -49.9665 C.3       18 UNK         0.1400 
    101 CB        -6.5494  -18.6158  -50.7188 C.3       18 UNK        -0.1800 
    102 C         -4.0396  -18.8744  -50.5738 C.2       18 UNK         0.5000 
    103 O         -3.5233  -19.5574  -51.4609 O.2       18 UNK        -0.5000 
    104 N         -3.5293  -17.7210  -50.1243 N.am      19 UNK        -0.5000 
    105 CA        -2.2417  -17.1480  -50.5303 C.3       19 UNK         0.1400 
    106 CB        -1.9725  -15.9046  -49.6705 C.3       19 UNK        -0.1800 
    107 C         -2.1604  -16.7761  -52.0244 C.2       19 UNK         0.5000 
    108 O         -1.0675  -16.7598  -52.5883 O.2       19 UNK        -0.5000 
    109 N         -3.3137  -16.4684  -52.6322 N.am      20 UNK        -0.5000 
    110 CA        -3.4391  -16.1933  -54.0621 C.3       20 UNK         0.1400 
    111 CB        -4.6144  -15.2289  -54.2823 C.3       20 UNK        -0.1800 
    112 C         -3.6379  -17.4792  -54.8861 C.2       20 UNK         0.5000 
    113 O         -3.2045  -17.5298  -56.0377 O.2       20 UNK        -0.5000 
    114 N         -4.2845  -18.4958  -54.2945 N.am      21 UNK        -0.5000 
    115 CA        -4.6421  -19.7552  -54.9553 C.3       21 UNK         0.1400 
    116 CB        -5.6364  -20.5377  -54.0835 C.3       21 UNK        -0.1800 
    117 C         -3.4240  -20.6258  -55.3061 C.2       21 UNK         0.5000 
    118 O         -3.4539  -21.3266  -56.3185 O.2       21 UNK        -0.5000 
    119 N         -2.3690  -20.5418  -54.4876 N.am      22 UNK        -0.5000 
    120 CA        -1.0583  -21.1517  -54.7553 C.3       22 UNK         0.1400 
    121 C         -0.1910  -20.4038  -55.8145 C.2       22 UNK         0.5000 
    122 N         -0.6102  -19.2631  -56.3518 N.am      22 UNK        -0.7600 
    123 O          0.8837  -20.8792  -56.1706 O.2       22 UNK        -0.5000 
    124 C124       -0.2791  -21.4456  -53.4476 C.3       23 UNK        -0.0398 
    125 S125       -0.0213  -19.9927  -52.3718 S.3       23 UNK        -0.2404 
    126 C126        1.5597  -19.3457  -52.9893 C.3       23 UNK        -0.0205 
    127 H127       -1.7502  -13.5291  -52.6330 H         1 UNK         0.0600 
    128 H128       -0.0899  -14.1303  -52.6717 H         1 UNK         0.0600 
    129 H129       -0.4693  -12.5475  -53.3540 H         1 UNK         0.0600 
    130 H130        0.6937  -14.1248  -50.5880 H         1 UNK         0.3000 
    131 H131        0.9005  -11.7152  -49.0261 H         1 UNK         0.0600 
    132 H132        2.8501  -13.0549  -49.1213 H         1 UNK         0.0800 
    133 H133        2.2796  -13.1770  -47.4934 H         1 UNK         0.0800 
    134 H134        2.8139  -14.9238  -50.9117 H         1 UNK         0.0800 
    135 H135        4.1478  -15.1749  -49.8109 H         1 UNK         0.0800 
    136 H136        1.6659  -16.8191  -51.9641 H         1 UNK         0.1150 
    137 H137        3.3619  -20.7244  -51.5043 H         1 UNK         0.1150 
    138 H138        4.7643  -17.4809  -49.0727 H         1 UNK         0.1150 
    139 H139        4.9285  -21.1997  -49.8142 H         1 UNK         0.0800 
    140 H140        6.1475  -19.9596  -49.9380 H         1 UNK         0.0800 
    141 H141        2.8042  -19.7908  -47.9238 H         1 UNK         0.0800 
    142 H142        3.3719  -19.7632  -46.2944 H         1 UNK         0.0800 
    143 H143        4.0132  -22.3640  -46.8342 H         1 UNK         0.0600 
    144 H144        1.8773  -21.1354  -45.4338 H         1 UNK         0.3000 
    145 H145        0.3836  -24.0765  -44.1230 H         1 UNK         0.0600 
    146 H146        0.8605  -22.8854  -41.9888 H         1 UNK         0.0600 
    147 H147        2.3009  -23.6818  -42.6046 H         1 UNK         0.0600 
    148 H148        2.1236  -21.9417  -42.7753 H         1 UNK         0.0600 
    149 H149       -0.0003  -21.2040  -43.8628 H         1 UNK         0.3000 
    150 H150       -2.3954  -20.9557  -46.4793 H         1 UNK         0.0600 
    151 H151       -3.7295  -21.8521  -44.5552 H         1 UNK         0.0600 
    152 H152       -3.8552  -20.1054  -44.6815 H         1 UNK         0.0600 
    153 H153       -2.8214  -20.8254  -43.4473 H         1 UNK         0.0600 
    154 H154       -1.5384  -19.0265  -44.5966 H         1 UNK         0.3000 
    155 H155        1.4426  -18.0000  -46.3424 H         1 UNK         0.0600 
    156 H156        0.1932  -15.8238  -46.1398 H         1 UNK         0.0600 
    157 H157       -0.3299  -16.8112  -47.4936 H         1 UNK         0.0600 
    158 H158       -1.3209  -16.7257  -46.0423 H         1 UNK         0.0600 
    159 H159        0.3430  -16.9227  -44.0114 H         1 UNK         0.3000 
    160 H160        1.8699  -19.0886  -41.6093 H         1 UNK         0.0600 
    161 H161        2.4184  -16.2166  -42.5368 H         1 UNK         0.0600 
    162 H162        3.6182  -17.4902  -42.3570 H         1 UNK         0.0600 
    163 H163        2.7811  -16.8719  -40.9411 H         1 UNK         0.0600 
    164 H164        0.1154  -16.7144  -41.7815 H         1 UNK         0.3000 
    165 H165       -2.8102  -18.5173  -40.9112 H         1 UNK         0.0600 
    166 H166       -2.9157  -16.9073  -39.0316 H         1 UNK         0.0600 
    167 H167       -1.7367  -18.1609  -38.6813 H         1 UNK         0.0600 
    168 H168       -1.1918  -16.5659  -39.1865 H         1 UNK         0.0600 
    169 H169       -2.3434  -15.7294  -41.2283 H         1 UNK         0.3000 
    170 H170       -2.8343  -15.5989  -44.7708 H         1 UNK         0.0600 
    171 H171       -5.0815  -15.8542  -43.6725 H         1 UNK         0.0600 
    172 H172       -4.5787  -14.7315  -42.4145 H         1 UNK         0.0600 
    173 H173       -4.7177  -14.1910  -44.0856 H         1 UNK         0.0600 
    174 H174       -2.5446  -13.3724  -43.3499 H         1 UNK         0.3000 
    175 H175       -0.2541  -12.5446  -42.1345 H         1 UNK         0.0600 
    176 H176        1.9331  -13.5907  -42.6481 H         1 UNK         0.0600 
    177 H177        1.6975  -13.3183  -44.3721 H         1 UNK         0.0600 
    178 H178        1.9021  -11.9512  -43.2773 H         1 UNK         0.0600 
    179 H179       -0.5848  -12.2573  -45.0953 H         1 UNK         0.3000 
    180 H180       -2.8830   -9.6516  -44.7052 H         1 UNK         0.0600 
    181 H181       -0.0277   -9.1867  -45.7280 H         1 UNK         0.0600 
    182 H182       -0.8538   -8.2037  -44.5250 H         1 UNK         0.0600 
    183 H183       -1.4522   -8.2463  -46.1754 H         1 UNK         0.0600 
    184 H184       -1.4963  -10.6987  -46.9952 H         1 UNK         0.3000 
    185 H185       -2.9921  -13.7901  -47.2493 H         1 UNK         0.0600 
    186 H186       -5.0588  -12.5825  -47.9844 H         1 UNK         0.0600 
    187 H187       -4.0761  -11.4469  -48.9021 H         1 UNK         0.0600 
    188 H188       -4.1260  -13.1490  -49.3597 H         1 UNK         0.0600 
    189 H189       -1.7697  -12.2756  -49.3025 H         1 UNK         0.3000 
    190 H190        0.7289  -21.4070  -47.8914 H         1 UNK         0.3000 
    191 H191        0.8366  -22.3924  -50.5403 H         1 UNK         0.0600 
    192 H192       -1.5841  -22.0537  -48.6842 H         1 UNK         0.0600 
    193 H193       -1.6174  -22.0884  -50.4441 H         1 UNK         0.0600 
    194 H194       -0.8523  -20.7498  -49.6103 H         1 UNK         0.0600 
    195 H195       -0.1766  -23.9109  -47.4911 H         1 UNK         0.3000 
    196 H196       -0.4554  -25.9455  -46.7649 H         1 UNK         0.0600 
    197 H197        0.7764  -27.8445  -47.7197 H         1 UNK         0.0600 
    198 H198        1.7885  -26.4168  -47.7857 H         1 UNK         0.0600 
    199 H199        1.0037  -26.9972  -49.2498 H         1 UNK         0.0600 
    200 H200       -0.8639  -28.2806  -48.8086 H         1 UNK         0.3000 
    201 H201       -2.5679  -29.5240  -49.4774 H         1 UNK         0.0600 
    202 H202       -2.6949  -27.8627  -51.3523 H         1 UNK         0.0600 
    203 H203       -3.8824  -26.9256  -50.4576 H         1 UNK         0.0600 
    204 H204       -4.2613  -28.5614  -50.9962 H         1 UNK         0.0600 
    205 H205       -5.4453  -28.0614  -49.3532 H         1 UNK         0.3000 
    206 H206       -6.0918  -28.9340  -46.5984 H         1 UNK         0.0600 
    207 H207       -7.5000  -29.7284  -48.4982 H         1 UNK         0.0600 
    208 H208       -8.4256  -28.7368  -47.3853 H         1 UNK         0.0600 
    209 H209       -7.8887  -28.0607  -48.9197 H         1 UNK         0.0600 
    210 H210       -4.4021  -26.7557  -46.6574 H         1 UNK         0.3000 
    211 H211       -3.9778  -24.7071  -45.9361 H         1 UNK         0.0600 
    212 H212       -6.7711  -24.7382  -44.6681 H         1 UNK         0.0600 
    213 H213       -5.4705  -23.6230  -44.2821 H         1 UNK         0.0600 
    214 H214       -5.2905  -25.3318  -43.9183 H         1 UNK         0.0600 
    215 H215       -4.1496  -24.5891  -48.3817 H         1 UNK         0.3000 
    216 H216       -6.2665  -23.1995  -49.6876 H         1 UNK         0.0600 
    217 H217       -3.3290  -23.6870  -50.4152 H         1 UNK         0.0600 
    218 H218       -4.5026  -22.9901  -51.5269 H         1 UNK         0.0600 
    219 H219       -4.7229  -24.6278  -50.9318 H         1 UNK         0.0600 
    220 H220       -6.2082  -21.0971  -50.7050 H         1 UNK         0.3000 
    221 H221       -5.4199  -18.9656  -48.9242 H         1 UNK         0.0600 
    222 H222       -7.5115  -18.8804  -50.2798 H         1 UNK         0.0600 
    223 H223       -6.5718  -18.9019  -51.7698 H         1 UNK         0.0600 
    224 H224       -6.4652  -17.5291  -50.6771 H         1 UNK         0.0600 
    225 H225       -4.0333  -17.2144  -49.4113 H         1 UNK         0.3000 
    226 H226       -1.4687  -17.8919  -50.3242 H         1 UNK         0.0600 
    227 H227       -2.1780  -16.0887  -48.6169 H         1 UNK         0.0600 
    228 H228       -0.9281  -15.6065  -49.7517 H         1 UNK         0.0600 
    229 H229       -2.5847  -15.0568  -49.9802 H         1 UNK         0.0600 
    230 H230       -4.1616  -16.4683  -52.0857 H         1 UNK         0.3000 
    231 H231       -2.5313  -15.7032  -54.4211 H         1 UNK         0.0600 
    232 H232       -5.5583  -15.6567  -53.9422 H         1 UNK         0.0600 
    233 H233       -4.7261  -14.9853  -55.3397 H         1 UNK         0.0600 
    234 H234       -4.4586  -14.2910  -53.7487 H         1 UNK         0.0600 
    235 H235       -4.5233  -18.4178  -53.3177 H         1 UNK         0.3000 
    236 H236       -5.1435  -19.5068  -55.8932 H         1 UNK         0.0600 
    237 H237       -6.5483  -19.9653  -53.9156 H         1 UNK         0.0600 
    238 H238       -5.9278  -21.4705  -54.5680 H         1 UNK         0.0600 
    239 H239       -5.2102  -20.7951  -53.1139 H         1 UNK         0.0600 
    240 H240       -2.4316  -19.9604  -53.6612 H         1 UNK         0.3000 
    241 H241       -1.2517  -22.1263  -55.2076 H         1 UNK         0.0600 
    242 H242       -0.0345  -18.8050  -57.0400 H         1 UNK         0.3800 
    243 H243       -1.5009  -18.8560  -56.0986 H         1 UNK         0.3800 
    244 H244        0.6757  -21.9301  -53.6574 H         1 UNK         0.0800 
    245 H245       -0.8415  -22.1753  -52.8637 H         1 UNK         0.0800 
    246 H246        2.1042  -20.1165  -53.5362 H         1 UNK         0.0800 
    247 H247        1.3571  -18.5495  -53.7076 H         1 UNK         0.0800 
@<TRIPOS>BOND
     1    1    2 1    
     2    1  127 1    
     3    1  128 1    
     4    1  129 1    
     5    2    3 2    
     6    2    4 am   BACKBONE|DICT|INTERRES
     7    4    5 1    
     8    4  130 1    
     9    5    6 1    
    10    5   65 1    
    11    5  131 1    
    12    6    7 1    
    13    6  132 1    
    14    6  133 1    
    15    7    8 1    
    16    8    9 1    
    17    8  134 1    
    18    8  135 1    
    19    9   10 ar   
    20    9   14 ar   
    21   10   11 ar   
    22   10  136 1    
    23   11   12 ar   
    24   11  126 1    
    25   12   13 ar   
    26   12  137 1    
    27   13   14 ar   
    28   13   15 1    
    29   14  138 1    
    30   15   16 1    
    31   15  139 1    
    32   15  140 1    
    33   16   17 1    
    34   17   18 1    
    35   17  141 1    
    36   17  142 1    
    37   18   19 1    
    38   18   67 1    
    39   18  143 1    
    40   19   20 am   BACKBONE|DICT|INTERRES
    41   19  144 1    
    42   20   21 2    
    43   20   22 1    
    44   22   23 1    
    45   22   24 1    
    46   22  145 1    
    47   23  146 1    
    48   23  147 1    
    49   23  148 1    
    50   24   25 am   BACKBONE|DICT|INTERRES
    51   24  149 1    
    52   25   26 2    
    53   25   27 1    
    54   27   28 1    
    55   27   29 1    
    56   27  150 1    
    57   28  151 1    
    58   28  152 1    
    59   28  153 1    
    60   29   30 am   BACKBONE|DICT|INTERRES
    61   29  154 1    
    62   30   31 2    
    63   30   32 1    
    64   32   33 1    
    65   32   34 1    
    66   32  155 1    
    67   33  156 1    
    68   33  157 1    
    69   33  158 1    
    70   34   35 am   BACKBONE|DICT|INTERRES
    71   34  159 1    
    72   35   36 2    
    73   35   37 1    
    74   37   38 1    
    75   37   39 1    
    76   37  160 1    
    77   38  161 1    
    78   38  162 1    
    79   38  163 1    
    80   39   40 am   BACKBONE|DICT|INTERRES
    81   39  164 1    
    82   40   41 2    
    83   40   42 1    
    84   42   43 1    
    85   42   44 1    
    86   42  165 1    
    87   43  166 1    
    88   43  167 1    
    89   43  168 1    
    90   44   45 am   BACKBONE|DICT|INTERRES
    91   44  169 1    
    92   45   46 2    
    93   45   47 1    
    94   47   48 1    
    95   47   49 1    
    96   47  170 1    
    97   48  171 1    
    98   48  172 1    
    99   48  173 1    
   100   49   50 am   BACKBONE|DICT|INTERRES
   101   49  174 1    
   102   50   51 2    
   103   50   52 1    
   104   52   53 1    
   105   52   54 1    
   106   52  175 1    
   107   53  176 1    
   108   53  177 1    
   109   53  178 1    
   110   54   55 am   BACKBONE|DICT|INTERRES
   111   54  179 1    
   112   55   56 2    
   113   55   57 1    
   114   57   58 1    
   115   57   59 1    
   116   57  180 1    
   117   58  181 1    
   118   58  182 1    
   119   58  183 1    
   120   59   60 am   BACKBONE|DICT|INTERRES
   121   59  184 1    
   122   60   61 2    
   123   60   62 1    
   124   62   63 1    
   125   62   64 1    
   126   62  185 1    
   127   63  186 1    
   128   63  187 1    
   129   63  188 1    
   130   64   65 am   BACKBONE|DICT|INTERRES
   131   64  189 1    
   132   65   66 2    
   133   67   68 2    
   134   67   69 am   BACKBONE|DICT|INTERRES
   135   69   70 1    
   136   69  190 1    
   137   70   71 1    
   138   70   72 1    
   139   70  191 1    
   140   71  192 1    
   141   71  193 1    
   142   71  194 1    
   143   72   73 2    
   144   72   74 am   BACKBONE|DICT|INTERRES
   145   74   75 1    
   146   74  195 1    
   147   75   76 1    
   148   75   77 1    
   149   75  196 1    
   150   76  197 1    
   151   76  198 1    
   152   76  199 1    
   153   77   78 2    
   154   77   79 am   BACKBONE|DICT|INTERRES
   155   79   80 1    
   156   79  200 1    
   157   80   81 1    
   158   80   82 1    
   159   80  201 1    
   160   81  202 1    
   161   81  203 1    
   162   81  204 1    
   163   82   83 2    
   164   82   84 am   BACKBONE|DICT|INTERRES
   165   84   85 1    
   166   84  205 1    
   167   85   86 1    
   168   85   87 1    
   169   85  206 1    
   170   86  207 1    
   171   86  208 1    
   172   86  209 1    
   173   87   88 2    
   174   87   89 am   BACKBONE|DICT|INTERRES
   175   89   90 1    
   176   89  210 1    
   177   90   91 1    
   178   90   92 1    
   179   90  211 1    
   180   91  212 1    
   181   91  213 1    
   182   91  214 1    
   183   92   93 2    
   184   92   94 am   BACKBONE|DICT|INTERRES
   185   94   95 1    
   186   94  215 1    
   187   95   96 1    
   188   95   97 1    
   189   95  216 1    
   190   96  217 1    
   191   96  218 1    
   192   96  219 1    
   193   97   98 2    
   194   97   99 am   BACKBONE|DICT|INTERRES
   195   99  100 1    
   196   99  220 1    
   197  100  101 1    
   198  100  102 1    
   199  100  221 1    
   200  101  222 1    
   201  101  223 1    
   202  101  224 1    
   203  102  103 2    
   204  102  104 am   BACKBONE|DICT|INTERRES
   205  104  105 1    
   206  104  225 1    
   207  105  106 1    
   208  105  107 1    
   209  105  226 1    
   210  106  227 1    
   211  106  228 1    
   212  106  229 1    
   213  107  108 2    
   214  107  109 am   BACKBONE|DICT|INTERRES
   215  109  110 1    
   216  109  230 1    
   217  110  111 1    
   218  110  112 1    
   219  110  231 1    
   220  111  232 1    
   221  111  233 1    
   222  111  234 1    
   223  112  113 2    
   224  112  114 am   BACKBONE|DICT|INTERRES
   225  114  115 1    
   226  114  235 1    
   227  115  116 1    
   228  115  117 1    
   229  115  236 1    
   230  116  237 1    
   231  116  238 1    
   232  116  239 1    
   233  117  118 2    
   234  117  119 am   BACKBONE|DICT|INTERRES
   235  119  120 1    
   236  119  240 1    
   237  120  121 1    
   238  120  124 1    
   239  120  241 1    
   240  121  122 am   BACKBONE|DICT|INTERRES
   241  121  123 2    
   242  122  242 1    
   243  122  243 1    
   244  124  125 1    
   245  124  244 1    
   246  124  245 1    
   247  125  126 1    
   248  126  246 1    
   249  126  247 1    
@<TRIPOS>SUBSTRUCTURE
     1 UNK         1 GROUP             0       ****    0 ROOT    
