@<TRIPOS>MOLECULE
3R540
247   249    1
SMALL
USER_CHARGES


@<TRIPOS>ATOM
      1 CA          6.1936  -10.7066  -48.9960 C.3       0 UNK        -0.1800 
      2 C           5.3725  -11.5429  -48.0258 C.2       0 UNK         0.5000 
      3 O           5.2758  -11.1977  -46.8484 O.2       0 UNK        -0.5000 
      4 N           4.7640  -12.6313  -48.5163 N.am      1 UNK        -0.5000 
      5 CA          3.9398  -13.5732  -47.7433 C.3       1 UNK         0.1400 
      6 C6          3.5650  -14.8333  -48.5631 C.3       23 UNK        -0.0398 
      7 S7          2.7093  -14.4602  -50.1345 S.3       23 UNK        -0.2404 
      8 C8          3.1957  -15.8851  -51.1562 C.3       23 UNK        -0.0205 
      9 C9          2.4967  -17.1630  -50.7169 C.ar      23 UNK        -0.0193 
     10 C10         1.1382  -17.3379  -50.9840 C.ar      23 UNK        -0.1150 
     11 C11         0.4842  -18.5104  -50.6019 C.ar      23 UNK        -0.0193 
     12 C12         1.2050  -19.5235  -49.9623 C.ar      23 UNK        -0.1150 
     13 C13         2.5752  -19.3738  -49.6996 C.ar      23 UNK        -0.0193 
     14 C14         3.2053  -18.1807  -50.0722 C.ar      23 UNK        -0.1150 
     15 C15         3.4350  -20.4600  -49.0431 C.3       23 UNK        -0.0205 
     16 S16         2.6255  -22.0659  -48.7130 S.3       23 UNK        -0.2404 
     17 C17         1.6794  -21.6446  -47.2130 C.3       23 UNK        -0.0398 
     18 CA          0.6518  -22.7086  -46.7584 C.3       11 UNK         0.1400 
     19 N           0.0105  -22.2976  -45.5085 N.am      11 UNK        -0.5000 
     20 C          -0.8252  -23.0394  -44.7707 C.2       10 UNK         0.5000 
     21 O          -1.1066  -24.2097  -45.0226 O.2       10 UNK        -0.5000 
     22 CA         -1.5050  -22.3318  -43.5840 C.3       10 UNK         0.1400 
     23 CB         -0.5647  -22.2617  -42.3720 C.3       10 UNK        -0.1800 
     24 N          -1.9691  -20.9873  -43.9355 N.am      10 UNK        -0.5000 
     25 C          -2.9296  -20.7409  -44.8388 C.2       9 UNK         0.5000 
     26 O          -3.5707  -21.6277  -45.4030 O.2       9 UNK        -0.5000 
     27 CA         -3.1963  -19.2680  -45.2020 C.3       9 UNK         0.1400 
     28 CB         -4.1376  -18.6160  -44.1791 C.3       9 UNK        -0.1800 
     29 N          -1.9716  -18.4750  -45.3202 N.am      9 UNK        -0.5000 
     30 C          -1.0253  -18.6746  -46.2489 C.2       8 UNK         0.5000 
     31 O          -1.1000  -19.5386  -47.1193 O.2       8 UNK        -0.5000 
     32 CA          0.2564  -17.8257  -46.1378 C.3       8 UNK         0.1400 
     33 CB          0.0469  -16.4169  -46.7113 C.3       8 UNK        -0.1800 
     34 N           0.7391  -17.7401  -44.7575 N.am      8 UNK        -0.5000 
     35 C           1.1424  -18.7942  -44.0326 C.2       7 UNK         0.5000 
     36 O           1.2253  -19.9372  -44.4786 O.2       7 UNK        -0.5000 
     37 CA          1.4491  -18.5466  -42.5472 C.3       7 UNK         0.1400 
     38 CB          2.8991  -18.0780  -42.3522 C.3       7 UNK        -0.1800 
     39 N           0.5225  -17.5768  -41.9649 N.am      7 UNK        -0.5000 
     40 C          -0.7562  -17.8457  -41.6650 C.2       6 UNK         0.5000 
     41 O          -1.2687  -18.9561  -41.8057 O.2       6 UNK        -0.5000 
     42 CA         -1.6159  -16.6708  -41.1589 C.3       6 UNK         0.1400 
     43 CB         -1.4435  -16.4885  -39.6437 C.3       6 UNK        -0.1800 
     44 N          -1.3099  -15.4094  -41.8366 N.am      6 UNK        -0.5000 
     45 C          -1.5519  -15.1728  -43.1335 C.2       5 UNK         0.5000 
     46 O          -2.1146  -15.9763  -43.8752 O.2       5 UNK        -0.5000 
     47 CA         -1.0378  -13.8408  -43.7154 C.3       5 UNK         0.1400 
     48 CB         -2.1187  -12.7550  -43.6142 C.3       5 UNK        -0.1800 
     49 N           0.2029  -13.3426  -43.1126 N.am      5 UNK        -0.5000 
     50 C           1.3563  -14.0212  -43.0323 C.2       4 UNK         0.5000 
     51 O           1.4786  -15.1976  -43.3751 O.2       4 UNK        -0.5000 
     52 CA          2.5670  -13.2315  -42.5142 C.3       4 UNK         0.1400 
     53 CB          3.8620  -14.0634  -42.4860 C.3       4 UNK        -0.1800 
     54 N           2.7572  -12.0785  -43.3859 N.am      4 UNK        -0.5000 
     55 C           2.9075  -10.8085  -42.9905 C.2       3 UNK         0.5000 
     56 O           2.9397  -10.4630  -41.8088 O.2       3 UNK        -0.5000 
     57 CA          3.0399   -9.7351  -44.0918 C.3       3 UNK         0.1400 
     58 CB          4.4884   -9.2304  -44.1793 C.3       3 UNK        -0.1800 
     59 N           2.6179  -10.2087  -45.4126 N.am      3 UNK        -0.5000 
     60 C           1.3403  -10.3938  -45.7794 C.2       2 UNK         0.5000 
     61 O           0.3815  -10.1110  -45.0606 O.2       2 UNK        -0.5000 
     62 CA          1.0815  -11.0265  -47.1632 C.3       2 UNK         0.1400 
     63 CB          0.7331   -9.9419  -48.1934 C.3       2 UNK        -0.1800 
     64 N           2.1990  -11.8237  -47.6751 N.am      2 UNK        -0.5000 
     65 C           2.6947  -12.9268  -47.0957 C.2       1 UNK         0.5000 
     66 O           2.2395  -13.4057  -46.0592 O.2       1 UNK        -0.5000 
     67 C          -0.3938  -23.0511  -47.8432 C.2       11 UNK         0.5000 
     68 O          -0.2931  -24.1096  -48.4633 O.2       11 UNK        -0.5000 
     69 N          -1.4102  -22.1924  -48.0077 N.am      12 UNK        -0.5000 
     70 CA         -2.5482  -22.4013  -48.9040 C.3       12 UNK         0.1400 
     71 CB         -3.4698  -21.1763  -48.8711 C.3       12 UNK        -0.1800 
     72 C          -3.3399  -23.6783  -48.5818 C.2       12 UNK         0.5000 
     73 O          -3.6657  -24.4316  -49.4965 O.2       12 UNK        -0.5000 
     74 N          -3.6002  -23.9222  -47.2910 N.am      13 UNK        -0.5000 
     75 CA         -4.2684  -25.1282  -46.8055 C.3       13 UNK         0.1400 
     76 CB         -4.6416  -24.9450  -45.3264 C.3       13 UNK        -0.1800 
     77 C          -3.4278  -26.4042  -47.0075 C.2       13 UNK         0.5000 
     78 O          -3.9716  -27.4267  -47.4264 O.2       13 UNK        -0.5000 
     79 N          -2.1266  -26.3261  -46.6999 N.am      14 UNK        -0.5000 
     80 CA         -1.1969  -27.4530  -46.7471 C.3       14 UNK         0.1400 
     81 CB          0.0478  -27.1215  -45.9085 C.3       14 UNK        -0.1800 
     82 C          -0.7908  -27.8561  -48.1751 C.2       14 UNK         0.5000 
     83 O          -0.8423  -29.0413  -48.5067 O.2       14 UNK        -0.5000 
     84 N          -0.3631  -26.8765  -48.9812 N.am      15 UNK        -0.5000 
     85 CA          0.2477  -27.0977  -50.2945 C.3       15 UNK         0.1400 
     86 CB          1.4217  -26.1163  -50.4586 C.3       15 UNK        -0.1800 
     87 C          -0.7413  -26.9426  -51.4630 C.2       15 UNK         0.5000 
     88 O          -0.3517  -27.1952  -52.6036 O.2       15 UNK        -0.5000 
     89 N          -1.9761  -26.5000  -51.1779 N.am      16 UNK        -0.5000 
     90 CA         -3.0257  -26.1287  -52.1393 C.3       16 UNK         0.1400 
     91 CB         -3.4517  -27.3305  -53.0094 C.3       16 UNK        -0.1800 
     92 C          -2.6613  -24.8811  -52.9762 C.2       16 UNK         0.5000 
     93 O          -3.2048  -24.6943  -54.0670 O.2       16 UNK        -0.5000 
     94 N          -1.7461  -24.0472  -52.4579 N.am      17 UNK        -0.5000 
     95 CA         -1.2578  -22.8227  -53.0895 C.3       17 UNK         0.1400 
     96 CB         -0.1005  -22.2413  -52.2594 C.3       17 UNK        -0.1800 
     97 C          -2.3937  -21.8016  -53.2799 C.2       17 UNK         0.5000 
     98 O          -2.9804  -21.3567  -52.2942 O.2       17 UNK        -0.5000 
     99 N          -2.6916  -21.4926  -54.5496 N.am      18 UNK        -0.5000 
    100 CA        -3.7938  -20.6506  -55.0337 C.3       18 UNK         0.1400 
    101 CB        -3.7117  -19.2258  -54.4524 C.3       18 UNK        -0.1800 
    102 C         -5.1968  -21.2770  -54.8576 C.2       18 UNK         0.5000 
    103 O         -6.1945  -20.5721  -55.0226 O.2       18 UNK        -0.5000 
    104 N         -5.2574  -22.5891  -54.5800 N.am      19 UNK        -0.5000 
    105 CA        -6.4580  -23.4153  -54.4348 C.3       19 UNK         0.1400 
    106 CB        -7.1083  -23.6558  -55.8158 C.3       19 UNK        -0.1800 
    107 C         -7.4330  -22.8673  -53.3703 C.2       19 UNK         0.5000 
    108 O         -7.1622  -23.0080  -52.1775 O.2       19 UNK        -0.5000 
    109 N         -8.5514  -22.2788  -53.8150 N.am      20 UNK        -0.5000 
    110 CA        -9.5919  -21.6997  -52.9647 C.3       20 UNK         0.1400 
    111 CB       -10.9029  -21.6396  -53.7648 C.3       20 UNK        -0.1800 
    112 C         -9.2340  -20.3046  -52.4146 C.2       20 UNK         0.5000 
    113 O         -9.8299  -19.8850  -51.4209 O.2       20 UNK        -0.5000 
    114 N         -8.2927  -19.6046  -53.0617 N.am      21 UNK        -0.5000 
    115 CA        -7.7664  -18.3145  -52.6149 C.3       21 UNK         0.1400 
    116 CB        -7.3273  -17.5091  -53.8498 C.3       21 UNK        -0.1800 
    117 C         -6.6046  -18.5104  -51.6210 C.2       21 UNK         0.5000 
    118 O         -6.2218  -19.6458  -51.3307 O.2       21 UNK        -0.5000 
    119 N         -6.0635  -17.3973  -51.1061 N.am      22 UNK        -0.5000 
    120 CA        -4.9056  -17.3162  -50.1909 C.3       22 UNK         0.1400 
    121 C         -5.1743  -17.8362  -48.7454 C.2       22 UNK         0.5000 
    122 N         -5.9531  -18.8932  -48.5608 N.am      22 UNK        -0.7600 
    123 O         -4.7140  -17.2388  -47.7775 O.2       22 UNK        -0.5000 
    124 C124       -3.6374  -17.9437  -50.8305 C.3       23 UNK        -0.0398 
    125 S125       -2.0526  -17.5101  -50.0468 S.3       23 UNK        -0.2404 
    126 C126       -0.9886  -18.6965  -50.9285 C.3       23 UNK        -0.0205 
    127 H127        5.7996   -9.6914  -49.0418 H         1 UNK         0.0600 
    128 H128        6.1794  -11.1235  -50.0033 H         1 UNK         0.0600 
    129 H129        7.2301  -10.6566  -48.6626 H         1 UNK         0.0600 
    130 H130        4.8603  -12.8511  -49.4979 H         1 UNK         0.3000 
    131 H131        4.5612  -13.9104  -46.9108 H         1 UNK         0.0600 
    132 H132        4.4756  -15.3911  -48.7851 H         1 UNK         0.0800 
    133 H133        2.9438  -15.5126  -47.9765 H         1 UNK         0.0800 
    134 H134        2.9337  -15.6764  -52.1944 H         1 UNK         0.0800 
    135 H135        4.2802  -16.0028  -51.1360 H         1 UNK         0.0800 
    136 H136        0.5863  -16.5569  -51.4884 H         1 UNK         0.1150 
    137 H137        0.6874  -20.4301  -49.6884 H         1 UNK         0.1150 
    138 H138        4.2605  -18.0517  -49.8752 H         1 UNK         0.1150 
    139 H139        4.2889  -20.6550  -49.6933 H         1 UNK         0.0800 
    140 H140        3.8458  -20.0722  -48.1097 H         1 UNK         0.0800 
    141 H141        1.1869  -20.6863  -47.3670 H         1 UNK         0.0800 
    142 H142        2.4017  -21.4783  -46.4126 H         1 UNK         0.0800 
    143 H143        1.2011  -23.6277  -46.5442 H         1 UNK         0.0600 
    144 H144        0.2246  -21.3558  -45.1903 H         1 UNK         0.3000 
    145 H145       -2.3778  -22.9234  -43.3002 H         1 UNK         0.0600 
    146 H146       -1.0601  -21.8058  -41.5146 H         1 UNK         0.0600 
    147 H147       -0.2443  -23.2596  -42.0705 H         1 UNK         0.0600 
    148 H148        0.3320  -21.6815  -42.5880 H         1 UNK         0.0600 
    149 H149       -1.5251  -20.2083  -43.4626 H         1 UNK         0.3000 
    150 H150       -3.6919  -19.2553  -46.1744 H         1 UNK         0.0600 
    151 H151       -5.0634  -19.1842  -44.0820 H         1 UNK         0.0600 
    152 H152       -4.4073  -17.6049  -44.4851 H         1 UNK         0.0600 
    153 H153       -3.6807  -18.5567  -43.1909 H         1 UNK         0.0600 
    154 H154       -1.8679  -17.6994  -44.6721 H         1 UNK         0.3000 
    155 H155        1.0353  -18.3122  -46.7286 H         1 UNK         0.0600 
    156 H156       -0.1481  -16.4638  -47.7834 H         1 UNK         0.0600 
    157 H157        0.9291  -15.7940  -46.5672 H         1 UNK         0.0600 
    158 H158       -0.7998  -15.9119  -46.2479 H         1 UNK         0.0600 
    159 H159        0.7516  -16.8231  -44.3224 H         1 UNK         0.3000 
    160 H160        1.3318  -19.4937  -42.0166 H         1 UNK         0.0600 
    161 H161        3.1142  -17.1682  -42.9122 H         1 UNK         0.0600 
    162 H162        3.5994  -18.8408  -42.6943 H         1 UNK         0.0600 
    163 H163        3.1152  -17.8856  -41.3013 H         1 UNK         0.0600 
    164 H164        0.8442  -16.6182  -41.9286 H         1 UNK         0.3000 
    165 H165       -2.6617  -16.9166  -41.3555 H         1 UNK         0.0600 
    166 H166       -2.1058  -15.7112  -39.2622 H         1 UNK         0.0600 
    167 H167       -1.6838  -17.4093  -39.1106 H         1 UNK         0.0600 
    168 H168       -0.4199  -16.2160  -39.3836 H         1 UNK         0.0600 
    169 H169       -0.8415  -14.6974  -41.2960 H         1 UNK         0.3000 
    170 H170       -0.8285  -14.0097  -44.7732 H         1 UNK         0.0600 
    171 H171       -3.0490  -13.0846  -44.0790 H         1 UNK         0.0600 
    172 H172       -2.3402  -12.5036  -42.5763 H         1 UNK         0.0600 
    173 H173       -1.8090  -11.8418  -44.1232 H         1 UNK         0.0600 
    174 H174        0.2017  -12.3732  -42.8296 H         1 UNK         0.3000 
    175 H175        2.3335  -12.9167  -41.4952 H         1 UNK         0.0600 
    176 H176        4.1250  -14.4305  -43.4792 H         1 UNK         0.0600 
    177 H177        4.7000  -13.4736  -42.1147 H         1 UNK         0.0600 
    178 H178        3.7570  -14.9282  -41.8301 H         1 UNK         0.0600 
    179 H179        2.6853  -12.2801  -44.3780 H         1 UNK         0.3000 
    180 H180        2.4049   -8.8933  -43.8078 H         1 UNK         0.0600 
    181 H181        5.1823  -10.0388  -44.4119 H         1 UNK         0.0600 
    182 H182        4.8058   -8.7901  -43.2333 H         1 UNK         0.0600 
    183 H183        4.5956   -8.4637  -44.9468 H         1 UNK         0.0600 
    184 H184        3.3580  -10.4864  -46.0473 H         1 UNK         0.3000 
    185 H185        0.2215  -11.6914  -47.0593 H         1 UNK         0.0600 
    186 H186       -0.1165   -9.3443  -47.8603 H         1 UNK         0.0600 
    187 H187        1.5692   -9.2610  -48.3582 H         1 UNK         0.0600 
    188 H188        0.4623  -10.3815  -49.1536 H         1 UNK         0.0600 
    189 H189        2.6400  -11.4961  -48.5220 H         1 UNK         0.3000 
    190 H190       -1.3934  -21.3100  -47.4999 H         1 UNK         0.3000 
    191 H191       -2.1559  -22.5018  -49.9150 H         1 UNK         0.0600 
    192 H192       -2.9101  -20.2556  -49.0215 H         1 UNK         0.0600 
    193 H193       -4.2207  -21.2366  -49.6601 H         1 UNK         0.0600 
    194 H194       -3.9988  -21.0865  -47.9236 H         1 UNK         0.0600 
    195 H195       -3.3385  -23.2273  -46.5984 H         1 UNK         0.3000 
    196 H196       -5.1938  -25.2483  -47.3727 H         1 UNK         0.0600 
    197 H197       -5.1676  -25.8209  -44.9448 H         1 UNK         0.0600 
    198 H198       -5.2977  -24.0852  -45.1899 H         1 UNK         0.0600 
    199 H199       -3.7603  -24.7931  -44.7028 H         1 UNK         0.0600 
    200 H200       -1.7664  -25.4567  -46.3148 H         1 UNK         0.3000 
    201 H201       -1.6850  -28.3150  -46.2871 H         1 UNK         0.0600 
    202 H202       -0.2177  -26.9377  -44.8673 H         1 UNK         0.0600 
    203 H203        0.5616  -26.2349  -46.2824 H         1 UNK         0.0600 
    204 H204        0.7613  -27.9464  -45.9213 H         1 UNK         0.0600 
    205 H205       -0.3713  -25.9124  -48.6498 H         1 UNK         0.3000 
    206 H206        0.6537  -28.1100  -50.3479 H         1 UNK         0.0600 
    207 H207        2.1262  -26.1996  -49.6310 H         1 UNK         0.0600 
    208 H208        1.9753  -26.3180  -51.3764 H         1 UNK         0.0600 
    209 H209        1.0819  -25.0812  -50.5056 H         1 UNK         0.0600 
    210 H210       -2.1932  -26.3068  -50.2089 H         1 UNK         0.3000 
    211 H211       -3.9001  -25.8508  -51.5524 H         1 UNK         0.0600 
    212 H212       -2.6799  -27.6123  -53.7257 H         1 UNK         0.0600 
    213 H213       -4.3509  -27.0966  -53.5805 H         1 UNK         0.0600 
    214 H214       -3.6769  -28.2024  -52.3954 H         1 UNK         0.0600 
    215 H215       -1.3795  -24.2621  -51.5431 H         1 UNK         0.3000 
    216 H216       -0.8587  -23.0955  -54.0686 H         1 UNK         0.0600 
    217 H217        0.2824  -21.3255  -52.7117 H         1 UNK         0.0600 
    218 H218        0.7309  -22.9434  -52.1951 H         1 UNK         0.0600 
    219 H219       -0.4058  -21.9973  -51.2432 H         1 UNK         0.0600 
    220 H220       -2.1544  -21.9410  -55.2791 H         1 UNK         0.3000 
    221 H221       -3.6415  -20.5675  -56.1106 H         1 UNK         0.0600 
    222 H222       -4.0815  -19.2000  -53.4286 H         1 UNK         0.0600 
    223 H223       -2.6901  -18.8460  -54.4567 H         1 UNK         0.0600 
    224 H224       -4.3174  -18.5333  -55.0365 H         1 UNK         0.0600 
    225 H225       -4.3843  -23.0876  -54.4421 H         1 UNK         0.3000 
    226 H226       -6.1183  -24.3833  -54.0633 H         1 UNK         0.0600 
    227 H227       -6.4144  -24.1643  -56.4853 H         1 UNK         0.0600 
    228 H228       -7.9915  -24.2903  -55.7300 H         1 UNK         0.0600 
    229 H229       -7.4093  -22.7272  -56.3016 H         1 UNK         0.0600 
    230 H230       -8.6789  -22.1863  -54.8123 H         1 UNK         0.3000 
    231 H231       -9.7485  -22.3584  -52.1078 H         1 UNK         0.0600 
    232 H232      -10.8092  -20.9995  -54.6430 H         1 UNK         0.0600 
    233 H233      -11.7156  -21.2430  -53.1548 H         1 UNK         0.0600 
    234 H234      -11.2058  -22.6312  -54.1016 H         1 UNK         0.0600 
    235 H235       -7.7797  -20.0546  -53.8129 H         1 UNK         0.3000 
    236 H236       -8.5533  -17.7549  -52.1051 H         1 UNK         0.0600 
    237 H237       -8.1496  -17.3955  -54.5565 H         1 UNK         0.0600 
    238 H238       -6.9985  -16.5059  -53.5773 H         1 UNK         0.0600 
    239 H239       -6.5045  -17.9924  -54.3741 H         1 UNK         0.0600 
    240 H240       -6.4672  -16.5073  -51.3606 H         1 UNK         0.3000 
    241 H241       -4.7124  -16.2474  -50.0885 H         1 UNK         0.0600 
    242 H242       -6.1595  -19.2176  -47.6310 H         1 UNK         0.3800 
    243 H243       -6.2843  -19.4011  -49.3738 H         1 UNK         0.3800 
    244 H244       -3.7269  -19.0295  -50.8744 H         1 UNK         0.0800 
    245 H245       -3.5620  -17.6072  -51.8645 H         1 UNK         0.0800 
    246 H246       -1.1290  -18.5811  -52.0043 H         1 UNK         0.0800 
    247 H247       -1.3092  -19.7101  -50.6849 H         1 UNK         0.0800 
@<TRIPOS>BOND
     1    1    2 1    
     2    1  127 1    
     3    1  128 1    
     4    1  129 1    
     5    2    3 2    
     6    2    4 am   BACKBONE|DICT|INTERRES
     7    4    5 1    
     8    4  130 1    
     9    5    6 1    
    10    5   65 1    
    11    5  131 1    
    12    6    7 1    
    13    6  132 1    
    14    6  133 1    
    15    7    8 1    
    16    8    9 1    
    17    8  134 1    
    18    8  135 1    
    19    9   10 ar   
    20    9   14 ar   
    21   10   11 ar   
    22   10  136 1    
    23   11   12 ar   
    24   11  126 1    
    25   12   13 ar   
    26   12  137 1    
    27   13   14 ar   
    28   13   15 1    
    29   14  138 1    
    30   15   16 1    
    31   15  139 1    
    32   15  140 1    
    33   16   17 1    
    34   17   18 1    
    35   17  141 1    
    36   17  142 1    
    37   18   19 1    
    38   18   67 1    
    39   18  143 1    
    40   19   20 am   BACKBONE|DICT|INTERRES
    41   19  144 1    
    42   20   21 2    
    43   20   22 1    
    44   22   23 1    
    45   22   24 1    
    46   22  145 1    
    47   23  146 1    
    48   23  147 1    
    49   23  148 1    
    50   24   25 am   BACKBONE|DICT|INTERRES
    51   24  149 1    
    52   25   26 2    
    53   25   27 1    
    54   27   28 1    
    55   27   29 1    
    56   27  150 1    
    57   28  151 1    
    58   28  152 1    
    59   28  153 1    
    60   29   30 am   BACKBONE|DICT|INTERRES
    61   29  154 1    
    62   30   31 2    
    63   30   32 1    
    64   32   33 1    
    65   32   34 1    
    66   32  155 1    
    67   33  156 1    
    68   33  157 1    
    69   33  158 1    
    70   34   35 am   BACKBONE|DICT|INTERRES
    71   34  159 1    
    72   35   36 2    
    73   35   37 1    
    74   37   38 1    
    75   37   39 1    
    76   37  160 1    
    77   38  161 1    
    78   38  162 1    
    79   38  163 1    
    80   39   40 am   BACKBONE|DICT|INTERRES
    81   39  164 1    
    82   40   41 2    
    83   40   42 1    
    84   42   43 1    
    85   42   44 1    
    86   42  165 1    
    87   43  166 1    
    88   43  167 1    
    89   43  168 1    
    90   44   45 am   BACKBONE|DICT|INTERRES
    91   44  169 1    
    92   45   46 2    
    93   45   47 1    
    94   47   48 1    
    95   47   49 1    
    96   47  170 1    
    97   48  171 1    
    98   48  172 1    
    99   48  173 1    
   100   49   50 am   BACKBONE|DICT|INTERRES
   101   49  174 1    
   102   50   51 2    
   103   50   52 1    
   104   52   53 1    
   105   52   54 1    
   106   52  175 1    
   107   53  176 1    
   108   53  177 1    
   109   53  178 1    
   110   54   55 am   BACKBONE|DICT|INTERRES
   111   54  179 1    
   112   55   56 2    
   113   55   57 1    
   114   57   58 1    
   115   57   59 1    
   116   57  180 1    
   117   58  181 1    
   118   58  182 1    
   119   58  183 1    
   120   59   60 am   BACKBONE|DICT|INTERRES
   121   59  184 1    
   122   60   61 2    
   123   60   62 1    
   124   62   63 1    
   125   62   64 1    
   126   62  185 1    
   127   63  186 1    
   128   63  187 1    
   129   63  188 1    
   130   64   65 am   BACKBONE|DICT|INTERRES
   131   64  189 1    
   132   65   66 2    
   133   67   68 2    
   134   67   69 am   BACKBONE|DICT|INTERRES
   135   69   70 1    
   136   69  190 1    
   137   70   71 1    
   138   70   72 1    
   139   70  191 1    
   140   71  192 1    
   141   71  193 1    
   142   71  194 1    
   143   72   73 2    
   144   72   74 am   BACKBONE|DICT|INTERRES
   145   74   75 1    
   146   74  195 1    
   147   75   76 1    
   148   75   77 1    
   149   75  196 1    
   150   76  197 1    
   151   76  198 1    
   152   76  199 1    
   153   77   78 2    
   154   77   79 am   BACKBONE|DICT|INTERRES
   155   79   80 1    
   156   79  200 1    
   157   80   81 1    
   158   80   82 1    
   159   80  201 1    
   160   81  202 1    
   161   81  203 1    
   162   81  204 1    
   163   82   83 2    
   164   82   84 am   BACKBONE|DICT|INTERRES
   165   84   85 1    
   166   84  205 1    
   167   85   86 1    
   168   85   87 1    
   169   85  206 1    
   170   86  207 1    
   171   86  208 1    
   172   86  209 1    
   173   87   88 2    
   174   87   89 am   BACKBONE|DICT|INTERRES
   175   89   90 1    
   176   89  210 1    
   177   90   91 1    
   178   90   92 1    
   179   90  211 1    
   180   91  212 1    
   181   91  213 1    
   182   91  214 1    
   183   92   93 2    
   184   92   94 am   BACKBONE|DICT|INTERRES
   185   94   95 1    
   186   94  215 1    
   187   95   96 1    
   188   95   97 1    
   189   95  216 1    
   190   96  217 1    
   191   96  218 1    
   192   96  219 1    
   193   97   98 2    
   194   97   99 am   BACKBONE|DICT|INTERRES
   195   99  100 1    
   196   99  220 1    
   197  100  101 1    
   198  100  102 1    
   199  100  221 1    
   200  101  222 1    
   201  101  223 1    
   202  101  224 1    
   203  102  103 2    
   204  102  104 am   BACKBONE|DICT|INTERRES
   205  104  105 1    
   206  104  225 1    
   207  105  106 1    
   208  105  107 1    
   209  105  226 1    
   210  106  227 1    
   211  106  228 1    
   212  106  229 1    
   213  107  108 2    
   214  107  109 am   BACKBONE|DICT|INTERRES
   215  109  110 1    
   216  109  230 1    
   217  110  111 1    
   218  110  112 1    
   219  110  231 1    
   220  111  232 1    
   221  111  233 1    
   222  111  234 1    
   223  112  113 2    
   224  112  114 am   BACKBONE|DICT|INTERRES
   225  114  115 1    
   226  114  235 1    
   227  115  116 1    
   228  115  117 1    
   229  115  236 1    
   230  116  237 1    
   231  116  238 1    
   232  116  239 1    
   233  117  118 2    
   234  117  119 am   BACKBONE|DICT|INTERRES
   235  119  120 1    
   236  119  240 1    
   237  120  121 1    
   238  120  124 1    
   239  120  241 1    
   240  121  122 am   BACKBONE|DICT|INTERRES
   241  121  123 2    
   242  122  242 1    
   243  122  243 1    
   244  124  125 1    
   245  124  244 1    
   246  124  245 1    
   247  125  126 1    
   248  126  246 1    
   249  126  247 1    
@<TRIPOS>SUBSTRUCTURE
     1 UNK         1 GROUP             0       ****    0 ROOT    
