@<TRIPOS>MOLECULE
3R540
247   249    1
SMALL
USER_CHARGES


@<TRIPOS>ATOM
      1 CA          3.0533  -14.7235  -48.6986 C.3       0 UNK        -0.1800 
      2 C           2.1832  -14.2418  -47.5482 C.2       0 UNK         0.5000 
      3 O           2.6919  -13.9849  -46.4593 O.2       0 UNK        -0.5000 
      4 N           0.8721  -14.1051  -47.7840 N.am      1 UNK        -0.5000 
      5 CA         -0.1492  -13.7150  -46.7986 C.3       1 UNK         0.1400 
      6 C6         -1.5876  -13.9329  -47.3346 C.3       23 UNK        -0.0398 
      7 S7         -1.8814  -13.1931  -48.9781 S.3       23 UNK        -0.2404 
      8 C8         -3.5227  -13.8772  -49.3911 C.3       23 UNK        -0.0205 
      9 C9         -3.5655  -15.3919  -49.6002 C.ar      23 UNK        -0.0193 
     10 C10        -2.5138  -16.0866  -50.2106 C.ar      23 UNK        -0.1150 
     11 C11        -2.6028  -17.4645  -50.4302 C.ar      23 UNK        -0.0193 
     12 C12        -3.7690  -18.1436  -50.0688 C.ar      23 UNK        -0.1150 
     13 C13        -4.8206  -17.4742  -49.4342 C.ar      23 UNK        -0.0193 
     14 C14        -4.7076  -16.0986  -49.2093 C.ar      23 UNK        -0.1150 
     15 C15        -6.1016  -18.1946  -49.0088 C.3       23 UNK        -0.0205 
     16 S16        -5.8845  -19.9185  -48.4367 S.3       23 UNK        -0.2404 
     17 C17        -4.6970  -19.7356  -47.0623 C.3       23 UNK        -0.0398 
     18 CA         -3.3285  -20.3732  -47.4156 C.3       11 UNK         0.1400 
     19 N          -2.2031  -19.5401  -46.9923 N.am      11 UNK        -0.5000 
     20 C          -0.9347  -19.6813  -47.3917 C.2       10 UNK         0.5000 
     21 O          -0.5706  -20.5728  -48.1579 O.2       10 UNK        -0.5000 
     22 CA          0.1102  -18.7095  -46.8134 C.3       10 UNK         0.1400 
     23 CB          0.3335  -17.5220  -47.7599 C.3       10 UNK        -0.1800 
     24 N          -0.1552  -18.2639  -45.4368 N.am      10 UNK        -0.5000 
     25 C          -1.1687  -17.5281  -44.9530 C.2       9 UNK         0.5000 
     26 O          -2.0506  -17.0468  -45.6632 O.2       9 UNK        -0.5000 
     27 CA         -1.2418  -17.3026  -43.4273 C.3       9 UNK         0.1400 
     28 CB         -2.6306  -17.6657  -42.8647 C.3       9 UNK        -0.1800 
     29 N          -0.1759  -17.9537  -42.6556 N.am      9 UNK        -0.5000 
     30 C           0.0592  -19.2629  -42.4860 C.2       8 UNK         0.5000 
     31 O          -0.6545  -20.1593  -42.9381 O.2       8 UNK        -0.5000 
     32 CA          1.3829  -19.5900  -41.7629 C.3       8 UNK         0.1400 
     33 CB          1.7027  -21.0992  -41.7296 C.3       8 UNK        -0.1800 
     34 N           2.4997  -18.8215  -42.3342 N.am      8 UNK        -0.5000 
     35 C           2.9300  -18.8526  -43.6055 C.2       7 UNK         0.5000 
     36 O           2.4809  -19.6220  -44.4553 O.2       7 UNK        -0.5000 
     37 CA          3.9877  -17.8175  -44.0359 C.3       7 UNK         0.1400 
     38 CB          3.3990  -16.8672  -45.0901 C.3       7 UNK        -0.1800 
     39 N           4.5254  -17.0096  -42.9406 N.am      7 UNK        -0.5000 
     40 C           5.4795  -17.4083  -42.0891 C.2       6 UNK         0.5000 
     41 O           5.9627  -18.5407  -42.0835 O.2       6 UNK        -0.5000 
     42 CA          5.9728  -16.3645  -41.0741 C.3       6 UNK         0.1400 
     43 CB          7.0176  -15.4400  -41.7194 C.3       6 UNK        -0.1800 
     44 N           4.8658  -15.5550  -40.5669 N.am      6 UNK        -0.5000 
     45 C           4.1795  -15.8228  -39.4482 C.2       5 UNK         0.5000 
     46 O           4.4367  -16.7637  -38.6964 O.2       5 UNK        -0.5000 
     47 CA          3.0003  -14.8887  -39.1089 C.3       5 UNK         0.1400 
     48 CB          3.4651  -13.7502  -38.1882 C.3       5 UNK        -0.1800 
     49 N           2.3498  -14.3130  -40.2876 N.am      5 UNK        -0.5000 
     50 C           1.6597  -15.0174  -41.1935 C.2       4 UNK         0.5000 
     51 O           1.4815  -16.2332  -41.1271 O.2       4 UNK        -0.5000 
     52 CA          1.0916  -14.2472  -42.3986 C.3       4 UNK         0.1400 
     53 CB         -0.3148  -13.7265  -42.0645 C.3       4 UNK        -0.1800 
     54 N           1.9157  -13.1375  -42.8884 N.am      4 UNK        -0.5000 
     55 C           3.2196  -13.1876  -43.2018 C.2       3 UNK         0.5000 
     56 O           3.9312  -14.1755  -43.0064 O.2       3 UNK        -0.5000 
     57 CA          3.8020  -11.9241  -43.8592 C.3       3 UNK         0.1400 
     58 CB          5.2278  -12.1406  -44.3974 C.3       3 UNK        -0.1800 
     59 N           2.9325  -11.5276  -44.9636 N.am      3 UNK        -0.5000 
     60 C           2.3058  -10.3513  -45.0990 C.2       2 UNK         0.5000 
     61 O           2.4341   -9.4161  -44.3084 O.2       2 UNK        -0.5000 
     62 CA          1.3613  -10.1898  -46.3117 C.3       2 UNK         0.1400 
     63 CB          2.0630   -9.4171  -47.4389 C.3       2 UNK        -0.1800 
     64 N           0.8798  -11.4666  -46.8440 N.am      2 UNK        -0.5000 
     65 C           0.0424  -12.2976  -46.2070 C.2       1 UNK         0.5000 
     66 O          -0.5309  -11.9998  -45.1594 O.2       1 UNK        -0.5000 
     67 C          -3.2176  -21.8445  -46.9590 C.2       11 UNK         0.5000 
     68 O          -3.8677  -22.7079  -47.5478 O.2       11 UNK        -0.5000 
     69 N          -2.3506  -22.1222  -45.9742 N.am      12 UNK        -0.5000 
     70 CA         -1.9292  -23.4691  -45.5905 C.3       12 UNK         0.1400 
     71 CB         -1.0637  -23.3850  -44.3241 C.3       12 UNK        -0.1800 
     72 C          -1.1710  -24.1966  -46.7203 C.2       12 UNK         0.5000 
     73 O          -1.3952  -25.3892  -46.9258 O.2       12 UNK        -0.5000 
     74 N          -0.3271  -23.4633  -47.4637 N.am      13 UNK        -0.5000 
     75 CA          0.4045  -23.9720  -48.6284 C.3       13 UNK         0.1400 
     76 CB          1.6042  -23.0592  -48.9260 C.3       13 UNK        -0.1800 
     77 C          -0.5004  -24.1023  -49.8672 C.2       13 UNK         0.5000 
     78 O          -0.2803  -24.9893  -50.6913 O.2       13 UNK        -0.5000 
     79 N          -1.5286  -23.2462  -49.9498 N.am      14 UNK        -0.5000 
     80 CA         -2.5877  -23.3012  -50.9602 C.3       14 UNK         0.1400 
     81 CB         -3.2465  -21.9173  -51.0679 C.3       14 UNK        -0.1800 
     82 C          -3.6564  -24.3731  -50.6611 C.2       14 UNK         0.5000 
     83 O          -4.5835  -24.5259  -51.4564 O.2       14 UNK        -0.5000 
     84 N          -3.5451  -25.0606  -49.5137 N.am      15 UNK        -0.5000 
     85 CA         -4.4523  -26.0902  -49.0000 C.3       15 UNK         0.1400 
     86 CB         -4.3415  -27.3712  -49.8521 C.3       15 UNK        -0.1800 
     87 C          -5.8993  -25.5759  -48.8504 C.2       15 UNK         0.5000 
     88 O          -6.8373  -26.2113  -49.3327 O.2       15 UNK        -0.5000 
     89 N          -6.0379  -24.3987  -48.2216 N.am      16 UNK        -0.5000 
     90 CA         -7.2778  -23.6333  -48.0412 C.3       16 UNK         0.1400 
     91 CB         -8.2793  -24.3920  -47.1453 C.3       16 UNK        -0.1800 
     92 C          -7.8819  -23.1744  -49.3859 C.2       16 UNK         0.5000 
     93 O          -9.1002  -23.2018  -49.5676 O.2       16 UNK        -0.5000 
     94 N          -6.9914  -22.7707  -50.3029 N.am      17 UNK        -0.5000 
     95 CA         -7.2481  -22.3032  -51.6676 C.3       17 UNK         0.1400 
     96 CB         -8.1022  -21.0188  -51.6742 C.3       17 UNK        -0.1800 
     97 C          -7.7877  -23.3936  -52.6165 C.2       17 UNK         0.5000 
     98 O          -8.3859  -23.0648  -53.6417 O.2       17 UNK        -0.5000 
     99 N          -7.5266  -24.6705  -52.3005 N.am      18 UNK        -0.5000 
    100 CA        -7.7260  -25.7949  -53.2184 C.3       18 UNK         0.1400 
    101 CB        -7.6837  -27.1153  -52.4371 C.3       18 UNK        -0.1800 
    102 C         -6.6739  -25.7884  -54.3447 C.2       18 UNK         0.5000 
    103 O         -6.9964  -26.1154  -55.4871 O.2       18 UNK        -0.5000 
    104 N         -5.4519  -25.3610  -54.0055 N.am      19 UNK        -0.5000 
    105 CA        -4.3672  -25.0354  -54.9200 C.3       19 UNK         0.1400 
    106 CB        -3.1009  -25.7969  -54.4885 C.3       19 UNK        -0.1800 
    107 C         -4.1888  -23.5099  -54.8714 C.2       19 UNK         0.5000 
    108 O         -3.2104  -23.0116  -54.3137 O.2       19 UNK        -0.5000 
    109 N         -5.1719  -22.7889  -55.4293 N.am      20 UNK        -0.5000 
    110 CA        -5.3191  -21.3264  -55.3893 C.3       20 UNK         0.1400 
    111 CB        -6.6331  -20.9469  -56.0898 C.3       20 UNK        -0.1800 
    112 C         -4.1445  -20.5118  -55.9752 C.2       20 UNK         0.5000 
    113 O         -4.0642  -19.3086  -55.7283 O.2       20 UNK        -0.5000 
    114 N         -3.2489  -21.1731  -56.7202 N.am      21 UNK        -0.5000 
    115 CA        -1.9724  -20.6305  -57.1869 C.3       21 UNK         0.1400 
    116 CB        -1.4107  -21.5664  -58.2690 C.3       21 UNK        -0.1800 
    117 C         -0.9360  -20.4257  -56.0583 C.2       21 UNK         0.5000 
    118 O          0.0572  -19.7342  -56.2864 O.2       21 UNK        -0.5000 
    119 N         -1.1707  -21.0285  -54.8819 N.am      22 UNK        -0.5000 
    120 CA        -0.3314  -20.9611  -53.6707 C.3       22 UNK         0.1400 
    121 C          0.9994  -21.7693  -53.7620 C.2       22 UNK         0.5000 
    122 N          1.1743  -22.6506  -54.7394 N.am      22 UNK        -0.7600 
    123 O          1.8792  -21.6227  -52.9181 O.2       22 UNK        -0.5000 
    124 C124       -0.1144  -19.5129  -53.1391 C.3       23 UNK        -0.0398 
    125 S125       -1.6730  -18.6270  -52.7776 S.3       23 UNK        -0.2404 
    126 C126       -1.4278  -18.2286  -51.0210 C.3       23 UNK        -0.0205 
    127 H127        3.8082  -13.9744  -48.9371 H         1 UNK         0.0600 
    128 H128        3.5623  -15.6458  -48.4186 H         1 UNK         0.0600 
    129 H129        2.4667  -14.9175  -49.5969 H         1 UNK         0.0600 
    130 H130        0.5140  -14.2925  -48.7099 H         1 UNK         0.3000 
    131 H131       -0.0259  -14.3942  -45.9520 H         1 UNK         0.0600 
    132 H132       -1.7793  -15.0029  -47.4099 H         1 UNK         0.0800 
    133 H133       -2.3331  -13.5560  -46.6319 H         1 UNK         0.0800 
    134 H134       -3.8727  -13.3995  -50.3068 H         1 UNK         0.0800 
    135 H135       -4.2213  -13.5830  -48.6062 H         1 UNK         0.0800 
    136 H136       -1.6227  -15.5573  -50.5156 H         1 UNK         0.1150 
    137 H137       -3.8500  -19.1988  -50.2778 H         1 UNK         0.1150 
    138 H138       -5.5253  -15.5689  -48.7408 H         1 UNK         0.1150 
    139 H139       -6.7900  -18.1949  -49.8544 H         1 UNK         0.0800 
    140 H140       -6.5965  -17.6374  -48.2118 H         1 UNK         0.0800 
    141 H141       -4.5841  -18.6717  -46.8480 H         1 UNK         0.0800 
    142 H142       -5.1266  -20.1678  -46.1568 H         1 UNK         0.0800 
    143 H143       -3.2359  -20.4127  -48.4990 H         1 UNK         0.0600 
    144 H144       -2.4141  -18.7341  -46.4110 H         1 UNK         0.3000 
    145 H145        1.0476  -19.2654  -46.7640 H         1 UNK         0.0600 
    146 H146        1.0956  -16.8571  -47.3612 H         1 UNK         0.0600 
    147 H147        0.6790  -17.8628  -48.7361 H         1 UNK         0.0600 
    148 H148       -0.5778  -16.9464  -47.9176 H         1 UNK         0.0600 
    149 H149        0.4865  -18.6535  -44.7575 H         1 UNK         0.3000 
    150 H150       -1.1050  -16.2318  -43.2858 H         1 UNK         0.0600 
    151 H151       -3.4115  -17.0632  -43.3303 H         1 UNK         0.0600 
    152 H152       -2.6806  -17.4838  -41.7912 H         1 UNK         0.0600 
    153 H153       -2.8812  -18.7121  -43.0408 H         1 UNK         0.0600 
    154 H154        0.4804  -17.3206  -42.2026 H         1 UNK         0.3000 
    155 H155        1.2660  -19.2518  -40.7323 H         1 UNK         0.0600 
    156 H156        0.9206  -21.6498  -41.2056 H         1 UNK         0.0600 
    157 H157        2.6406  -21.2910  -41.2086 H         1 UNK         0.0600 
    158 H158        1.7822  -21.5238  -42.7307 H         1 UNK         0.0600 
    159 H159        2.8882  -18.1074  -41.7329 H         1 UNK         0.3000 
    160 H160        4.8090  -18.3684  -44.4986 H         1 UNK         0.0600 
    161 H161        2.5468  -16.3091  -44.7005 H         1 UNK         0.0600 
    162 H162        4.1424  -16.1447  -45.4280 H         1 UNK         0.0600 
    163 H163        3.0600  -17.4147  -45.9699 H         1 UNK         0.0600 
    164 H164        4.2194  -16.0407  -42.9048 H         1 UNK         0.3000 
    165 H165        6.4569  -16.8949  -40.2513 H         1 UNK         0.0600 
    166 H166        7.4059  -14.7217  -40.9972 H         1 UNK         0.0600 
    167 H167        7.8656  -16.0130  -42.0965 H         1 UNK         0.0600 
    168 H168        6.6013  -14.8795  -42.5575 H         1 UNK         0.0600 
    169 H169        4.5516  -14.7995  -41.1653 H         1 UNK         0.3000 
    170 H170        2.2572  -15.4812  -38.5708 H         1 UNK         0.0600 
    171 H171        3.9325  -14.1444  -37.2848 H         1 UNK         0.0600 
    172 H172        4.1945  -13.1064  -38.6812 H         1 UNK         0.0600 
    173 H173        2.6261  -13.1294  -37.8735 H         1 UNK         0.0600 
    174 H174        2.4511  -13.3183  -40.4261 H         1 UNK         0.3000 
    175 H175        1.0070  -14.9603  -43.2203 H         1 UNK         0.0600 
    176 H176       -0.2776  -12.8983  -41.3559 H         1 UNK         0.0600 
    177 H177       -0.8329  -13.3806  -42.9576 H         1 UNK         0.0600 
    178 H178       -0.9337  -14.5062  -41.6181 H         1 UNK         0.0600 
    179 H179        1.4184  -12.2848  -43.1032 H         1 UNK         0.3000 
    180 H180        3.8361  -11.1494  -43.0910 H         1 UNK         0.0600 
    181 H181        5.9129  -12.4165  -43.5948 H         1 UNK         0.0600 
    182 H182        5.2568  -12.9350  -45.1447 H         1 UNK         0.0600 
    183 H183        5.6160  -11.2325  -44.8586 H         1 UNK         0.0600 
    184 H184        2.7439  -12.2690  -45.6347 H         1 UNK         0.3000 
    185 H185        0.4973   -9.6088  -45.9824 H         1 UNK         0.0600 
    186 H186        2.4102   -8.4442  -47.0885 H         1 UNK         0.0600 
    187 H187        2.9309   -9.9585  -47.8177 H         1 UNK         0.0600 
    188 H188        1.3867   -9.2376  -48.2749 H         1 UNK         0.0600 
    189 H189        1.3040  -11.7903  -47.7008 H         1 UNK         0.3000 
    190 H190       -1.8706  -21.3544  -45.5267 H         1 UNK         0.3000 
    191 H191       -2.8239  -24.0508  -45.3586 H         1 UNK         0.0600 
    192 H192       -0.7429  -24.3766  -44.0023 H         1 UNK         0.0600 
    193 H193       -1.6169  -22.9386  -43.4974 H         1 UNK         0.0600 
    194 H194       -0.1671  -22.7848  -44.4857 H         1 UNK         0.0600 
    195 H195       -0.2453  -22.4693  -47.2871 H         1 UNK         0.3000 
    196 H196        0.7890  -24.9659  -48.3893 H         1 UNK         0.0600 
    197 H197        2.2102  -23.4686  -49.7353 H         1 UNK         0.0600 
    198 H198        2.2509  -22.9579  -48.0544 H         1 UNK         0.0600 
    199 H199        1.2914  -22.0607  -49.2314 H         1 UNK         0.0600 
    200 H200       -1.6105  -22.5337  -49.2382 H         1 UNK         0.3000 
    201 H201       -2.1342  -23.5433  -51.9230 H         1 UNK         0.0600 
    202 H202       -2.5036  -21.1231  -51.1147 H         1 UNK         0.0600 
    203 H203       -3.9059  -21.7186  -50.2242 H         1 UNK         0.0600 
    204 H204       -3.8506  -21.8447  -51.9720 H         1 UNK         0.0600 
    205 H205       -2.7721  -24.8274  -48.9065 H         1 UNK         0.3000 
    206 H206       -4.1094  -26.3323  -47.9930 H         1 UNK         0.0600 
    207 H207       -3.3191  -27.7491  -49.8567 H         1 UNK         0.0600 
    208 H208       -4.9779  -28.1638  -49.4570 H         1 UNK         0.0600 
    209 H209       -4.6345  -27.1977  -50.8872 H         1 UNK         0.0600 
    210 H210       -5.1923  -23.9217  -47.9113 H         1 UNK         0.3000 
    211 H211       -6.9941  -22.7227  -47.5119 H         1 UNK         0.0600 
    212 H212       -8.6680  -25.2858  -47.6338 H         1 UNK         0.0600 
    213 H213       -9.1328  -23.7609  -46.8956 H         1 UNK         0.0600 
    214 H214       -7.8161  -24.6962  -46.2068 H         1 UNK         0.0600 
    215 H215       -6.0166  -22.8316  -50.0473 H         1 UNK         0.3000 
    216 H216       -6.2705  -22.0360  -52.0695 H         1 UNK         0.0600 
    217 H217       -7.6837  -20.2640  -51.0094 H         1 UNK         0.0600 
    218 H218       -8.1431  -20.5813  -52.6724 H         1 UNK         0.0600 
    219 H219       -9.1283  -21.2117  -51.3609 H         1 UNK         0.0600 
    220 H220       -7.0200  -24.8636  -51.4460 H         1 UNK         0.3000 
    221 H221       -8.7133  -25.7019  -53.6757 H         1 UNK         0.0600 
    222 H222       -6.7135  -27.2740  -51.9674 H         1 UNK         0.0600 
    223 H223       -8.4410  -27.1339  -51.6531 H         1 UNK         0.0600 
    224 H224       -7.8731  -27.9642  -53.0950 H         1 UNK         0.0600 
    225 H225       -5.2849  -25.0875  -53.0380 H         1 UNK         0.3000 
    226 H226       -4.6113  -25.3199  -55.9454 H         1 UNK         0.0600 
    227 H227       -3.2543  -26.8745  -54.5460 H         1 UNK         0.0600 
    228 H228       -2.2584  -25.5516  -55.1360 H         1 UNK         0.0600 
    229 H229       -2.8102  -25.5577  -53.4650 H         1 UNK         0.0600 
    230 H230       -5.9386  -23.2912  -55.8542 H         1 UNK         0.3000 
    231 H231       -5.4006  -21.0423  -54.3383 H         1 UNK         0.0600 
    232 H232       -6.6246  -21.2370  -57.1411 H         1 UNK         0.0600 
    233 H233       -7.4889  -21.4267  -55.6156 H         1 UNK         0.0600 
    234 H234       -6.8053  -19.8705  -56.0473 H         1 UNK         0.0600 
    235 H235       -3.4029  -22.1581  -56.8741 H         1 UNK         0.3000 
    236 H236       -2.1590  -19.6545  -57.6396 H         1 UNK         0.0600 
    237 H237       -1.2161  -22.5650  -57.8760 H         1 UNK         0.0600 
    238 H238       -2.1033  -21.6630  -59.1054 H         1 UNK         0.0600 
    239 H239       -0.4717  -21.1826  -58.6702 H         1 UNK         0.0600 
    240 H240       -1.9954  -21.6158  -54.7927 H         1 UNK         0.3000 
    241 H241       -0.9030  -21.4915  -52.9098 H         1 UNK         0.0600 
    242 H242        2.0326  -23.1768  -54.7854 H         1 UNK         0.3800 
    243 H243        0.4572  -22.7954  -55.4312 H         1 UNK         0.3800 
    244 H244        0.4609  -18.9206  -53.8510 H         1 UNK         0.0800 
    245 H245        0.4874  -19.5370  -52.2294 H         1 UNK         0.0800 
    246 H246       -1.2746  -19.1496  -50.4574 H         1 UNK         0.0800 
    247 H247       -0.5109  -17.6472  -50.9142 H         1 UNK         0.0800 
@<TRIPOS>BOND
     1    1    2 1    
     2    1  127 1    
     3    1  128 1    
     4    1  129 1    
     5    2    3 2    
     6    2    4 am   BACKBONE|DICT|INTERRES
     7    4    5 1    
     8    4  130 1    
     9    5    6 1    
    10    5   65 1    
    11    5  131 1    
    12    6    7 1    
    13    6  132 1    
    14    6  133 1    
    15    7    8 1    
    16    8    9 1    
    17    8  134 1    
    18    8  135 1    
    19    9   10 ar   
    20    9   14 ar   
    21   10   11 ar   
    22   10  136 1    
    23   11   12 ar   
    24   11  126 1    
    25   12   13 ar   
    26   12  137 1    
    27   13   14 ar   
    28   13   15 1    
    29   14  138 1    
    30   15   16 1    
    31   15  139 1    
    32   15  140 1    
    33   16   17 1    
    34   17   18 1    
    35   17  141 1    
    36   17  142 1    
    37   18   19 1    
    38   18   67 1    
    39   18  143 1    
    40   19   20 am   BACKBONE|DICT|INTERRES
    41   19  144 1    
    42   20   21 2    
    43   20   22 1    
    44   22   23 1    
    45   22   24 1    
    46   22  145 1    
    47   23  146 1    
    48   23  147 1    
    49   23  148 1    
    50   24   25 am   BACKBONE|DICT|INTERRES
    51   24  149 1    
    52   25   26 2    
    53   25   27 1    
    54   27   28 1    
    55   27   29 1    
    56   27  150 1    
    57   28  151 1    
    58   28  152 1    
    59   28  153 1    
    60   29   30 am   BACKBONE|DICT|INTERRES
    61   29  154 1    
    62   30   31 2    
    63   30   32 1    
    64   32   33 1    
    65   32   34 1    
    66   32  155 1    
    67   33  156 1    
    68   33  157 1    
    69   33  158 1    
    70   34   35 am   BACKBONE|DICT|INTERRES
    71   34  159 1    
    72   35   36 2    
    73   35   37 1    
    74   37   38 1    
    75   37   39 1    
    76   37  160 1    
    77   38  161 1    
    78   38  162 1    
    79   38  163 1    
    80   39   40 am   BACKBONE|DICT|INTERRES
    81   39  164 1    
    82   40   41 2    
    83   40   42 1    
    84   42   43 1    
    85   42   44 1    
    86   42  165 1    
    87   43  166 1    
    88   43  167 1    
    89   43  168 1    
    90   44   45 am   BACKBONE|DICT|INTERRES
    91   44  169 1    
    92   45   46 2    
    93   45   47 1    
    94   47   48 1    
    95   47   49 1    
    96   47  170 1    
    97   48  171 1    
    98   48  172 1    
    99   48  173 1    
   100   49   50 am   BACKBONE|DICT|INTERRES
   101   49  174 1    
   102   50   51 2    
   103   50   52 1    
   104   52   53 1    
   105   52   54 1    
   106   52  175 1    
   107   53  176 1    
   108   53  177 1    
   109   53  178 1    
   110   54   55 am   BACKBONE|DICT|INTERRES
   111   54  179 1    
   112   55   56 2    
   113   55   57 1    
   114   57   58 1    
   115   57   59 1    
   116   57  180 1    
   117   58  181 1    
   118   58  182 1    
   119   58  183 1    
   120   59   60 am   BACKBONE|DICT|INTERRES
   121   59  184 1    
   122   60   61 2    
   123   60   62 1    
   124   62   63 1    
   125   62   64 1    
   126   62  185 1    
   127   63  186 1    
   128   63  187 1    
   129   63  188 1    
   130   64   65 am   BACKBONE|DICT|INTERRES
   131   64  189 1    
   132   65   66 2    
   133   67   68 2    
   134   67   69 am   BACKBONE|DICT|INTERRES
   135   69   70 1    
   136   69  190 1    
   137   70   71 1    
   138   70   72 1    
   139   70  191 1    
   140   71  192 1    
   141   71  193 1    
   142   71  194 1    
   143   72   73 2    
   144   72   74 am   BACKBONE|DICT|INTERRES
   145   74   75 1    
   146   74  195 1    
   147   75   76 1    
   148   75   77 1    
   149   75  196 1    
   150   76  197 1    
   151   76  198 1    
   152   76  199 1    
   153   77   78 2    
   154   77   79 am   BACKBONE|DICT|INTERRES
   155   79   80 1    
   156   79  200 1    
   157   80   81 1    
   158   80   82 1    
   159   80  201 1    
   160   81  202 1    
   161   81  203 1    
   162   81  204 1    
   163   82   83 2    
   164   82   84 am   BACKBONE|DICT|INTERRES
   165   84   85 1    
   166   84  205 1    
   167   85   86 1    
   168   85   87 1    
   169   85  206 1    
   170   86  207 1    
   171   86  208 1    
   172   86  209 1    
   173   87   88 2    
   174   87   89 am   BACKBONE|DICT|INTERRES
   175   89   90 1    
   176   89  210 1    
   177   90   91 1    
   178   90   92 1    
   179   90  211 1    
   180   91  212 1    
   181   91  213 1    
   182   91  214 1    
   183   92   93 2    
   184   92   94 am   BACKBONE|DICT|INTERRES
   185   94   95 1    
   186   94  215 1    
   187   95   96 1    
   188   95   97 1    
   189   95  216 1    
   190   96  217 1    
   191   96  218 1    
   192   96  219 1    
   193   97   98 2    
   194   97   99 am   BACKBONE|DICT|INTERRES
   195   99  100 1    
   196   99  220 1    
   197  100  101 1    
   198  100  102 1    
   199  100  221 1    
   200  101  222 1    
   201  101  223 1    
   202  101  224 1    
   203  102  103 2    
   204  102  104 am   BACKBONE|DICT|INTERRES
   205  104  105 1    
   206  104  225 1    
   207  105  106 1    
   208  105  107 1    
   209  105  226 1    
   210  106  227 1    
   211  106  228 1    
   212  106  229 1    
   213  107  108 2    
   214  107  109 am   BACKBONE|DICT|INTERRES
   215  109  110 1    
   216  109  230 1    
   217  110  111 1    
   218  110  112 1    
   219  110  231 1    
   220  111  232 1    
   221  111  233 1    
   222  111  234 1    
   223  112  113 2    
   224  112  114 am   BACKBONE|DICT|INTERRES
   225  114  115 1    
   226  114  235 1    
   227  115  116 1    
   228  115  117 1    
   229  115  236 1    
   230  116  237 1    
   231  116  238 1    
   232  116  239 1    
   233  117  118 2    
   234  117  119 am   BACKBONE|DICT|INTERRES
   235  119  120 1    
   236  119  240 1    
   237  120  121 1    
   238  120  124 1    
   239  120  241 1    
   240  121  122 am   BACKBONE|DICT|INTERRES
   241  121  123 2    
   242  122  242 1    
   243  122  243 1    
   244  124  125 1    
   245  124  244 1    
   246  124  245 1    
   247  125  126 1    
   248  126  246 1    
   249  126  247 1    
@<TRIPOS>SUBSTRUCTURE
     1 UNK         1 GROUP             0       ****    0 ROOT    
