@<TRIPOS>MOLECULE
3R540
247   249    1
SMALL
USER_CHARGES


@<TRIPOS>ATOM
      1 CA          4.4390  -16.0448  -50.4697 C.3       0 UNK        -0.1800 
      2 C           3.7400  -15.6504  -49.1774 C.2       0 UNK         0.5000 
      3 O           4.0669  -16.1794  -48.1143 O.2       0 UNK        -0.5000 
      4 N           2.7790  -14.7218  -49.2562 N.am      1 UNK        -0.5000 
      5 CA          1.9333  -14.2672  -48.1455 C.3       1 UNK         0.1400 
      6 C6          0.5651  -13.7091  -48.6302 C.3       23 UNK        -0.0398 
      7 S7         -0.2932  -14.6992  -49.9029 S.3       23 UNK        -0.2404 
      8 C8         -0.5931  -16.2837  -49.0620 C.3       23 UNK        -0.0205 
      9 C9          0.0923  -17.4286  -49.7880 C.ar      23 UNK        -0.0193 
     10 C10        -0.3868  -17.8502  -51.0326 C.ar      23 UNK        -0.1150 
     11 C11         0.2132  -18.9205  -51.7084 C.ar      23 UNK        -0.0193 
     12 C12         1.3219  -19.5433  -51.1285 C.ar      23 UNK        -0.1150 
     13 C13         1.8164  -19.1268  -49.8903 C.ar      23 UNK        -0.0193 
     14 C14         1.1911  -18.0742  -49.2178 C.ar      23 UNK        -0.1150 
     15 C15         3.0266  -19.8196  -49.2840 C.3       23 UNK        -0.0205 
     16 S16         2.6105  -21.4782  -48.6627 S.3       23 UNK        -0.2404 
     17 C17         1.4408  -21.0503  -47.3337 C.3       23 UNK        -0.0398 
     18 CA          1.1104  -22.2488  -46.4150 C.3       11 UNK         0.1400 
     19 N           0.7514  -21.8069  -45.0653 N.am      11 UNK        -0.5000 
     20 C           0.6706  -22.5981  -43.9871 C.2       10 UNK         0.5000 
     21 O           0.8315  -23.8188  -44.0204 O.2       10 UNK        -0.5000 
     22 CA          0.3472  -21.9053  -42.6510 C.3       10 UNK         0.1400 
     23 CB          1.5728  -21.1536  -42.1084 C.3       10 UNK        -0.1800 
     24 N          -0.7746  -20.9774  -42.7776 N.am      10 UNK        -0.5000 
     25 C          -2.0553  -21.3581  -42.8763 C.2       9 UNK         0.5000 
     26 O          -2.4294  -22.5284  -42.7941 O.2       9 UNK        -0.5000 
     27 CA         -3.0954  -20.2493  -43.1279 C.3       9 UNK         0.1400 
     28 CB         -3.5744  -19.6508  -41.7968 C.3       9 UNK        -0.1800 
     29 N          -2.6150  -19.1724  -43.9967 N.am      9 UNK        -0.5000 
     30 C          -2.2003  -19.3370  -45.2608 C.2       8 UNK         0.5000 
     31 O          -2.1561  -20.4254  -45.8288 O.2       8 UNK        -0.5000 
     32 CA         -1.6790  -18.0864  -45.9906 C.3       8 UNK         0.1400 
     33 CB         -2.8443  -17.1784  -46.4161 C.3       8 UNK        -0.1800 
     34 N          -0.7167  -17.3297  -45.1865 N.am      8 UNK        -0.5000 
     35 C           0.4265  -17.8365  -44.6999 C.2       7 UNK         0.5000 
     36 O           0.8062  -18.9877  -44.9000 O.2       7 UNK        -0.5000 
     37 CA          1.2645  -16.9291  -43.7913 C.3       7 UNK         0.1400 
     38 CB          2.1302  -15.9691  -44.6172 C.3       7 UNK        -0.1800 
     39 N           0.4229  -16.1898  -42.8526 N.am      7 UNK        -0.5000 
     40 C          -0.1952  -16.7569  -41.8060 C.2       6 UNK         0.5000 
     41 O          -0.0418  -17.9328  -41.4736 O.2       6 UNK        -0.5000 
     42 CA         -1.1902  -15.8736  -41.0334 C.3       6 UNK         0.1400 
     43 CB         -0.4744  -15.0687  -39.9389 C.3       6 UNK        -0.1800 
     44 N          -1.9265  -14.9682  -41.9191 N.am      6 UNK        -0.5000 
     45 C          -2.8602  -15.3816  -42.7893 C.2       5 UNK         0.5000 
     46 O          -3.1996  -16.5580  -42.9107 O.2       5 UNK        -0.5000 
     47 CA         -3.5046  -14.3219  -43.7022 C.3       5 UNK         0.1400 
     48 CB         -4.7770  -13.7586  -43.0529 C.3       5 UNK        -0.1800 
     49 N          -2.6140  -13.2157  -44.0513 N.am      5 UNK        -0.5000 
     50 C          -1.4652  -13.3268  -44.7308 C.2       4 UNK         0.5000 
     51 O          -1.0099  -14.4009  -45.1319 O.2       4 UNK        -0.5000 
     52 CA         -0.6676  -12.0297  -44.9831 C.3       4 UNK         0.1400 
     53 CB         -1.3563  -10.7451  -44.4689 C.3       4 UNK        -0.1800 
     54 N           0.6937  -12.1211  -44.4505 N.am      4 UNK        -0.5000 
     55 C           1.0505  -12.3892  -43.1841 C.2       3 UNK         0.5000 
     56 O           0.2399  -12.6098  -42.2830 O.2       3 UNK        -0.5000 
     57 CA          2.5617  -12.4482  -42.8868 C.3       3 UNK         0.1400 
     58 CB          2.8932  -13.3858  -41.7110 C.3       3 UNK        -0.1800 
     59 N           3.3000  -12.8845  -44.0723 N.am      3 UNK        -0.5000 
     60 C           4.2641  -12.1986  -44.6947 C.2       2 UNK         0.5000 
     61 O           4.7079  -11.1201  -44.2993 O.2       2 UNK        -0.5000 
     62 CA          4.8140  -12.8153  -45.9973 C.3       2 UNK         0.1400 
     63 CB          6.0718  -13.6469  -45.7042 C.3       2 UNK        -0.1800 
     64 N           3.8623  -13.6497  -46.7428 N.am      2 UNK        -0.5000 
     65 C           2.6816  -13.2567  -47.2405 C.2       1 UNK         0.5000 
     66 O           2.1958  -12.1466  -47.0167 O.2       1 UNK        -0.5000 
     67 C           0.0542  -23.1777  -47.0490 C.2       11 UNK         0.5000 
     68 O           0.4263  -24.0661  -47.8161 O.2       11 UNK        -0.5000 
     69 N          -1.2250  -23.0024  -46.6803 N.am      12 UNK        -0.5000 
     70 CA         -2.3833  -23.7840  -47.1318 C.3       12 UNK         0.1400 
     71 CB         -3.6510  -23.2579  -46.4407 C.3       12 UNK        -0.1800 
     72 C          -2.2708  -25.3104  -46.9424 C.2       12 UNK         0.5000 
     73 O          -2.9635  -26.0541  -47.6371 O.2       12 UNK        -0.5000 
     74 N          -1.3962  -25.7548  -46.0299 N.am      13 UNK        -0.5000 
     75 CA         -1.0507  -27.1600  -45.8189 C.3       13 UNK         0.1400 
     76 CB         -0.2490  -27.2774  -44.5137 C.3       13 UNK        -0.1800 
     77 C          -0.2658  -27.7891  -46.9910 C.2       13 UNK         0.5000 
     78 O          -0.2846  -29.0132  -47.1278 O.2       13 UNK        -0.5000 
     79 N           0.4094  -26.9613  -47.8008 N.am      14 UNK        -0.5000 
     80 CA          1.2082  -27.3771  -48.9530 C.3       14 UNK         0.1400 
     81 CB          2.6748  -26.9751  -48.7230 C.3       14 UNK        -0.1800 
     82 C           0.6648  -26.7548  -50.2481 C.2       14 UNK         0.5000 
     83 O           0.3854  -27.4806  -51.2032 O.2       14 UNK        -0.5000 
     84 N           0.5079  -25.4263  -50.2568 N.am      15 UNK        -0.5000 
     85 CA         -0.0293  -24.6458  -51.3656 C.3       15 UNK         0.1400 
     86 CB          0.7321  -23.3109  -51.4474 C.3       15 UNK        -0.1800 
     87 C          -1.5317  -24.4461  -51.1263 C.2       15 UNK         0.5000 
     88 O          -1.9387  -23.3973  -50.6274 O.2       15 UNK        -0.5000 
     89 N          -2.3152  -25.4903  -51.4282 N.am      16 UNK        -0.5000 
     90 CA         -3.7590  -25.5784  -51.1956 C.3       16 UNK         0.1400 
     91 CB         -4.2811  -26.8944  -51.7905 C.3       16 UNK        -0.1800 
     92 C          -4.5492  -24.3811  -51.7579 C.2       16 UNK         0.5000 
     93 O          -4.2918  -23.9535  -52.8864 O.2       16 UNK        -0.5000 
     94 N          -5.4919  -23.8735  -50.9508 N.am      17 UNK        -0.5000 
     95 CA         -6.2970  -22.6725  -51.1965 C.3       17 UNK         0.1400 
     96 CB         -7.2558  -22.8843  -52.3881 C.3       17 UNK        -0.1800 
     97 C          -5.4271  -21.4057  -51.3377 C.2       17 UNK         0.5000 
     98 O          -5.6298  -20.6193  -52.2646 O.2       17 UNK        -0.5000 
     99 N          -4.4592  -21.2411  -50.4242 N.am      18 UNK        -0.5000 
    100 CA        -3.5343  -20.1070  -50.3528 C.3       18 UNK         0.1400 
    101 CB        -2.6303  -20.2659  -49.1226 C.3       18 UNK        -0.1800 
    102 C         -4.2730  -18.7555  -50.3042 C.2       18 UNK         0.5000 
    103 O         -5.1898  -18.5932  -49.4970 O.2       18 UNK        -0.5000 
    104 N         -3.8954  -17.8439  -51.2089 N.am      19 UNK        -0.5000 
    105 CA        -4.4785  -16.5260  -51.5025 C.3       19 UNK         0.1400 
    106 CB        -4.4895  -15.6033  -50.2678 C.3       19 UNK        -0.1800 
    107 C         -5.8681  -16.5734  -52.1708 C.2       19 UNK         0.5000 
    108 O         -6.1698  -15.6958  -52.9805 O.2       19 UNK        -0.5000 
    109 N         -6.6831  -17.5840  -51.8446 N.am      20 UNK        -0.5000 
    110 CA        -8.0069  -17.8193  -52.4191 C.3       20 UNK         0.1400 
    111 CB        -8.7504  -18.8594  -51.5674 C.3       20 UNK        -0.1800 
    112 C         -7.9484  -18.2582  -53.8940 C.2       20 UNK         0.5000 
    113 O         -8.7886  -17.8267  -54.6852 O.2       20 UNK        -0.5000 
    114 N         -6.9580  -19.0907  -54.2375 N.am      21 UNK        -0.5000 
    115 CA        -6.7244  -19.5907  -55.5916 C.3       21 UNK         0.1400 
    116 CB        -7.6324  -20.8010  -55.8739 C.3       21 UNK        -0.1800 
    117 C         -5.2501  -19.9439  -55.8486 C.2       21 UNK         0.5000 
    118 O         -4.7861  -19.7401  -56.9709 O.2       21 UNK        -0.5000 
    119 N         -4.5463  -20.4574  -54.8277 N.am      22 UNK        -0.5000 
    120 CA        -3.1681  -20.9767  -54.8837 C.3       22 UNK         0.1400 
    121 C         -3.0310  -22.1654  -55.8788 C.2       22 UNK         0.5000 
    122 N         -3.4858  -23.3521  -55.5020 N.am      22 UNK        -0.7600 
    123 O         -2.5106  -22.0283  -56.9835 O.2       22 UNK        -0.5000 
    124 C124       -2.1042  -19.8679  -55.1234 C.3       23 UNK        -0.0398 
    125 S125       -1.8751  -18.8025  -53.6601 S.3       23 UNK        -0.2404 
    126 C126       -0.2713  -19.4425  -53.0618 C.3       23 UNK        -0.0205 
    127 H127        4.2844  -17.1055  -50.6676 H         1 UNK         0.0600 
    128 H128        5.5106  -15.8631  -50.3882 H         1 UNK         0.0600 
    129 H129        4.0603  -15.4816  -51.3229 H         1 UNK         0.0600 
    130 H130        2.5585  -14.3178  -50.1553 H         1 UNK         0.3000 
    131 H131        1.7189  -15.1340  -47.5186 H         1 UNK         0.0600 
    132 H132        0.6908  -12.7121  -49.0565 H         1 UNK         0.0800 
    133 H133       -0.1115  -13.5921  -47.7827 H         1 UNK         0.0800 
    134 H134       -0.2754  -16.2337  -48.0204 H         1 UNK         0.0800 
    135 H135       -1.6638  -16.4803  -49.0418 H         1 UNK         0.0800 
    136 H136       -1.2233  -17.3247  -51.4657 H         1 UNK         0.1150 
    137 H137        1.8034  -20.3652  -51.6400 H         1 UNK         0.1150 
    138 H138        1.5657  -17.7535  -48.2557 H         1 UNK         0.1150 
    139 H139        3.8064  -19.9101  -50.0414 H         1 UNK         0.0800 
    140 H140        3.4534  -19.2214  -48.4769 H         1 UNK         0.0800 
    141 H141        0.5359  -20.6058  -47.7535 H         1 UNK         0.0800 
    142 H142        1.9254  -20.2638  -46.7562 H         1 UNK         0.0800 
    143 H143        2.0196  -22.8433  -46.2995 H         1 UNK         0.0600 
    144 H144        0.6207  -20.8042  -44.9465 H         1 UNK         0.3000 
    145 H145        0.0810  -22.6788  -41.9274 H         1 UNK         0.0600 
    146 H146        1.3630  -20.7126  -41.1337 H         1 UNK         0.0600 
    147 H147        2.4212  -21.8279  -41.9856 H         1 UNK         0.0600 
    148 H148        1.8855  -20.3498  -42.7755 H         1 UNK         0.0600 
    149 H149       -0.5516  -19.9937  -42.8493 H         1 UNK         0.3000 
    150 H150       -3.9519  -20.7116  -43.6229 H         1 UNK         0.0600 
    151 H151       -3.9433  -20.4281  -41.1264 H         1 UNK         0.0600 
    152 H152       -4.3893  -18.9439  -41.9536 H         1 UNK         0.0600 
    153 H153       -2.7697  -19.1244  -41.2818 H         1 UNK         0.0600 
    154 H154       -2.6478  -18.2325  -43.6096 H         1 UNK         0.3000 
    155 H155       -1.1558  -18.4169  -46.8899 H         1 UNK         0.0600 
    156 H156       -3.5146  -16.9638  -45.5847 H         1 UNK         0.0600 
    157 H157       -2.4937  -16.2249  -46.8094 H         1 UNK         0.0600 
    158 H158       -3.4402  -17.6562  -47.1949 H         1 UNK         0.0600 
    159 H159       -0.9356  -16.3551  -45.0038 H         1 UNK         0.3000 
    160 H160        1.9376  -17.5738  -43.2214 H         1 UNK         0.0600 
    161 H161        1.5405  -15.1604  -45.0467 H         1 UNK         0.0600 
    162 H162        2.6250  -16.4911  -45.4382 H         1 UNK         0.0600 
    163 H163        2.9166  -15.5416  -43.9983 H         1 UNK         0.0600 
    164 H164        0.1894  -15.2358  -43.0880 H         1 UNK         0.3000 
    165 H165       -1.9111  -16.5341  -40.5466 H         1 UNK         0.0600 
    166 H166       -1.1787  -14.4609  -39.3709 H         1 UNK         0.0600 
    167 H167        0.0251  -15.7333  -39.2329 H         1 UNK         0.0600 
    168 H168        0.2841  -14.4051  -40.3528 H         1 UNK         0.0600 
    169 H169       -1.6580  -13.9924  -41.9057 H         1 UNK         0.3000 
    170 H170       -3.7903  -14.8171  -44.6315 H         1 UNK         0.0600 
    171 H171       -4.5539  -13.2190  -42.1316 H         1 UNK         0.0600 
    172 H172       -5.2952  -13.0755  -43.7262 H         1 UNK         0.0600 
    173 H173       -5.4755  -14.5588  -42.8039 H         1 UNK         0.0600 
    174 H174       -2.8953  -12.2979  -43.7387 H         1 UNK         0.3000 
    175 H175       -0.5711  -11.9382  -46.0652 H         1 UNK         0.0600 
    176 H176       -0.7651   -9.8641  -44.7193 H         1 UNK         0.0600 
    177 H177       -1.4894  -10.7514  -43.3864 H         1 UNK         0.0600 
    178 H178       -2.3361  -10.6089  -44.9285 H         1 UNK         0.0600 
    179 H179        1.4272  -11.9844  -45.1381 H         1 UNK         0.3000 
    180 H180        2.8573  -11.4357  -42.6056 H         1 UNK         0.0600 
    181 H181        2.5401  -14.4016  -41.8881 H         1 UNK         0.0600 
    182 H182        2.4314  -13.0343  -40.7877 H         1 UNK         0.0600 
    183 H183        3.9681  -13.4310  -41.5355 H         1 UNK         0.0600 
    184 H184        3.0048  -13.7563  -44.4860 H         1 UNK         0.3000 
    185 H185        5.0975  -11.9870  -46.6496 H         1 UNK         0.0600 
    186 H186        6.8199  -13.0546  -45.1753 H         1 UNK         0.0600 
    187 H187        5.8427  -14.5160  -45.0862 H         1 UNK         0.0600 
    188 H188        6.5332  -14.0029  -46.6256 H         1 UNK         0.0600 
    189 H189        4.1794  -14.5803  -47.0006 H         1 UNK         0.3000 
    190 H190       -1.4426  -22.1973  -46.0986 H         1 UNK         0.3000 
    191 H191       -2.4925  -23.6079  -48.1998 H         1 UNK         0.0600 
    192 H192       -3.8591  -22.2278  -46.7274 H         1 UNK         0.0600 
    193 H193       -4.5264  -23.8475  -46.7160 H         1 UNK         0.0600 
    194 H194       -3.5581  -23.2928  -45.3546 H         1 UNK         0.0600 
    195 H195       -0.8675  -25.0739  -45.5012 H         1 UNK         0.3000 
    196 H196       -1.9783  -27.7244  -45.7035 H         1 UNK         0.0600 
    197 H197        0.0015  -28.3172  -44.2995 H         1 UNK         0.0600 
    198 H198       -0.8187  -26.8992  -43.6647 H         1 UNK         0.0600 
    199 H199        0.6858  -26.7175  -44.5657 H         1 UNK         0.0600 
    200 H200        0.3434  -25.9600  -47.6404 H         1 UNK         0.3000 
    201 H201        1.1742  -28.4615  -49.0765 H         1 UNK         0.0600 
    202 H202        3.0870  -27.4833  -47.8512 H         1 UNK         0.0600 
    203 H203        2.7816  -25.9012  -48.5633 H         1 UNK         0.0600 
    204 H204        3.2935  -27.2448  -49.5798 H         1 UNK         0.0600 
    205 H205        0.6697  -24.9044  -49.3978 H         1 UNK         0.3000 
    206 H206        0.1091  -25.1724  -52.3122 H         1 UNK         0.0600 
    207 H207        1.7992  -23.4725  -51.5994 H         1 UNK         0.0600 
    208 H208        0.3701  -22.7106  -52.2818 H         1 UNK         0.0600 
    209 H209        0.6114  -22.7187  -50.5394 H         1 UNK         0.0600 
    210 H210       -1.8761  -26.3145  -51.8131 H         1 UNK         0.3000 
    211 H211       -3.9038  -25.6106  -50.1147 H         1 UNK         0.0600 
    212 H212       -4.1191  -26.9387  -52.8684 H         1 UNK         0.0600 
    213 H213       -5.3518  -27.0062  -51.6145 H         1 UNK         0.0600 
    214 H214       -3.7873  -27.7556  -51.3398 H         1 UNK         0.0600 
    215 H215       -5.6339  -24.3109  -50.0511 H         1 UNK         0.3000 
    216 H216       -6.9099  -22.5207  -50.3070 H         1 UNK         0.0600 
    217 H217       -7.9282  -22.0345  -52.5083 H         1 UNK         0.0600 
    218 H218       -7.8756  -23.7686  -52.2418 H         1 UNK         0.0600 
    219 H219       -6.7168  -23.0063  -53.3276 H         1 UNK         0.0600 
    220 H220       -4.3335  -21.9569  -49.7256 H         1 UNK         0.3000 
    221 H221       -2.9065  -20.1457  -51.2440 H         1 UNK         0.0600 
    222 H222       -3.2185  -20.2960  -48.2061 H         1 UNK         0.0600 
    223 H223       -2.0375  -21.1787  -49.1729 H         1 UNK         0.0600 
    224 H224       -1.9311  -19.4345  -49.0380 H         1 UNK         0.0600 
    225 H225       -3.1780  -18.1250  -51.8658 H         1 UNK         0.3000 
    226 H226       -3.8080  -16.0738  -52.2350 H         1 UNK         0.0600 
    227 H227       -3.4858  -15.4525  -49.8764 H         1 UNK         0.0600 
    228 H228       -4.8796  -14.6180  -50.5259 H         1 UNK         0.0600 
    229 H229       -5.1124  -15.9938  -49.4634 H         1 UNK         0.0600 
    230 H230       -6.3593  -18.2411  -51.1442 H         1 UNK         0.3000 
    231 H231       -8.5666  -16.8827  -52.3740 H         1 UNK         0.0600 
    232 H232       -8.2168  -19.8090  -51.5336 H         1 UNK         0.0600 
    233 H233       -9.7454  -19.0551  -51.9692 H         1 UNK         0.0600 
    234 H234       -8.8763  -18.5108  -50.5422 H         1 UNK         0.0600 
    235 H235       -6.3349  -19.4261  -53.5080 H         1 UNK         0.3000 
    236 H236       -6.9789  -18.7999  -56.3008 H         1 UNK         0.0600 
    237 H237       -7.4447  -21.6133  -55.1721 H         1 UNK         0.0600 
    238 H238       -8.6865  -20.5329  -55.8021 H         1 UNK         0.0600 
    239 H239       -7.4647  -21.1897  -56.8791 H         1 UNK         0.0600 
    240 H240       -5.0118  -20.6000  -53.9353 H         1 UNK         0.3000 
    241 H241       -2.9714  -21.4005  -53.8970 H         1 UNK         0.0600 
    242 H242       -3.4078  -24.1320  -56.1343 H         1 UNK         0.3800 
    243 H243       -3.8684  -23.5041  -54.5680 H         1 UNK         0.3800 
    244 H244       -1.1406  -20.3092  -55.3840 H         1 UNK         0.0800 
    245 H245       -2.3750  -19.2425  -55.9743 H         1 UNK         0.0800 
    246 H246        0.4921  -19.2212  -53.8091 H         1 UNK         0.0800 
    247 H247       -0.3459  -20.5290  -53.0019 H         1 UNK         0.0800 
@<TRIPOS>BOND
     1    1    2 1    
     2    1  127 1    
     3    1  128 1    
     4    1  129 1    
     5    2    3 2    
     6    2    4 am   BACKBONE|DICT|INTERRES
     7    4    5 1    
     8    4  130 1    
     9    5    6 1    
    10    5   65 1    
    11    5  131 1    
    12    6    7 1    
    13    6  132 1    
    14    6  133 1    
    15    7    8 1    
    16    8    9 1    
    17    8  134 1    
    18    8  135 1    
    19    9   10 ar   
    20    9   14 ar   
    21   10   11 ar   
    22   10  136 1    
    23   11   12 ar   
    24   11  126 1    
    25   12   13 ar   
    26   12  137 1    
    27   13   14 ar   
    28   13   15 1    
    29   14  138 1    
    30   15   16 1    
    31   15  139 1    
    32   15  140 1    
    33   16   17 1    
    34   17   18 1    
    35   17  141 1    
    36   17  142 1    
    37   18   19 1    
    38   18   67 1    
    39   18  143 1    
    40   19   20 am   BACKBONE|DICT|INTERRES
    41   19  144 1    
    42   20   21 2    
    43   20   22 1    
    44   22   23 1    
    45   22   24 1    
    46   22  145 1    
    47   23  146 1    
    48   23  147 1    
    49   23  148 1    
    50   24   25 am   BACKBONE|DICT|INTERRES
    51   24  149 1    
    52   25   26 2    
    53   25   27 1    
    54   27   28 1    
    55   27   29 1    
    56   27  150 1    
    57   28  151 1    
    58   28  152 1    
    59   28  153 1    
    60   29   30 am   BACKBONE|DICT|INTERRES
    61   29  154 1    
    62   30   31 2    
    63   30   32 1    
    64   32   33 1    
    65   32   34 1    
    66   32  155 1    
    67   33  156 1    
    68   33  157 1    
    69   33  158 1    
    70   34   35 am   BACKBONE|DICT|INTERRES
    71   34  159 1    
    72   35   36 2    
    73   35   37 1    
    74   37   38 1    
    75   37   39 1    
    76   37  160 1    
    77   38  161 1    
    78   38  162 1    
    79   38  163 1    
    80   39   40 am   BACKBONE|DICT|INTERRES
    81   39  164 1    
    82   40   41 2    
    83   40   42 1    
    84   42   43 1    
    85   42   44 1    
    86   42  165 1    
    87   43  166 1    
    88   43  167 1    
    89   43  168 1    
    90   44   45 am   BACKBONE|DICT|INTERRES
    91   44  169 1    
    92   45   46 2    
    93   45   47 1    
    94   47   48 1    
    95   47   49 1    
    96   47  170 1    
    97   48  171 1    
    98   48  172 1    
    99   48  173 1    
   100   49   50 am   BACKBONE|DICT|INTERRES
   101   49  174 1    
   102   50   51 2    
   103   50   52 1    
   104   52   53 1    
   105   52   54 1    
   106   52  175 1    
   107   53  176 1    
   108   53  177 1    
   109   53  178 1    
   110   54   55 am   BACKBONE|DICT|INTERRES
   111   54  179 1    
   112   55   56 2    
   113   55   57 1    
   114   57   58 1    
   115   57   59 1    
   116   57  180 1    
   117   58  181 1    
   118   58  182 1    
   119   58  183 1    
   120   59   60 am   BACKBONE|DICT|INTERRES
   121   59  184 1    
   122   60   61 2    
   123   60   62 1    
   124   62   63 1    
   125   62   64 1    
   126   62  185 1    
   127   63  186 1    
   128   63  187 1    
   129   63  188 1    
   130   64   65 am   BACKBONE|DICT|INTERRES
   131   64  189 1    
   132   65   66 2    
   133   67   68 2    
   134   67   69 am   BACKBONE|DICT|INTERRES
   135   69   70 1    
   136   69  190 1    
   137   70   71 1    
   138   70   72 1    
   139   70  191 1    
   140   71  192 1    
   141   71  193 1    
   142   71  194 1    
   143   72   73 2    
   144   72   74 am   BACKBONE|DICT|INTERRES
   145   74   75 1    
   146   74  195 1    
   147   75   76 1    
   148   75   77 1    
   149   75  196 1    
   150   76  197 1    
   151   76  198 1    
   152   76  199 1    
   153   77   78 2    
   154   77   79 am   BACKBONE|DICT|INTERRES
   155   79   80 1    
   156   79  200 1    
   157   80   81 1    
   158   80   82 1    
   159   80  201 1    
   160   81  202 1    
   161   81  203 1    
   162   81  204 1    
   163   82   83 2    
   164   82   84 am   BACKBONE|DICT|INTERRES
   165   84   85 1    
   166   84  205 1    
   167   85   86 1    
   168   85   87 1    
   169   85  206 1    
   170   86  207 1    
   171   86  208 1    
   172   86  209 1    
   173   87   88 2    
   174   87   89 am   BACKBONE|DICT|INTERRES
   175   89   90 1    
   176   89  210 1    
   177   90   91 1    
   178   90   92 1    
   179   90  211 1    
   180   91  212 1    
   181   91  213 1    
   182   91  214 1    
   183   92   93 2    
   184   92   94 am   BACKBONE|DICT|INTERRES
   185   94   95 1    
   186   94  215 1    
   187   95   96 1    
   188   95   97 1    
   189   95  216 1    
   190   96  217 1    
   191   96  218 1    
   192   96  219 1    
   193   97   98 2    
   194   97   99 am   BACKBONE|DICT|INTERRES
   195   99  100 1    
   196   99  220 1    
   197  100  101 1    
   198  100  102 1    
   199  100  221 1    
   200  101  222 1    
   201  101  223 1    
   202  101  224 1    
   203  102  103 2    
   204  102  104 am   BACKBONE|DICT|INTERRES
   205  104  105 1    
   206  104  225 1    
   207  105  106 1    
   208  105  107 1    
   209  105  226 1    
   210  106  227 1    
   211  106  228 1    
   212  106  229 1    
   213  107  108 2    
   214  107  109 am   BACKBONE|DICT|INTERRES
   215  109  110 1    
   216  109  230 1    
   217  110  111 1    
   218  110  112 1    
   219  110  231 1    
   220  111  232 1    
   221  111  233 1    
   222  111  234 1    
   223  112  113 2    
   224  112  114 am   BACKBONE|DICT|INTERRES
   225  114  115 1    
   226  114  235 1    
   227  115  116 1    
   228  115  117 1    
   229  115  236 1    
   230  116  237 1    
   231  116  238 1    
   232  116  239 1    
   233  117  118 2    
   234  117  119 am   BACKBONE|DICT|INTERRES
   235  119  120 1    
   236  119  240 1    
   237  120  121 1    
   238  120  124 1    
   239  120  241 1    
   240  121  122 am   BACKBONE|DICT|INTERRES
   241  121  123 2    
   242  122  242 1    
   243  122  243 1    
   244  124  125 1    
   245  124  244 1    
   246  124  245 1    
   247  125  126 1    
   248  126  246 1    
   249  126  247 1    
@<TRIPOS>SUBSTRUCTURE
     1 UNK         1 GROUP             0       ****    0 ROOT    
