@<TRIPOS>MOLECULE
3R540
247   249    1
SMALL
USER_CHARGES


@<TRIPOS>ATOM
      1 CA          2.0789  -15.2116  -42.4604 C.3       0 UNK        -0.1800 
      2 C           1.0273  -16.3104  -42.5105 C.2       0 UNK         0.5000 
      3 O           0.3703  -16.5728  -41.5033 O.2       0 UNK        -0.5000 
      4 N           0.8791  -16.9621  -43.6704 N.am      1 UNK        -0.5000 
      5 CA         -0.1118  -18.0064  -43.9401 C.3       1 UNK         0.1400 
      6 C6          0.1173  -18.6846  -45.3164 C.3       23 UNK        -0.0398 
      7 S7         -0.0256  -17.5611  -46.7501 S.3       23 UNK        -0.2404 
      8 C8         -0.9285  -18.5823  -47.9460 C.3       23 UNK        -0.0205 
      9 C9          0.0146  -19.4568  -48.7502 C.ar      23 UNK        -0.0193 
     10 C10         0.3903  -19.0821  -50.0422 C.ar      23 UNK        -0.1150 
     11 C11         1.2759  -19.8711  -50.7798 C.ar      23 UNK        -0.0193 
     12 C12         1.7970  -21.0382  -50.2134 C.ar      23 UNK        -0.1150 
     13 C13         1.4224  -21.4243  -48.9234 C.ar      23 UNK        -0.0193 
     14 C14         0.5197  -20.6378  -48.2035 C.ar      23 UNK        -0.1150 
     15 C15         1.9649  -22.7010  -48.3065 C.3       23 UNK        -0.0205 
     16 S16         3.0657  -22.3617  -46.8935 S.3       23 UNK        -0.2404 
     17 C17         2.8058  -23.8839  -45.9135 C.3       23 UNK        -0.0398 
     18 CA          2.1780  -23.6668  -44.5115 C.3       11 UNK         0.1400 
     19 N           3.0933  -22.9941  -43.5872 N.am      11 UNK        -0.5000 
     20 C           3.8368  -23.6189  -42.6629 C.2       10 UNK         0.5000 
     21 O           3.8485  -24.8414  -42.5131 O.2       10 UNK        -0.5000 
     22 CA          4.7106  -22.7513  -41.7315 C.3       10 UNK         0.1400 
     23 CB          6.1809  -22.8079  -42.1746 C.3       10 UNK        -0.1800 
     24 N           4.3057  -21.3477  -41.6456 N.am      10 UNK        -0.5000 
     25 C           3.1205  -20.8881  -41.2223 C.2       9 UNK         0.5000 
     26 O           2.2192  -21.6160  -40.8064 O.2       9 UNK        -0.5000 
     27 CA          2.8853  -19.3658  -41.3145 C.3       9 UNK         0.1400 
     28 CB          2.9080  -18.7317  -39.9159 C.3       9 UNK        -0.1800 
     29 N           3.8369  -18.6516  -42.1748 N.am      9 UNK        -0.5000 
     30 C           3.9788  -18.8303  -43.4954 C.2       8 UNK         0.5000 
     31 O           3.3422  -19.6638  -44.1437 O.2       8 UNK        -0.5000 
     32 CA          5.0725  -17.9797  -44.1690 C.3       8 UNK         0.1400 
     33 CB          6.4489  -18.6323  -43.9624 C.3       8 UNK        -0.1800 
     34 N           4.8575  -17.7939  -45.6034 N.am      8 UNK        -0.5000 
     35 C           3.8576  -17.0908  -46.1465 C.2       7 UNK         0.5000 
     36 O           3.0041  -16.4912  -45.4867 O.2       7 UNK        -0.5000 
     37 CA          3.8213  -17.0407  -47.6823 C.3       7 UNK         0.1400 
     38 CB          3.6332  -18.4428  -48.2841 C.3       7 UNK        -0.1800 
     39 N           2.7146  -16.1894  -48.1035 N.am      7 UNK        -0.5000 
     40 C           2.7455  -15.2617  -49.0644 C.2       6 UNK         0.5000 
     41 O           3.7315  -15.0382  -49.7680 O.2       6 UNK        -0.5000 
     42 CA          1.4604  -14.4374  -49.2806 C.3       6 UNK         0.1400 
     43 CB          0.7012  -14.9338  -50.5210 C.3       6 UNK        -0.1800 
     44 N           0.5521  -14.4766  -48.1330 N.am      6 UNK        -0.5000 
     45 C           0.6504  -13.7092  -47.0389 C.2       5 UNK         0.5000 
     46 O           1.5387  -12.8704  -46.8796 O.2       5 UNK        -0.5000 
     47 CA         -0.4153  -13.9256  -45.9376 C.3       5 UNK         0.1400 
     48 CB         -0.7194  -12.6445  -45.1343 C.3       5 UNK        -0.1800 
     49 N          -1.6558  -14.5603  -46.4122 N.am      5 UNK        -0.5000 
     50 C          -2.5180  -14.0796  -47.3208 C.2       4 UNK         0.5000 
     51 O          -2.4081  -12.9618  -47.8259 O.2       4 UNK        -0.5000 
     52 CA         -3.6692  -14.9850  -47.8019 C.3       4 UNK         0.1400 
     53 CB         -3.4114  -15.3976  -49.2692 C.3       4 UNK        -0.1800 
     54 N          -3.9364  -16.1723  -46.9696 N.am      4 UNK        -0.5000 
     55 C          -5.0847  -16.8688  -47.0477 C.2       3 UNK         0.5000 
     56 O          -6.0163  -16.5510  -47.7883 O.2       3 UNK        -0.5000 
     57 CA         -5.2554  -18.1348  -46.1828 C.3       3 UNK         0.1400 
     58 CB         -4.9771  -19.4027  -47.0009 C.3       3 UNK        -0.1800 
     59 N          -4.4283  -18.1696  -44.9817 N.am      3 UNK        -0.5000 
     60 C          -4.7039  -17.5106  -43.8498 C.2       2 UNK         0.5000 
     61 O          -5.6659  -16.7535  -43.7158 O.2       2 UNK        -0.5000 
     62 CA         -3.7496  -17.7438  -42.6593 C.3       2 UNK         0.1400 
     63 CB         -4.3484  -18.7748  -41.6899 C.3       2 UNK        -0.1800 
     64 N          -2.3942  -18.1757  -43.0227 N.am      2 UNK        -0.5000 
     65 C          -1.5506  -17.4662  -43.7826 C.2       1 UNK         0.5000 
     66 O          -1.8774  -16.4278  -44.3581 O.2       1 UNK        -0.5000 
     67 C           0.7810  -23.0051  -44.4943 C.2       11 UNK         0.5000 
     68 O           0.0784  -23.0042  -45.5053 O.2       11 UNK        -0.5000 
     69 N           0.3668  -22.4943  -43.3220 N.am      12 UNK        -0.5000 
     70 CA         -0.9329  -21.8526  -43.0740 C.3       12 UNK         0.1400 
     71 CB         -0.9617  -21.3133  -41.6348 C.3       12 UNK        -0.1800 
     72 C          -2.1772  -22.7277  -43.3412 C.2       12 UNK         0.5000 
     73 O          -3.2749  -22.1845  -43.4582 O.2       12 UNK        -0.5000 
     74 N          -1.9881  -24.0491  -43.4473 N.am      13 UNK        -0.5000 
     75 CA         -3.0142  -25.0408  -43.7745 C.3       13 UNK         0.1400 
     76 CB         -2.4867  -26.4280  -43.3706 C.3       13 UNK        -0.1800 
     77 C          -3.4645  -25.0368  -45.2544 C.2       13 UNK         0.5000 
     78 O          -4.3694  -25.8004  -45.5964 O.2       13 UNK        -0.5000 
     79 N          -2.8284  -24.2181  -46.1076 N.am      14 UNK        -0.5000 
     80 CA         -3.1442  -24.0424  -47.5292 C.3       14 UNK         0.1400 
     81 CB         -2.2052  -22.9770  -48.1162 C.3       14 UNK        -0.1800 
     82 C          -4.6095  -23.6457  -47.8037 C.2       14 UNK         0.5000 
     83 O          -5.2147  -22.9189  -47.0125 O.2       14 UNK        -0.5000 
     84 N          -5.1388  -24.1091  -48.9427 N.am      15 UNK        -0.5000 
     85 CA         -6.4605  -23.7415  -49.4483 C.3       15 UNK         0.1400 
     86 CB         -6.8623  -24.7246  -50.5588 C.3       15 UNK        -0.1800 
     87 C          -6.4583  -22.3034  -49.9916 C.2       15 UNK         0.5000 
     88 O          -5.4742  -21.8925  -50.6102 O.2       15 UNK        -0.5000 
     89 N          -7.5715  -21.5844  -49.7969 N.am      16 UNK        -0.5000 
     90 CA         -7.7519  -20.1890  -50.2105 C.3       16 UNK         0.1400 
     91 CB         -9.1215  -19.6865  -49.7311 C.3       16 UNK        -0.1800 
     92 C          -7.5889  -19.9632  -51.7242 C.2       16 UNK         0.5000 
     93 O          -6.9743  -18.9766  -52.1266 O.2       16 UNK        -0.5000 
     94 N          -8.1043  -20.9017  -52.5303 N.am      17 UNK        -0.5000 
     95 CA         -8.0114  -20.8792  -53.9915 C.3       17 UNK         0.1400 
     96 CB         -8.9215  -21.9720  -54.5722 C.3       17 UNK        -0.1800 
     97 C          -6.5701  -21.0432  -54.5096 C.2       17 UNK         0.5000 
     98 O          -6.2166  -20.4331  -55.5187 O.2       17 UNK        -0.5000 
     99 N          -5.7640  -21.8470  -53.8022 N.am      18 UNK        -0.5000 
    100 CA        -4.3422  -22.0341  -54.0825 C.3       18 UNK         0.1400 
    101 CB        -3.8492  -23.3333  -53.4250 C.3       18 UNK        -0.1800 
    102 C         -3.5280  -20.8238  -53.6018 C.2       18 UNK         0.5000 
    103 O         -2.7431  -20.2735  -54.3730 O.2       18 UNK        -0.5000 
    104 N         -3.7725  -20.4073  -52.3521 N.am      19 UNK        -0.5000 
    105 CA        -3.1268  -19.2792  -51.6830 C.3       19 UNK         0.1400 
    106 CB        -3.6911  -19.1637  -50.2620 C.3       19 UNK        -0.1800 
    107 C         -3.2786  -17.9464  -52.4352 C.2       19 UNK         0.5000 
    108 O         -2.3029  -17.2082  -52.5678 O.2       19 UNK        -0.5000 
    109 N         -4.4867  -17.6812  -52.9502 N.am      20 UNK        -0.5000 
    110 CA        -4.7960  -16.5057  -53.7636 C.3       20 UNK         0.1400 
    111 CB        -6.3194  -16.3885  -53.9221 C.3       20 UNK        -0.1800 
    112 C         -4.1139  -16.5132  -55.1457 C.2       20 UNK         0.5000 
    113 O         -3.9116  -15.4398  -55.7152 O.2       20 UNK        -0.5000 
    114 N         -3.7802  -17.7027  -55.6666 N.am      21 UNK        -0.5000 
    115 CA        -3.0919  -17.8682  -56.9438 C.3       21 UNK         0.1400 
    116 CB        -3.4075  -19.2489  -57.5419 C.3       21 UNK        -0.1800 
    117 C         -1.5768  -17.6493  -56.8018 C.2       21 UNK         0.5000 
    118 O         -1.0058  -16.9014  -57.5974 O.2       21 UNK        -0.5000 
    119 N         -0.9514  -18.2943  -55.8059 N.am      22 UNK        -0.5000 
    120 CA         0.4927  -18.1649  -55.5406 C.3       22 UNK         0.1400 
    121 C          0.9011  -16.8950  -54.7407 C.2       22 UNK         0.5000 
    122 N          0.0202  -16.2754  -53.9660 N.am      22 UNK        -0.7600 
    123 O          2.0414  -16.4505  -54.8417 O.2       22 UNK        -0.5000 
    124 C124        1.1171  -19.4569  -54.9550 C.3       23 UNK        -0.0398 
    125 S125        0.3951  -20.0112  -53.3748 S.3       23 UNK        -0.2404 
    126 C126        1.6589  -19.4625  -52.1906 C.3       23 UNK        -0.0205 
    127 H127        2.9624  -15.5622  -41.9275 H         1 UNK         0.0600 
    128 H128        1.6868  -14.3386  -41.9386 H         1 UNK         0.0600 
    129 H129        2.3811  -14.8959  -43.4589 H         1 UNK         0.0600 
    130 H130        1.4938  -16.7288  -44.4479 H         1 UNK         0.3000 
    131 H131        0.0395  -18.7722  -43.1788 H         1 UNK         0.0600 
    132 H132        1.1105  -19.1326  -45.3485 H         1 UNK         0.0800 
    133 H133       -0.5775  -19.5146  -45.4390 H         1 UNK         0.0800 
    134 H134       -1.6803  -19.1928  -47.4481 H         1 UNK         0.0800 
    135 H135       -1.4632  -17.9089  -48.6111 H         1 UNK         0.0800 
    136 H136       -0.0131  -18.1827  -50.4834 H         1 UNK         0.1150 
    137 H137        2.4843  -21.6496  -50.7808 H         1 UNK         0.1150 
    138 H138        0.2291  -20.9411  -47.2083 H         1 UNK         0.1150 
    139 H139        1.1183  -23.3072  -47.9873 H         1 UNK         0.0800 
    140 H140        2.5060  -23.2946  -49.0446 H         1 UNK         0.0800 
    141 H141        3.7746  -24.3723  -45.8019 H         1 UNK         0.0800 
    142 H142        2.1988  -24.5932  -46.4773 H         1 UNK         0.0800 
    143 H143        1.9732  -24.6671  -44.1249 H         1 UNK         0.0600 
    144 H144        3.1524  -21.9862  -43.6749 H         1 UNK         0.3000 
    145 H145        4.6357  -23.1773  -40.7291 H         1 UNK         0.0600 
    146 H146        6.8258  -22.2752  -41.4753 H         1 UNK         0.0600 
    147 H147        6.5372  -23.8379  -42.2214 H         1 UNK         0.0600 
    148 H148        6.3192  -22.3675  -43.1630 H         1 UNK         0.0600 
    149 H149        4.9759  -20.6704  -41.9761 H         1 UNK         0.3000 
    150 H150        1.8894  -19.2243  -41.7354 H         1 UNK         0.0600 
    151 H151        3.8891  -18.8232  -39.4484 H         1 UNK         0.0600 
    152 H152        2.1833  -19.2117  -39.2568 H         1 UNK         0.0600 
    153 H153        2.6515  -17.6730  -39.9580 H         1 UNK         0.0600 
    154 H154        4.4242  -17.9731  -41.7115 H         1 UNK         0.3000 
    155 H155        5.0773  -16.9930  -43.7008 H         1 UNK         0.0600 
    156 H156        6.4962  -19.6229  -44.4172 H         1 UNK         0.0600 
    157 H157        6.6780  -18.7470  -42.9022 H         1 UNK         0.0600 
    158 H158        7.2430  -18.0253  -44.3979 H         1 UNK         0.0600 
    159 H159        5.4924  -18.2857  -46.2143 H         1 UNK         0.3000 
    160 H160        4.7697  -16.6220  -48.0244 H         1 UNK         0.0600 
    161 H161        2.7564  -18.9365  -47.8657 H         1 UNK         0.0600 
    162 H162        4.4924  -19.0835  -48.0851 H         1 UNK         0.0600 
    163 H163        3.5078  -18.3970  -49.3658 H         1 UNK         0.0600 
    164 H164        1.8856  -16.2679  -47.5286 H         1 UNK         0.3000 
    165 H165        1.7609  -13.4029  -49.4595 H         1 UNK         0.0600 
    166 H166        1.3429  -14.9247  -51.4029 H         1 UNK         0.0600 
    167 H167        0.3390  -15.9525  -50.3890 H         1 UNK         0.0600 
    168 H168       -0.1591  -14.2998  -50.7369 H         1 UNK         0.0600 
    169 H169       -0.1965  -15.1520  -48.1693 H         1 UNK         0.3000 
    170 H170        0.0317  -14.6381  -45.2437 H         1 UNK         0.0600 
    171 H171       -1.4554  -12.8372  -44.3537 H         1 UNK         0.0600 
    172 H172       -1.1034  -11.8471  -45.7707 H         1 UNK         0.0600 
    173 H173        0.1788  -12.2674  -44.6442 H         1 UNK         0.0600 
    174 H174       -1.8367  -15.4509  -45.9612 H         1 UNK         0.3000 
    175 H175       -4.5625  -14.3570  -47.7785 H         1 UNK         0.0600 
    176 H176       -4.2446  -15.9577  -49.6928 H         1 UNK         0.0600 
    177 H177       -3.2712  -14.5216  -49.9038 H         1 UNK         0.0600 
    178 H178       -2.5130  -16.0058  -49.3641 H         1 UNK         0.0600 
    179 H179       -3.2410  -16.4449  -46.2894 H         1 UNK         0.3000 
    180 H180       -6.3030  -18.1698  -45.8753 H         1 UNK         0.0600 
    181 H181       -3.9386  -19.4598  -47.3204 H         1 UNK         0.0600 
    182 H182       -5.5997  -19.4398  -47.8933 H         1 UNK         0.0600 
    183 H183       -5.1965  -20.2981  -46.4196 H         1 UNK         0.0600 
    184 H184       -3.6275  -18.7819  -44.9946 H         1 UNK         0.3000 
    185 H185       -3.6587  -16.7919  -42.1318 H         1 UNK         0.0600 
    186 H186       -5.3502  -18.4806  -41.3738 H         1 UNK         0.0600 
    187 H187       -4.4260  -19.7608  -42.1504 H         1 UNK         0.0600 
    188 H188       -3.7418  -18.8705  -40.7891 H         1 UNK         0.0600 
    189 H189       -2.0645  -19.0107  -42.5647 H         1 UNK         0.3000 
    190 H190        0.9970  -22.5403  -42.5303 H         1 UNK         0.3000 
    191 H191       -1.0098  -21.0062  -43.7548 H         1 UNK         0.0600 
    192 H192       -0.2044  -20.5457  -41.4815 H         1 UNK         0.0600 
    193 H193       -1.9270  -20.8668  -41.3933 H         1 UNK         0.0600 
    194 H194       -0.7818  -22.1074  -40.9091 H         1 UNK         0.0600 
    195 H195       -1.0480  -24.3986  -43.3403 H         1 UNK         0.3000 
    196 H196       -3.8992  -24.8254  -43.1723 H         1 UNK         0.0600 
    197 H197       -3.2380  -27.2003  -43.5403 H         1 UNK         0.0600 
    198 H198       -2.2278  -26.4595  -42.3120 H         1 UNK         0.0600 
    199 H199       -1.5995  -26.7020  -43.9428 H         1 UNK         0.0600 
    200 H200       -2.0702  -23.6519  -45.7490 H         1 UNK         0.3000 
    201 H201       -2.9454  -24.9944  -48.0250 H         1 UNK         0.0600 
    202 H202       -1.1649  -23.2847  -48.0309 H         1 UNK         0.0600 
    203 H203       -2.4067  -22.8078  -49.1751 H         1 UNK         0.0600 
    204 H204       -2.3148  -22.0193  -47.6054 H         1 UNK         0.0600 
    205 H205       -4.5646  -24.6632  -49.5604 H         1 UNK         0.3000 
    206 H206       -7.1824  -23.8172  -48.6323 H         1 UNK         0.0600 
    207 H207       -6.8897  -25.7490  -50.1871 H         1 UNK         0.0600 
    208 H208       -7.8558  -24.4941  -50.9455 H         1 UNK         0.0600 
    209 H209       -6.1673  -24.6913  -51.3992 H         1 UNK         0.0600 
    210 H210       -8.3401  -22.0028  -49.2930 H         1 UNK         0.3000 
    211 H211       -6.9872  -19.5937  -49.7119 H         1 UNK         0.0600 
    212 H212       -9.9384  -20.2666  -50.1621 H         1 UNK         0.0600 
    213 H213       -9.2745  -18.6436  -50.0124 H         1 UNK         0.0600 
    214 H214       -9.2041  -19.7431  -48.6456 H         1 UNK         0.0600 
    215 H215       -8.5888  -21.6829  -52.1136 H         1 UNK         0.3000 
    216 H216       -8.3773  -19.9099  -54.3373 H         1 UNK         0.0600 
    217 H217       -8.8895  -21.9674  -55.6626 H         1 UNK         0.0600 
    218 H218       -9.9600  -21.8179  -54.2784 H         1 UNK         0.0600 
    219 H219       -8.6212  -22.9662  -54.2390 H         1 UNK         0.0600 
    220 H220       -6.1185  -22.2618  -52.9529 H         1 UNK         0.3000 
    221 H221       -4.2038  -22.1284  -55.1619 H         1 UNK         0.0600 
    222 H222       -3.9624  -23.3122  -52.3408 H         1 UNK         0.0600 
    223 H223       -4.3972  -24.1971  -53.8016 H         1 UNK         0.0600 
    224 H224       -2.7928  -23.4990  -53.6398 H         1 UNK         0.0600 
    225 H225       -4.4364  -20.9337  -51.7881 H         1 UNK         0.3000 
    226 H226       -2.0608  -19.5008  -51.6142 H         1 UNK         0.0600 
    227 H227       -3.3090  -18.2827  -49.7529 H         1 UNK         0.0600 
    228 H228       -4.7765  -19.0768  -50.2719 H         1 UNK         0.0600 
    229 H229       -3.4273  -20.0363  -49.6639 H         1 UNK         0.0600 
    230 H230       -5.2577  -18.3151  -52.7577 H         1 UNK         0.3000 
    231 H231       -4.4408  -15.6230  -53.2277 H         1 UNK         0.0600 
    232 H232       -6.7380  -17.2631  -54.4225 H         1 UNK         0.0600 
    233 H233       -6.5873  -15.5110  -54.5120 H         1 UNK         0.0600 
    234 H234       -6.8096  -16.2899  -52.9533 H         1 UNK         0.0600 
    235 H235       -3.9308  -18.5408  -55.1201 H         1 UNK         0.3000 
    236 H236       -3.4722  -17.1209  -57.6438 H         1 UNK         0.0600 
    237 H237       -2.9610  -19.3523  -58.5314 H         1 UNK         0.0600 
    238 H238       -3.0243  -20.0627  -56.9274 H         1 UNK         0.0600 
    239 H239       -4.4823  -19.3931  -57.6532 H         1 UNK         0.0600 
    240 H240       -1.4792  -18.9037  -55.1878 H         1 UNK         0.3000 
    241 H241        0.9789  -18.0403  -56.5105 H         1 UNK         0.0600 
    242 H242       -0.8896  -16.6802  -53.7656 H         1 UNK         0.3800 
    243 H243        0.3033  -15.4440  -53.4762 H         1 UNK         0.3800 
    244 H244        2.1974  -19.3453  -54.8475 H         1 UNK         0.0800 
    245 H245        0.9832  -20.2690  -55.6705 H         1 UNK         0.0800 
    246 H246        1.7694  -18.3783  -52.2444 H         1 UNK         0.0800 
    247 H247        2.6260  -19.8901  -52.4593 H         1 UNK         0.0800 
@<TRIPOS>BOND
     1    1    2 1    
     2    1  127 1    
     3    1  128 1    
     4    1  129 1    
     5    2    3 2    
     6    2    4 am   BACKBONE|DICT|INTERRES
     7    4    5 1    
     8    4  130 1    
     9    5    6 1    
    10    5   65 1    
    11    5  131 1    
    12    6    7 1    
    13    6  132 1    
    14    6  133 1    
    15    7    8 1    
    16    8    9 1    
    17    8  134 1    
    18    8  135 1    
    19    9   10 ar   
    20    9   14 ar   
    21   10   11 ar   
    22   10  136 1    
    23   11   12 ar   
    24   11  126 1    
    25   12   13 ar   
    26   12  137 1    
    27   13   14 ar   
    28   13   15 1    
    29   14  138 1    
    30   15   16 1    
    31   15  139 1    
    32   15  140 1    
    33   16   17 1    
    34   17   18 1    
    35   17  141 1    
    36   17  142 1    
    37   18   19 1    
    38   18   67 1    
    39   18  143 1    
    40   19   20 am   BACKBONE|DICT|INTERRES
    41   19  144 1    
    42   20   21 2    
    43   20   22 1    
    44   22   23 1    
    45   22   24 1    
    46   22  145 1    
    47   23  146 1    
    48   23  147 1    
    49   23  148 1    
    50   24   25 am   BACKBONE|DICT|INTERRES
    51   24  149 1    
    52   25   26 2    
    53   25   27 1    
    54   27   28 1    
    55   27   29 1    
    56   27  150 1    
    57   28  151 1    
    58   28  152 1    
    59   28  153 1    
    60   29   30 am   BACKBONE|DICT|INTERRES
    61   29  154 1    
    62   30   31 2    
    63   30   32 1    
    64   32   33 1    
    65   32   34 1    
    66   32  155 1    
    67   33  156 1    
    68   33  157 1    
    69   33  158 1    
    70   34   35 am   BACKBONE|DICT|INTERRES
    71   34  159 1    
    72   35   36 2    
    73   35   37 1    
    74   37   38 1    
    75   37   39 1    
    76   37  160 1    
    77   38  161 1    
    78   38  162 1    
    79   38  163 1    
    80   39   40 am   BACKBONE|DICT|INTERRES
    81   39  164 1    
    82   40   41 2    
    83   40   42 1    
    84   42   43 1    
    85   42   44 1    
    86   42  165 1    
    87   43  166 1    
    88   43  167 1    
    89   43  168 1    
    90   44   45 am   BACKBONE|DICT|INTERRES
    91   44  169 1    
    92   45   46 2    
    93   45   47 1    
    94   47   48 1    
    95   47   49 1    
    96   47  170 1    
    97   48  171 1    
    98   48  172 1    
    99   48  173 1    
   100   49   50 am   BACKBONE|DICT|INTERRES
   101   49  174 1    
   102   50   51 2    
   103   50   52 1    
   104   52   53 1    
   105   52   54 1    
   106   52  175 1    
   107   53  176 1    
   108   53  177 1    
   109   53  178 1    
   110   54   55 am   BACKBONE|DICT|INTERRES
   111   54  179 1    
   112   55   56 2    
   113   55   57 1    
   114   57   58 1    
   115   57   59 1    
   116   57  180 1    
   117   58  181 1    
   118   58  182 1    
   119   58  183 1    
   120   59   60 am   BACKBONE|DICT|INTERRES
   121   59  184 1    
   122   60   61 2    
   123   60   62 1    
   124   62   63 1    
   125   62   64 1    
   126   62  185 1    
   127   63  186 1    
   128   63  187 1    
   129   63  188 1    
   130   64   65 am   BACKBONE|DICT|INTERRES
   131   64  189 1    
   132   65   66 2    
   133   67   68 2    
   134   67   69 am   BACKBONE|DICT|INTERRES
   135   69   70 1    
   136   69  190 1    
   137   70   71 1    
   138   70   72 1    
   139   70  191 1    
   140   71  192 1    
   141   71  193 1    
   142   71  194 1    
   143   72   73 2    
   144   72   74 am   BACKBONE|DICT|INTERRES
   145   74   75 1    
   146   74  195 1    
   147   75   76 1    
   148   75   77 1    
   149   75  196 1    
   150   76  197 1    
   151   76  198 1    
   152   76  199 1    
   153   77   78 2    
   154   77   79 am   BACKBONE|DICT|INTERRES
   155   79   80 1    
   156   79  200 1    
   157   80   81 1    
   158   80   82 1    
   159   80  201 1    
   160   81  202 1    
   161   81  203 1    
   162   81  204 1    
   163   82   83 2    
   164   82   84 am   BACKBONE|DICT|INTERRES
   165   84   85 1    
   166   84  205 1    
   167   85   86 1    
   168   85   87 1    
   169   85  206 1    
   170   86  207 1    
   171   86  208 1    
   172   86  209 1    
   173   87   88 2    
   174   87   89 am   BACKBONE|DICT|INTERRES
   175   89   90 1    
   176   89  210 1    
   177   90   91 1    
   178   90   92 1    
   179   90  211 1    
   180   91  212 1    
   181   91  213 1    
   182   91  214 1    
   183   92   93 2    
   184   92   94 am   BACKBONE|DICT|INTERRES
   185   94   95 1    
   186   94  215 1    
   187   95   96 1    
   188   95   97 1    
   189   95  216 1    
   190   96  217 1    
   191   96  218 1    
   192   96  219 1    
   193   97   98 2    
   194   97   99 am   BACKBONE|DICT|INTERRES
   195   99  100 1    
   196   99  220 1    
   197  100  101 1    
   198  100  102 1    
   199  100  221 1    
   200  101  222 1    
   201  101  223 1    
   202  101  224 1    
   203  102  103 2    
   204  102  104 am   BACKBONE|DICT|INTERRES
   205  104  105 1    
   206  104  225 1    
   207  105  106 1    
   208  105  107 1    
   209  105  226 1    
   210  106  227 1    
   211  106  228 1    
   212  106  229 1    
   213  107  108 2    
   214  107  109 am   BACKBONE|DICT|INTERRES
   215  109  110 1    
   216  109  230 1    
   217  110  111 1    
   218  110  112 1    
   219  110  231 1    
   220  111  232 1    
   221  111  233 1    
   222  111  234 1    
   223  112  113 2    
   224  112  114 am   BACKBONE|DICT|INTERRES
   225  114  115 1    
   226  114  235 1    
   227  115  116 1    
   228  115  117 1    
   229  115  236 1    
   230  116  237 1    
   231  116  238 1    
   232  116  239 1    
   233  117  118 2    
   234  117  119 am   BACKBONE|DICT|INTERRES
   235  119  120 1    
   236  119  240 1    
   237  120  121 1    
   238  120  124 1    
   239  120  241 1    
   240  121  122 am   BACKBONE|DICT|INTERRES
   241  121  123 2    
   242  122  242 1    
   243  122  243 1    
   244  124  125 1    
   245  124  244 1    
   246  124  245 1    
   247  125  126 1    
   248  126  246 1    
   249  126  247 1    
@<TRIPOS>SUBSTRUCTURE
     1 UNK         1 GROUP             0       ****    0 ROOT    
