@<TRIPOS>MOLECULE
3R540
247   249    1
SMALL
USER_CHARGES


@<TRIPOS>ATOM
      1 CA         10.2098  -12.4218  -47.3913 C.3       0 UNK        -0.1800 
      2 C           8.7390  -12.7439  -47.1710 C.2       0 UNK         0.5000 
      3 O           8.2631  -12.7026  -46.0363 O.2       0 UNK        -0.5000 
      4 N           8.0049  -13.0400  -48.2510 N.am      1 UNK        -0.5000 
      5 CA          6.5816  -13.4118  -48.2624 C.3       1 UNK         0.1400 
      6 C6          6.2607  -14.2965  -49.4979 C.3       23 UNK        -0.0398 
      7 S7          4.8708  -15.4447  -49.2160 S.3       23 UNK        -0.2404 
      8 C8          3.8362  -15.0966  -50.6712 C.3       23 UNK        -0.0205 
      9 C9          2.5366  -15.8863  -50.6375 C.ar      23 UNK        -0.0193 
     10 C10         1.3471  -15.2646  -50.2491 C.ar      23 UNK        -0.1150 
     11 C11         0.1456  -15.9787  -50.2304 C.ar      23 UNK        -0.0193 
     12 C12         0.1404  -17.3289  -50.5939 C.ar      23 UNK        -0.1150 
     13 C13         1.3239  -17.9650  -50.9755 C.ar      23 UNK        -0.0193 
     14 C14         2.5184  -17.2370  -50.9998 C.ar      23 UNK        -0.1150 
     15 C15         1.3135  -19.4335  -51.3730 C.3       23 UNK        -0.0205 
     16 S16         1.4855  -20.5247  -49.9252 S.3       23 UNK        -0.2404 
     17 C17        -0.2415  -21.0312  -49.6136 C.3       23 UNK        -0.0398 
     18 CA         -0.3067  -22.1686  -48.5648 C.3       11 UNK         0.1400 
     19 N          -0.0170  -21.7016  -47.2069 N.am      11 UNK        -0.5000 
     20 C           0.2403  -22.5068  -46.1678 C.2       10 UNK         0.5000 
     21 O           0.2669  -23.7347  -46.2481 O.2       10 UNK        -0.5000 
     22 CA          0.4659  -21.8352  -44.8017 C.3       10 UNK         0.1400 
     23 CB          1.8568  -21.1875  -44.7295 C.3       10 UNK        -0.1800 
     24 N          -0.5596  -20.8420  -44.4832 N.am      10 UNK        -0.5000 
     25 C          -1.8612  -21.1170  -44.3186 C.2       9 UNK         0.5000 
     26 O          -2.3374  -22.2493  -44.3972 O.2       9 UNK        -0.5000 
     27 CA         -2.7976  -19.9201  -44.0708 C.3       9 UNK         0.1400 
     28 CB         -2.7261  -19.4505  -42.6101 C.3       9 UNK        -0.1800 
     29 N          -2.5204  -18.7964  -44.9650 N.am      9 UNK        -0.5000 
     30 C          -2.6463  -18.8491  -46.2987 C.2       8 UNK         0.5000 
     31 O          -3.0319  -19.8400  -46.9145 O.2       8 UNK        -0.5000 
     32 CA         -2.2177  -17.6024  -47.0847 C.3       8 UNK         0.1400 
     33 CB         -3.3008  -16.5159  -46.9924 C.3       8 UNK        -0.1800 
     34 N          -0.9283  -17.0783  -46.6345 N.am      8 UNK        -0.5000 
     35 C           0.2223  -17.7685  -46.6605 C.2       7 UNK         0.5000 
     36 O           0.3233  -18.9062  -47.1136 O.2       7 UNK        -0.5000 
     37 CA          1.4529  -17.1134  -46.0130 C.3       7 UNK         0.1400 
     38 CB          2.1115  -16.1184  -46.9715 C.3       7 UNK        -0.1800 
     39 N           1.1396  -16.4472  -44.7520 N.am      7 UNK        -0.5000 
     40 C           0.6930  -17.0691  -43.6527 C.2       6 UNK         0.5000 
     41 O           0.5117  -18.2841  -43.5771 O.2       6 UNK        -0.5000 
     42 CA          0.3594  -16.1747  -42.4487 C.3       6 UNK         0.1400 
     43 CB          1.6309  -15.8105  -41.6672 C.3       6 UNK        -0.1800 
     44 N          -0.3287  -14.9532  -42.8631 N.am      6 UNK        -0.5000 
     45 C          -1.6027  -14.9098  -43.2759 C.2       5 UNK         0.5000 
     46 O          -2.3456  -15.8919  -43.3119 O.2       5 UNK        -0.5000 
     47 CA         -2.1180  -13.5408  -43.7610 C.3       5 UNK         0.1400 
     48 CB         -2.5277  -12.6603  -42.5709 C.3       5 UNK        -0.1800 
     49 N          -1.1408  -12.8231  -44.5847 N.am      5 UNK        -0.5000 
     50 C          -0.7276  -13.2447  -45.7877 C.2       4 UNK         0.5000 
     51 O          -1.1340  -14.2744  -46.3186 O.2       4 UNK        -0.5000 
     52 CA          0.3456  -12.4089  -46.5069 C.3       4 UNK         0.1400 
     53 CB         -0.3045  -11.2879  -47.3300 C.3       4 UNK        -0.1800 
     54 N           1.3670  -11.8382  -45.6262 N.am      4 UNK        -0.5000 
     55 C           2.1466  -12.5234  -44.7797 C.2       3 UNK         0.5000 
     56 O           2.0200  -13.7281  -44.5563 O.2       3 UNK        -0.5000 
     57 CA          3.2769  -11.7238  -44.1038 C.3       3 UNK         0.1400 
     58 CB          3.9912  -12.5283  -43.0029 C.3       3 UNK        -0.1800 
     59 N           4.2679  -11.2946  -45.0908 N.am      3 UNK        -0.5000 
     60 C           4.1375  -10.2568  -45.9290 C.2       2 UNK         0.5000 
     61 O           3.1571   -9.5104  -45.9376 O.2       2 UNK        -0.5000 
     62 CA          5.2819  -10.0190  -46.9308 C.3       2 UNK         0.1400 
     63 CB          6.2616   -8.9682  -46.3865 C.3       2 UNK        -0.1800 
     64 N           6.0234  -11.2436  -47.2346 N.am      2 UNK        -0.5000 
     65 C           5.6458  -12.1819  -48.1128 C.2       1 UNK         0.5000 
     66 O           4.6228  -12.0866  -48.7922 O.2       1 UNK        -0.5000 
     67 C          -1.6373  -22.9448  -48.6361 C.2       11 UNK         0.5000 
     68 O          -1.6930  -23.9633  -49.3247 O.2       11 UNK        -0.5000 
     69 N          -2.6649  -22.5026  -47.8956 N.am      12 UNK        -0.5000 
     70 CA         -3.9416  -23.2073  -47.7688 C.3       12 UNK         0.1400 
     71 CB         -4.9636  -22.3286  -47.0306 C.3       12 UNK        -0.1800 
     72 C          -3.7995  -24.5735  -47.0748 C.2       12 UNK         0.5000 
     73 O          -4.3874  -25.5502  -47.5407 O.2       12 UNK        -0.5000 
     74 N          -2.9991  -24.6265  -46.0008 N.am      13 UNK        -0.5000 
     75 CA         -2.6703  -25.8532  -45.2741 C.3       13 UNK         0.1400 
     76 CB         -1.9357  -25.5050  -43.9708 C.3       13 UNK        -0.1800 
     77 C          -1.8477  -26.8408  -46.1210 C.2       13 UNK         0.5000 
     78 O          -2.1232  -28.0399  -46.0829 O.2       13 UNK        -0.5000 
     79 N          -0.8826  -26.3205  -46.8930 N.am      14 UNK        -0.5000 
     80 CA         -0.0629  -27.0876  -47.8332 C.3       14 UNK         0.1400 
     81 CB          1.0851  -26.2092  -48.3528 C.3       14 UNK        -0.1800 
     82 C          -0.8809  -27.6647  -49.0035 C.2       14 UNK         0.5000 
     83 O          -0.6570  -28.8118  -49.3921 O.2       14 UNK        -0.5000 
     84 N          -1.8284  -26.8728  -49.5258 N.am      15 UNK        -0.5000 
     85 CA         -2.7778  -27.2842  -50.5617 C.3       15 UNK         0.1400 
     86 CB         -3.4712  -26.0382  -51.1328 C.3       15 UNK        -0.1800 
     87 C          -3.8291  -28.2904  -50.0556 C.2       15 UNK         0.5000 
     88 O          -4.3646  -29.0557  -50.8578 O.2       15 UNK        -0.5000 
     89 N          -4.1269  -28.2488  -48.7483 N.am      16 UNK        -0.5000 
     90 CA         -5.0776  -29.0561  -47.9701 C.3       16 UNK         0.1400 
     91 CB         -4.7546  -30.5588  -48.0631 C.3       16 UNK        -0.1800 
     92 C          -6.5588  -28.7764  -48.2935 C.2       16 UNK         0.5000 
     93 O          -7.3804  -28.7230  -47.3785 O.2       16 UNK        -0.5000 
     94 N          -6.8684  -28.5585  -49.5758 N.am      17 UNK        -0.5000 
     95 CA         -8.1734  -28.1485  -50.0967 C.3       17 UNK         0.1400 
     96 CB         -8.2779  -28.6257  -51.5550 C.3       17 UNK        -0.1800 
     97 C          -8.4152  -26.6255  -49.9969 C.2       17 UNK         0.5000 
     98 O          -9.4460  -26.1508  -50.4765 O.2       17 UNK        -0.5000 
     99 N          -7.4661  -25.8905  -49.3977 N.am      18 UNK        -0.5000 
    100 CA        -7.3964  -24.4321  -49.2976 C.3       18 UNK         0.1400 
    101 CB        -8.5772  -23.8590  -48.4817 C.3       18 UNK        -0.1800 
    102 C         -7.1837  -23.7797  -50.6800 C.2       18 UNK         0.5000 
    103 O         -6.4348  -24.3319  -51.4879 O.2       18 UNK        -0.5000 
    104 N         -7.8136  -22.6188  -50.9168 N.am      19 UNK        -0.5000 
    105 CA        -7.7420  -21.8117  -52.1418 C.3       19 UNK         0.1400 
    106 CB        -8.3991  -22.5532  -53.3258 C.3       19 UNK        -0.1800 
    107 C         -6.3084  -21.3258  -52.4460 C.2       19 UNK         0.5000 
    108 O         -5.7883  -21.5503  -53.5414 O.2       19 UNK        -0.5000 
    109 N         -5.6920  -20.6765  -51.4479 N.am      20 UNK        -0.5000 
    110 CA        -4.3689  -20.0557  -51.5408 C.3       20 UNK         0.1400 
    111 CB        -3.9399  -19.5871  -50.1419 C.3       20 UNK        -0.1800 
    112 C         -4.3337  -18.8781  -52.5360 C.2       20 UNK         0.5000 
    113 O         -5.3710  -18.2702  -52.8147 O.2       20 UNK        -0.5000 
    114 N         -3.1257  -18.5612  -53.0226 N.am      21 UNK        -0.5000 
    115 CA        -2.8428  -17.5745  -54.0733 C.3       21 UNK         0.1400 
    116 CB        -1.3242  -17.5283  -54.3075 C.3       21 UNK        -0.1800 
    117 C         -3.3825  -16.1520  -53.8190 C.2       21 UNK         0.5000 
    118 O         -3.6873  -15.4440  -54.7801 O.2       21 UNK        -0.5000 
    119 N         -3.4995  -15.7673  -52.5431 N.am      22 UNK        -0.5000 
    120 CA        -4.0600  -14.4773  -52.1064 C.3       22 UNK         0.1400 
    121 C         -5.6157  -14.4562  -52.0247 C.2       22 UNK         0.5000 
    122 N         -6.3197  -15.5605  -52.2479 N.am      22 UNK        -0.7600 
    123 O         -6.2007  -13.4089  -51.7625 O.2       22 UNK        -0.5000 
    124 C124       -3.4219  -13.9802  -50.7827 C.3       23 UNK        -0.0398 
    125 S125       -1.5985  -13.9127  -50.8740 S.3       23 UNK        -0.2404 
    126 C126       -1.1421  -15.3030  -49.7922 C.3       23 UNK        -0.0205 
    127 H127       10.4867  -12.4897  -48.4436 H         1 UNK         0.0600 
    128 H128       10.8337  -13.1173  -46.8299 H         1 UNK         0.0600 
    129 H129       10.4282  -11.4112  -47.0462 H         1 UNK         0.0600 
    130 H130        8.4486  -13.0102  -49.1583 H         1 UNK         0.3000 
    131 H131        6.4107  -14.0231  -47.3735 H         1 UNK         0.0600 
    132 H132        6.0899  -13.6868  -50.3869 H         1 UNK         0.0800 
    133 H133        7.1195  -14.9251  -49.7380 H         1 UNK         0.0800 
    134 H134        3.6262  -14.0265  -50.7155 H         1 UNK         0.0800 
    135 H135        4.3906  -15.3423  -51.5782 H         1 UNK         0.0800 
    136 H136        1.3533  -14.2229  -49.9600 H         1 UNK         0.1150 
    137 H137       -0.7817  -17.8907  -50.5724 H         1 UNK         0.1150 
    138 H138        3.4383  -17.7226  -51.2941 H         1 UNK         0.1150 
    139 H139        0.4037  -19.6691  -51.9264 H         1 UNK         0.0800 
    140 H140        2.1391  -19.6345  -52.0572 H         1 UNK         0.0800 
    141 H141       -0.6681  -21.3586  -50.5635 H         1 UNK         0.0800 
    142 H142       -0.8230  -20.1673  -49.2883 H         1 UNK         0.0800 
    143 H143        0.4697  -22.8928  -48.8211 H         1 UNK         0.0600 
    144 H144        0.0190  -20.6913  -47.0766 H         1 UNK         0.3000 
    145 H145        0.4175  -22.6148  -44.0388 H         1 UNK         0.0600 
    146 H146        2.0476  -20.7736  -43.7392 H         1 UNK         0.0600 
    147 H147        2.6391  -21.9195  -44.9337 H         1 UNK         0.0600 
    148 H148        1.9647  -20.3808  -45.4546 H         1 UNK         0.0600 
    149 H149       -0.2448  -19.8825  -44.3684 H         1 UNK         0.3000 
    150 H150       -3.8185  -20.2542  -44.2671 H         1 UNK         0.0600 
    151 H151       -2.9647  -20.2663  -41.9267 H         1 UNK         0.0600 
    152 H152       -3.4379  -18.6469  -42.4198 H         1 UNK         0.0600 
    153 H153       -1.7333  -19.0839  -42.3492 H         1 UNK         0.0600 
    154 H154       -2.1871  -17.9417  -44.5381 H         1 UNK         0.3000 
    155 H155       -2.1086  -17.8923  -48.1310 H         1 UNK         0.0600 
    156 H156       -3.4209  -16.1540  -45.9706 H         1 UNK         0.0600 
    157 H157       -3.0653  -15.6577  -47.6194 H         1 UNK         0.0600 
    158 H158       -4.2673  -16.8995  -47.3218 H         1 UNK         0.0600 
    159 H159       -0.9250  -16.1208  -46.2911 H         1 UNK         0.3000 
    160 H160        2.1767  -17.9019  -45.7979 H         1 UNK         0.0600 
    161 H161        2.9959  -15.6599  -46.5289 H         1 UNK         0.0600 
    162 H162        1.4261  -15.3228  -47.2597 H         1 UNK         0.0600 
    163 H163        2.4275  -16.6277  -47.8815 H         1 UNK         0.0600 
    164 H164        1.3040  -15.4441  -44.7125 H         1 UNK         0.3000 
    165 H165       -0.2995  -16.7371  -41.7835 H         1 UNK         0.0600 
    166 H166        1.3958  -15.2077  -40.7900 H         1 UNK         0.0600 
    167 H167        2.1420  -16.7084  -41.3176 H         1 UNK         0.0600 
    168 H168        2.3372  -15.2501  -42.2803 H         1 UNK         0.0600 
    169 H169        0.2336  -14.1175  -42.9344 H         1 UNK         0.3000 
    170 H170       -3.0055  -13.7207  -44.3716 H         1 UNK         0.0600 
    171 H171       -1.6752  -12.4164  -41.9358 H         1 UNK         0.0600 
    172 H172       -2.9740  -11.7247  -42.9083 H         1 UNK         0.0600 
    173 H173       -3.2671  -13.1659  -41.9483 H         1 UNK         0.0600 
    174 H174       -0.7538  -11.9699  -44.2092 H         1 UNK         0.3000 
    175 H175        0.8613  -13.0723  -47.2029 H         1 UNK         0.0600 
    176 H176       -0.8066  -10.5593  -46.6925 H         1 UNK         0.0600 
    177 H177       -1.0475  -11.6911  -48.0200 H         1 UNK         0.0600 
    178 H178        0.4371  -10.7574  -47.9278 H         1 UNK         0.0600 
    179 H179        1.5916  -10.8598  -45.7699 H         1 UNK         0.3000 
    180 H180        2.8290  -10.8437  -43.6375 H         1 UNK         0.0600 
    181 H181        4.4699  -13.4239  -43.4012 H         1 UNK         0.0600 
    182 H182        3.2871  -12.8461  -42.2329 H         1 UNK         0.0600 
    183 H183        4.7581  -11.9290  -42.5119 H         1 UNK         0.0600 
    184 H184        5.0920  -11.8710  -45.1761 H         1 UNK         0.3000 
    185 H185        4.8426   -9.6307  -47.8521 H         1 UNK         0.0600 
    186 H186        7.0442   -8.7464  -47.1122 H         1 UNK         0.0600 
    187 H187        5.7477   -8.0314  -46.1670 H         1 UNK         0.0600 
    188 H188        6.7422   -9.3034  -45.4664 H         1 UNK         0.0600 
    189 H189        6.8702  -11.4165  -46.7034 H         1 UNK         0.3000 
    190 H190       -2.5776  -21.6290  -47.3821 H         1 UNK         0.3000 
    191 H191       -4.3146  -23.3869  -48.7789 H         1 UNK         0.0600 
    192 H192       -5.1896  -21.4252  -47.5963 H         1 UNK         0.0600 
    193 H193       -5.9044  -22.8568  -46.8740 H         1 UNK         0.0600 
    194 H194       -4.5965  -22.0254  -46.0499 H         1 UNK         0.0600 
    195 H195       -2.5907  -23.7663  -45.6468 H         1 UNK         0.3000 
    196 H196       -3.6086  -26.3458  -45.0107 H         1 UNK         0.0600 
    197 H197       -1.6899  -26.4060  -43.4075 H         1 UNK         0.0600 
    198 H198       -2.5529  -24.8775  -43.3276 H         1 UNK         0.0600 
    199 H199       -1.0042  -24.9717  -44.1620 H         1 UNK         0.0600 
    200 H200       -0.6740  -25.3291  -46.8108 H         1 UNK         0.3000 
    201 H201        0.3734  -27.9266  -47.2872 H         1 UNK         0.0600 
    202 H202        1.7071  -25.8476  -47.5338 H         1 UNK         0.0600 
    203 H203        0.7130  -25.3422  -48.8986 H         1 UNK         0.0600 
    204 H204        1.7310  -26.7706  -49.0290 H         1 UNK         0.0600 
    205 H205       -1.8967  -25.9112  -49.2049 H         1 UNK         0.3000 
    206 H206       -2.2200  -27.7654  -51.3676 H         1 UNK         0.0600 
    207 H207       -2.7487  -25.3502  -51.5717 H         1 UNK         0.0600 
    208 H208       -4.1817  -26.3061  -51.9160 H         1 UNK         0.0600 
    209 H209       -4.0226  -25.4965  -50.3634 H         1 UNK         0.0600 
    210 H210       -3.6848  -27.5097  -48.2148 H         1 UNK         0.3000 
    211 H211       -4.9256  -28.7544  -46.9325 H         1 UNK         0.0600 
    212 H212       -4.9127  -30.9510  -49.0679 H         1 UNK         0.0600 
    213 H213       -5.3886  -31.1337  -47.3871 H         1 UNK         0.0600 
    214 H214       -3.7191  -30.7551  -47.7842 H         1 UNK         0.0600 
    215 H215       -6.1177  -28.6586  -50.2535 H         1 UNK         0.3000 
    216 H216       -8.9577  -28.6408  -49.5183 H         1 UNK         0.0600 
    217 H217       -9.2580  -28.3984  -51.9761 H         1 UNK         0.0600 
    218 H218       -8.1385  -29.7045  -51.6279 H         1 UNK         0.0600 
    219 H219       -7.5287  -28.1471  -52.1872 H         1 UNK         0.0600 
    220 H220       -6.6493  -26.3812  -49.0633 H         1 UNK         0.3000 
    221 H221       -6.4899  -24.2293  -48.7333 H         1 UNK         0.0600 
    222 H222       -9.5231  -23.9300  -49.0196 H         1 UNK         0.0600 
    223 H223       -8.6929  -24.3929  -47.5383 H         1 UNK         0.0600 
    224 H224       -8.4137  -22.8101  -48.2324 H         1 UNK         0.0600 
    225 H225       -8.4057  -22.2485  -50.1869 H         1 UNK         0.3000 
    226 H226       -8.3334  -20.9140  -51.9552 H         1 UNK         0.0600 
    227 H227       -9.4199  -22.8507  -53.0862 H         1 UNK         0.0600 
    228 H228       -8.4461  -21.9133  -54.2077 H         1 UNK         0.0600 
    229 H229       -7.8459  -23.4507  -53.6039 H         1 UNK         0.0600 
    230 H230       -6.1997  -20.5223  -50.5900 H         1 UNK         0.3000 
    231 H231       -3.6659  -20.8173  -51.8847 H         1 UNK         0.0600 
    232 H232       -4.6271  -18.8446  -49.7341 H         1 UNK         0.0600 
    233 H233       -2.9468  -19.1386  -50.1611 H         1 UNK         0.0600 
    234 H234       -3.8998  -20.4240  -49.4462 H         1 UNK         0.0600 
    235 H235       -2.3339  -19.1108  -52.7251 H         1 UNK         0.3000 
    236 H236       -3.3175  -17.9370  -54.9871 H         1 UNK         0.0600 
    237 H237       -0.9347  -18.5070  -54.5879 H         1 UNK         0.0600 
    238 H238       -1.0736  -16.8383  -55.1144 H         1 UNK         0.0600 
    239 H239       -0.7902  -17.1953  -53.4166 H         1 UNK         0.0600 
    240 H240       -3.2367  -16.4157  -51.8183 H         1 UNK         0.3000 
    241 H241       -3.8070  -13.7351  -52.8661 H         1 UNK         0.0600 
    242 H242       -5.8695  -16.4418  -52.4789 H         1 UNK         0.3800 
    243 H243       -7.3249  -15.5202  -52.1957 H         1 UNK         0.3800 
    244 H244       -3.7717  -12.9725  -50.5523 H         1 UNK         0.0800 
    245 H245       -3.7373  -14.6022  -49.9437 H         1 UNK         0.0800 
    246 H246       -1.9506  -16.0333  -49.7693 H         1 UNK         0.0800 
    247 H247       -1.0223  -14.9354  -48.7748 H         1 UNK         0.0800 
@<TRIPOS>BOND
     1    1    2 1    
     2    1  127 1    
     3    1  128 1    
     4    1  129 1    
     5    2    3 2    
     6    2    4 am   BACKBONE|DICT|INTERRES
     7    4    5 1    
     8    4  130 1    
     9    5    6 1    
    10    5   65 1    
    11    5  131 1    
    12    6    7 1    
    13    6  132 1    
    14    6  133 1    
    15    7    8 1    
    16    8    9 1    
    17    8  134 1    
    18    8  135 1    
    19    9   10 ar   
    20    9   14 ar   
    21   10   11 ar   
    22   10  136 1    
    23   11   12 ar   
    24   11  126 1    
    25   12   13 ar   
    26   12  137 1    
    27   13   14 ar   
    28   13   15 1    
    29   14  138 1    
    30   15   16 1    
    31   15  139 1    
    32   15  140 1    
    33   16   17 1    
    34   17   18 1    
    35   17  141 1    
    36   17  142 1    
    37   18   19 1    
    38   18   67 1    
    39   18  143 1    
    40   19   20 am   BACKBONE|DICT|INTERRES
    41   19  144 1    
    42   20   21 2    
    43   20   22 1    
    44   22   23 1    
    45   22   24 1    
    46   22  145 1    
    47   23  146 1    
    48   23  147 1    
    49   23  148 1    
    50   24   25 am   BACKBONE|DICT|INTERRES
    51   24  149 1    
    52   25   26 2    
    53   25   27 1    
    54   27   28 1    
    55   27   29 1    
    56   27  150 1    
    57   28  151 1    
    58   28  152 1    
    59   28  153 1    
    60   29   30 am   BACKBONE|DICT|INTERRES
    61   29  154 1    
    62   30   31 2    
    63   30   32 1    
    64   32   33 1    
    65   32   34 1    
    66   32  155 1    
    67   33  156 1    
    68   33  157 1    
    69   33  158 1    
    70   34   35 am   BACKBONE|DICT|INTERRES
    71   34  159 1    
    72   35   36 2    
    73   35   37 1    
    74   37   38 1    
    75   37   39 1    
    76   37  160 1    
    77   38  161 1    
    78   38  162 1    
    79   38  163 1    
    80   39   40 am   BACKBONE|DICT|INTERRES
    81   39  164 1    
    82   40   41 2    
    83   40   42 1    
    84   42   43 1    
    85   42   44 1    
    86   42  165 1    
    87   43  166 1    
    88   43  167 1    
    89   43  168 1    
    90   44   45 am   BACKBONE|DICT|INTERRES
    91   44  169 1    
    92   45   46 2    
    93   45   47 1    
    94   47   48 1    
    95   47   49 1    
    96   47  170 1    
    97   48  171 1    
    98   48  172 1    
    99   48  173 1    
   100   49   50 am   BACKBONE|DICT|INTERRES
   101   49  174 1    
   102   50   51 2    
   103   50   52 1    
   104   52   53 1    
   105   52   54 1    
   106   52  175 1    
   107   53  176 1    
   108   53  177 1    
   109   53  178 1    
   110   54   55 am   BACKBONE|DICT|INTERRES
   111   54  179 1    
   112   55   56 2    
   113   55   57 1    
   114   57   58 1    
   115   57   59 1    
   116   57  180 1    
   117   58  181 1    
   118   58  182 1    
   119   58  183 1    
   120   59   60 am   BACKBONE|DICT|INTERRES
   121   59  184 1    
   122   60   61 2    
   123   60   62 1    
   124   62   63 1    
   125   62   64 1    
   126   62  185 1    
   127   63  186 1    
   128   63  187 1    
   129   63  188 1    
   130   64   65 am   BACKBONE|DICT|INTERRES
   131   64  189 1    
   132   65   66 2    
   133   67   68 2    
   134   67   69 am   BACKBONE|DICT|INTERRES
   135   69   70 1    
   136   69  190 1    
   137   70   71 1    
   138   70   72 1    
   139   70  191 1    
   140   71  192 1    
   141   71  193 1    
   142   71  194 1    
   143   72   73 2    
   144   72   74 am   BACKBONE|DICT|INTERRES
   145   74   75 1    
   146   74  195 1    
   147   75   76 1    
   148   75   77 1    
   149   75  196 1    
   150   76  197 1    
   151   76  198 1    
   152   76  199 1    
   153   77   78 2    
   154   77   79 am   BACKBONE|DICT|INTERRES
   155   79   80 1    
   156   79  200 1    
   157   80   81 1    
   158   80   82 1    
   159   80  201 1    
   160   81  202 1    
   161   81  203 1    
   162   81  204 1    
   163   82   83 2    
   164   82   84 am   BACKBONE|DICT|INTERRES
   165   84   85 1    
   166   84  205 1    
   167   85   86 1    
   168   85   87 1    
   169   85  206 1    
   170   86  207 1    
   171   86  208 1    
   172   86  209 1    
   173   87   88 2    
   174   87   89 am   BACKBONE|DICT|INTERRES
   175   89   90 1    
   176   89  210 1    
   177   90   91 1    
   178   90   92 1    
   179   90  211 1    
   180   91  212 1    
   181   91  213 1    
   182   91  214 1    
   183   92   93 2    
   184   92   94 am   BACKBONE|DICT|INTERRES
   185   94   95 1    
   186   94  215 1    
   187   95   96 1    
   188   95   97 1    
   189   95  216 1    
   190   96  217 1    
   191   96  218 1    
   192   96  219 1    
   193   97   98 2    
   194   97   99 am   BACKBONE|DICT|INTERRES
   195   99  100 1    
   196   99  220 1    
   197  100  101 1    
   198  100  102 1    
   199  100  221 1    
   200  101  222 1    
   201  101  223 1    
   202  101  224 1    
   203  102  103 2    
   204  102  104 am   BACKBONE|DICT|INTERRES
   205  104  105 1    
   206  104  225 1    
   207  105  106 1    
   208  105  107 1    
   209  105  226 1    
   210  106  227 1    
   211  106  228 1    
   212  106  229 1    
   213  107  108 2    
   214  107  109 am   BACKBONE|DICT|INTERRES
   215  109  110 1    
   216  109  230 1    
   217  110  111 1    
   218  110  112 1    
   219  110  231 1    
   220  111  232 1    
   221  111  233 1    
   222  111  234 1    
   223  112  113 2    
   224  112  114 am   BACKBONE|DICT|INTERRES
   225  114  115 1    
   226  114  235 1    
   227  115  116 1    
   228  115  117 1    
   229  115  236 1    
   230  116  237 1    
   231  116  238 1    
   232  116  239 1    
   233  117  118 2    
   234  117  119 am   BACKBONE|DICT|INTERRES
   235  119  120 1    
   236  119  240 1    
   237  120  121 1    
   238  120  124 1    
   239  120  241 1    
   240  121  122 am   BACKBONE|DICT|INTERRES
   241  121  123 2    
   242  122  242 1    
   243  122  243 1    
   244  124  125 1    
   245  124  244 1    
   246  124  245 1    
   247  125  126 1    
   248  126  246 1    
   249  126  247 1    
@<TRIPOS>SUBSTRUCTURE
     1 UNK         1 GROUP             0       ****    0 ROOT    
