@<TRIPOS>MOLECULE
3R540
247   249    1
SMALL
USER_CHARGES


@<TRIPOS>ATOM
      1 CA          4.2920   -9.5209  -54.0736 C.3       0 UNK        -0.1800 
      2 C           4.5521   -9.9816  -52.6461 C.2       0 UNK         0.5000 
      3 O           5.1300   -9.2344  -51.8560 O.2       0 UNK        -0.5000 
      4 N           4.1369  -11.2100  -52.3164 N.am      1 UNK        -0.5000 
      5 CA          4.2234  -11.7982  -50.9772 C.3       1 UNK         0.1400 
      6 C6          4.0282  -13.3389  -51.0036 C.3       23 UNK        -0.0398 
      7 S7          2.5014  -13.8883  -51.8535 S.3       23 UNK        -0.2404 
      8 C8          3.0091  -15.4851  -52.5615 C.3       23 UNK        -0.0205 
      9 C9          2.4704  -16.6566  -51.7550 C.ar      23 UNK        -0.0193 
     10 C10         1.3288  -17.3356  -52.1956 C.ar      23 UNK        -0.1150 
     11 C11         0.8592  -18.4512  -51.5002 C.ar      23 UNK        -0.0193 
     12 C12         1.5354  -18.8813  -50.3593 C.ar      23 UNK        -0.1150 
     13 C13         2.6617  -18.2024  -49.8894 C.ar      23 UNK        -0.0193 
     14 C14         3.1263  -17.0861  -50.5941 C.ar      23 UNK        -0.1150 
     15 C15         3.4038  -18.7211  -48.6624 C.3       23 UNK        -0.0205 
     16 S16         2.7866  -18.0432  -47.0817 S.3       23 UNK        -0.2404 
     17 C17         1.0425  -18.5810  -47.0144 C.3       23 UNK        -0.0398 
     18 CA          0.8347  -20.1166  -46.9831 C.3       11 UNK         0.1400 
     19 N           1.4441  -20.7675  -45.8220 N.am      11 UNK        -0.5000 
     20 C           1.5314  -22.0957  -45.6553 C.2       10 UNK         0.5000 
     21 O           1.1100  -22.9108  -46.4772 O.2       10 UNK        -0.5000 
     22 CA          2.1427  -22.6079  -44.3351 C.3       10 UNK         0.1400 
     23 CB          3.0810  -21.5853  -43.6622 C.3       10 UNK        -0.1800 
     24 N           1.1310  -23.0577  -43.3698 N.am      10 UNK        -0.5000 
     25 C           0.0487  -22.3818  -42.9537 C.2       9 UNK         0.5000 
     26 O          -0.3258  -21.3190  -43.4450 O.2       9 UNK        -0.5000 
     27 CA         -0.7736  -22.9686  -41.7914 C.3       9 UNK         0.1400 
     28 CB         -0.4254  -24.4298  -41.4267 C.3       9 UNK        -0.1800 
     29 N          -0.7022  -22.0858  -40.6216 N.am      9 UNK        -0.5000 
     30 C           0.3902  -21.7805  -39.9038 C.2       8 UNK         0.5000 
     31 O           1.5011  -22.2799  -40.0921 O.2       8 UNK        -0.5000 
     32 CA          0.1932  -20.7314  -38.7955 C.3       8 UNK         0.1400 
     33 CB          1.5030  -20.3500  -38.0804 C.3       8 UNK        -0.1800 
     34 N          -0.4072  -19.5256  -39.3598 N.am      8 UNK        -0.5000 
     35 C          -1.4191  -18.8333  -38.8196 C.2       7 UNK         0.5000 
     36 O          -1.9890  -19.1681  -37.7801 O.2       7 UNK        -0.5000 
     37 CA         -1.8768  -17.5432  -39.5370 C.3       7 UNK         0.1400 
     38 CB         -1.4121  -16.3033  -38.7571 C.3       7 UNK        -0.1800 
     39 N          -1.4015  -17.4253  -40.9155 N.am      7 UNK        -0.5000 
     40 C          -1.8042  -18.1907  -41.9388 C.2       6 UNK         0.5000 
     41 O          -2.6967  -19.0331  -41.8442 O.2       6 UNK        -0.5000 
     42 CA         -1.0704  -18.0022  -43.2840 C.3       6 UNK         0.1400 
     43 CB         -1.8991  -17.1073  -44.2177 C.3       6 UNK        -0.1800 
     44 N           0.2917  -17.4609  -43.1768 N.am      6 UNK        -0.5000 
     45 C           1.2893  -17.9600  -42.4244 C.2       5 UNK         0.5000 
     46 O           1.1813  -18.9803  -41.7466 O.2       5 UNK        -0.5000 
     47 CA          2.6180  -17.1765  -42.3656 C.3       5 UNK         0.1400 
     48 CB          3.7268  -17.9193  -43.1250 C.3       5 UNK        -0.1800 
     49 N           2.5250  -15.8109  -42.8800 N.am      5 UNK        -0.5000 
     50 C           1.8089  -14.8200  -42.3309 C.2       4 UNK         0.5000 
     51 O           1.1868  -14.9332  -41.2738 O.2       4 UNK        -0.5000 
     52 CA          1.7396  -13.4971  -43.1196 C.3       4 UNK         0.1400 
     53 CB          2.6970  -12.4585  -42.5159 C.3       4 UNK        -0.1800 
     54 N           2.0272  -13.6279  -44.5533 N.am      4 UNK        -0.5000 
     55 C           1.3207  -14.3524  -45.4351 C.2       3 UNK         0.5000 
     56 O           0.3870  -15.0857  -45.1100 O.2       3 UNK        -0.5000 
     57 CA          1.7547  -14.2584  -46.9148 C.3       3 UNK         0.1400 
     58 CB          0.6144  -14.5888  -47.8992 C.3       3 UNK        -0.1800 
     59 N           2.3907  -12.9816  -47.2648 N.am      3 UNK        -0.5000 
     60 C           1.8638  -11.7475  -47.1797 C.2       2 UNK         0.5000 
     61 O           0.7296  -11.5011  -46.7697 O.2       2 UNK        -0.5000 
     62 CA          2.7769  -10.5909  -47.6300 C.3       2 UNK         0.1400 
     63 CB          3.6334  -10.0942  -46.4545 C.3       2 UNK        -0.1800 
     64 N           3.6525  -10.9944  -48.7331 N.am      2 UNK        -0.5000 
     65 C           3.2359  -11.1259  -49.9994 C.2       1 UNK         0.5000 
     66 O           2.1182  -10.7779  -50.3901 O.2       1 UNK        -0.5000 
     67 C          -0.6610  -20.4550  -47.1542 C.2       11 UNK         0.5000 
     68 O          -1.1148  -20.5546  -48.2925 O.2       11 UNK        -0.5000 
     69 N          -1.3929  -20.6710  -46.0502 N.am      12 UNK        -0.5000 
     70 CA         -2.8016  -21.0756  -46.0831 C.3       12 UNK         0.1400 
     71 CB         -3.4467  -20.8573  -44.7081 C.3       12 UNK        -0.1800 
     72 C          -2.9822  -22.5352  -46.5333 C.2       12 UNK         0.5000 
     73 O          -3.9742  -22.8484  -47.1936 O.2       12 UNK        -0.5000 
     74 N          -2.0091  -23.3930  -46.1948 N.am      13 UNK        -0.5000 
     75 CA         -1.9540  -24.7855  -46.6347 C.3       13 UNK         0.1400 
     76 CB         -0.9764  -25.5763  -45.7518 C.3       13 UNK        -0.1800 
     77 C          -1.5801  -24.8830  -48.1231 C.2       13 UNK         0.5000 
     78 O          -2.2134  -25.6434  -48.8544 O.2       13 UNK        -0.5000 
     79 N          -0.6089  -24.0655  -48.5576 N.am      14 UNK        -0.5000 
     80 CA         -0.2060  -23.9146  -49.9593 C.3       14 UNK         0.1400 
     81 CB          1.0420  -23.0245  -50.0385 C.3       14 UNK        -0.1800 
     82 C          -1.3355  -23.3549  -50.8467 C.2       14 UNK         0.5000 
     83 O          -1.5263  -23.8325  -51.9653 O.2       14 UNK        -0.5000 
     84 N          -2.0982  -22.3924  -50.3078 N.am      15 UNK        -0.5000 
     85 CA         -3.3017  -21.8295  -50.9206 C.3       15 UNK         0.1400 
     86 CB         -3.7089  -20.5608  -50.1532 C.3       15 UNK        -0.1800 
     87 C          -4.4973  -22.8003  -50.9546 C.2       15 UNK         0.5000 
     88 O          -5.4793  -22.5014  -51.6383 O.2       15 UNK        -0.5000 
     89 N          -4.4248  -23.8995  -50.1897 N.am      16 UNK        -0.5000 
     90 CA         -5.4733  -24.8964  -49.9595 C.3       16 UNK         0.1400 
     91 CB         -5.7531  -25.6970  -51.2486 C.3       16 UNK        -0.1800 
     92 C          -6.7396  -24.2582  -49.3551 C.2       16 UNK         0.5000 
     93 O          -7.8416  -24.4758  -49.8571 O.2       16 UNK        -0.5000 
     94 N          -6.5454  -23.4141  -48.3294 N.am      17 UNK        -0.5000 
     95 CA         -7.5645  -22.5758  -47.6822 C.3       17 UNK         0.1400 
     96 CB         -8.5768  -23.4424  -46.9048 C.3       17 UNK        -0.1800 
     97 C          -8.2376  -21.5917  -48.6675 C.2       17 UNK         0.5000 
     98 O          -9.4363  -21.3279  -48.5660 O.2       17 UNK        -0.5000 
     99 N          -7.4330  -21.0898  -49.6160 N.am      18 UNK        -0.5000 
    100 CA        -7.7771  -20.1981  -50.7284 C.3       18 UNK         0.1400 
    101 CB        -8.3897  -18.8733  -50.2286 C.3       18 UNK        -0.1800 
    102 C         -8.6097  -20.8600  -51.8466 C.2       18 UNK         0.5000 
    103 O         -9.1122  -20.1459  -52.7156 O.2       18 UNK        -0.5000 
    104 N         -8.7170  -22.1981  -51.8509 N.am      19 UNK        -0.5000 
    105 CA        -9.3554  -22.9541  -52.9317 C.3       19 UNK         0.1400 
    106 CB        -9.7075  -24.3683  -52.4480 C.3       19 UNK        -0.1800 
    107 C         -8.4736  -23.0215  -54.1925 C.2       19 UNK         0.5000 
    108 O         -9.0064  -22.9913  -55.3026 O.2       19 UNK        -0.5000 
    109 N         -7.1498  -23.1002  -53.9995 N.am      20 UNK        -0.5000 
    110 CA        -6.1524  -23.0799  -55.0699 C.3       20 UNK         0.1400 
    111 CB        -5.0674  -24.1280  -54.7739 C.3       20 UNK        -0.1800 
    112 C         -5.5238  -21.6845  -55.2084 C.2       20 UNK         0.5000 
    113 O         -5.2268  -21.2589  -56.3259 O.2       20 UNK        -0.5000 
    114 N         -5.3109  -21.0096  -54.0663 N.am      21 UNK        -0.5000 
    115 CA        -4.7617  -19.6542  -53.9117 C.3       21 UNK         0.1400 
    116 CB        -5.7703  -18.6134  -54.4376 C.3       21 UNK        -0.1800 
    117 C         -3.3479  -19.4614  -54.5091 C.2       21 UNK         0.5000 
    118 O         -2.9477  -18.3275  -54.7755 O.2       21 UNK        -0.5000 
    119 N         -2.6255  -20.5717  -54.7151 N.am      22 UNK        -0.5000 
    120 CA        -1.3401  -20.6612  -55.4309 C.3       22 UNK         0.1400 
    121 C         -1.4314  -20.3028  -56.9478 C.2       22 UNK         0.5000 
    122 N         -2.6045  -20.3600  -57.5705 N.am      22 UNK        -0.7600 
    123 O         -0.4252  -19.9994  -57.5835 O.2       22 UNK        -0.5000 
    124 C124       -0.1688  -19.9453  -54.6988 C.3       23 UNK        -0.0398 
    125 S125        0.0879  -20.6196  -53.0221 S.3       23 UNK        -0.2404 
    126 C126       -0.3698  -19.2119  -51.9672 C.3       23 UNK        -0.0205 
    127 H127        3.6701   -8.6257  -54.0713 H         1 UNK         0.0600 
    128 H128        5.2333   -9.2824  -54.5688 H         1 UNK         0.0600 
    129 H129        3.7836  -10.2865  -54.6603 H         1 UNK         0.0600 
    130 H130        3.6319  -11.7643  -52.9934 H         1 UNK         0.3000 
    131 H131        5.2329  -11.6064  -50.6065 H         1 UNK         0.0600 
    132 H132        4.8906  -13.7814  -51.5027 H         1 UNK         0.0800 
    133 H133        4.0330  -13.7535  -49.9942 H         1 UNK         0.0800 
    134 H134        4.0943  -15.5570  -52.6396 H         1 UNK         0.0800 
    135 H135        2.6374  -15.5376  -53.5860 H         1 UNK         0.0800 
    136 H136        0.8155  -17.0074  -53.0885 H         1 UNK         0.1150 
    137 H137        1.1768  -19.7583  -49.8476 H         1 UNK         0.1150 
    138 H138        4.0089  -16.5639  -50.2528 H         1 UNK         0.1150 
    139 H139        3.3683  -19.8107  -48.6342 H         1 UNK         0.0800 
    140 H140        4.4617  -18.4689  -48.7484 H         1 UNK         0.0800 
    141 H141        0.5941  -18.1262  -46.1298 H         1 UNK         0.0800 
    142 H142        0.5256  -18.1351  -47.8658 H         1 UNK         0.0800 
    143 H143        1.3360  -20.5470  -47.8475 H         1 UNK         0.0600 
    144 H144        1.7806  -20.1644  -45.0866 H         1 UNK         0.3000 
    145 H145        2.7398  -23.4828  -44.5959 H         1 UNK         0.0600 
    146 H146        3.6085  -22.0372  -42.8221 H         1 UNK         0.0600 
    147 H147        3.8363  -21.2168  -44.3577 H         1 UNK         0.0600 
    148 H148        2.5313  -20.7286  -43.2750 H         1 UNK         0.0600 
    149 H149        1.3346  -23.9335  -42.9104 H         1 UNK         0.3000 
    150 H150       -1.8134  -22.9559  -42.1214 H         1 UNK         0.0600 
    151 H151       -0.5588  -25.0894  -42.2848 H         1 UNK         0.0600 
    152 H152       -1.0812  -24.7976  -40.6375 H         1 UNK         0.0600 
    153 H153        0.6011  -24.5441  -41.0784 H         1 UNK         0.0600 
    154 H154       -1.5479  -21.5708  -40.4198 H         1 UNK         0.3000 
    155 H155       -0.4763  -21.1837  -38.0612 H         1 UNK         0.0600 
    156 H156        1.9745  -21.2246  -37.6307 H         1 UNK         0.0600 
    157 H157        1.3200  -19.6330  -37.2800 H         1 UNK         0.0600 
    158 H158        2.2200  -19.9048  -38.7715 H         1 UNK         0.0600 
    159 H159        0.0014  -19.2137  -40.2381 H         1 UNK         0.3000 
    160 H160       -2.9686  -17.5494  -39.5529 H         1 UNK         0.0600 
    161 H161       -0.3238  -16.2339  -38.7262 H         1 UNK         0.0600 
    162 H162       -1.7931  -15.3871  -39.2087 H         1 UNK         0.0600 
    163 H163       -1.7699  -16.3296  -37.7270 H         1 UNK         0.0600 
    164 H164       -0.6610  -16.7572  -41.0813 H         1 UNK         0.3000 
    165 H165       -0.9949  -18.9799  -43.7521 H         1 UNK         0.0600 
    166 H166       -1.4844  -17.0955  -45.2254 H         1 UNK         0.0600 
    167 H167       -2.9274  -17.4609  -44.2985 H         1 UNK         0.0600 
    168 H168       -1.9355  -16.0787  -43.8569 H         1 UNK         0.0600 
    169 H169        0.4652  -16.6112  -43.7037 H         1 UNK         0.3000 
    170 H170        2.9093  -17.1149  -41.3150 H         1 UNK         0.0600 
    171 H171        3.9180  -18.8941  -42.6762 H         1 UNK         0.0600 
    172 H172        3.4624  -18.0808  -44.1698 H         1 UNK         0.0600 
    173 H173        4.6660  -17.3665  -43.0969 H         1 UNK         0.0600 
    174 H174        2.9958  -15.6243  -43.7527 H         1 UNK         0.3000 
    175 H175        0.7196  -13.1196  -43.0234 H         1 UNK         0.0600 
    176 H176        3.7382  -12.7695  -42.6093 H         1 UNK         0.0600 
    177 H177        2.5894  -11.4904  -43.0057 H         1 UNK         0.0600 
    178 H178        2.4930  -12.3082  -41.4548 H         1 UNK         0.0600 
    179 H179        2.7861  -13.0660  -44.9085 H         1 UNK         0.3000 
    180 H180        2.5235  -15.0206  -47.0445 H         1 UNK         0.0600 
    181 H181        0.2217  -15.5907  -47.7237 H         1 UNK         0.0600 
    182 H182       -0.2167  -13.8897  -47.8045 H         1 UNK         0.0600 
    183 H183        0.9652  -14.5580  -48.9311 H         1 UNK         0.0600 
    184 H184        3.3386  -13.0546  -47.6031 H         1 UNK         0.3000 
    185 H185        2.1409   -9.7664  -47.9600 H         1 UNK         0.0600 
    186 H186        3.0050   -9.7771  -45.6211 H         1 UNK         0.0600 
    187 H187        4.3036  -10.8703  -46.0831 H         1 UNK         0.0600 
    188 H188        4.2413   -9.2373  -46.7456 H         1 UNK         0.0600 
    189 H189        4.5976  -11.2554  -48.4906 H         1 UNK         0.3000 
    190 H190       -0.9397  -20.6635  -45.1396 H         1 UNK         0.3000 
    191 H191       -3.3252  -20.4400  -46.7999 H         1 UNK         0.0600 
    192 H192       -4.4992  -21.1436  -44.7211 H         1 UNK         0.0600 
    193 H193       -3.4035  -19.8097  -44.4158 H         1 UNK         0.0600 
    194 H194       -2.9588  -21.4437  -43.9297 H         1 UNK         0.0600 
    195 H195       -1.2009  -23.0383  -45.7047 H         1 UNK         0.3000 
    196 H196       -2.9465  -25.2244  -46.5099 H         1 UNK         0.0600 
    197 H197       -0.9591  -26.6280  -46.0401 H         1 UNK         0.0600 
    198 H198       -1.2707  -25.5324  -44.7034 H         1 UNK         0.0600 
    199 H199        0.0437  -25.2014  -45.8292 H         1 UNK         0.0600 
    200 H200       -0.1012  -23.5117  -47.8736 H         1 UNK         0.3000 
    201 H201        0.0561  -24.9042  -50.3388 H         1 UNK         0.0600 
    202 H202        1.8621  -23.4376  -49.4509 H         1 UNK         0.0600 
    203 H203        0.8372  -22.0213  -49.6694 H         1 UNK         0.0600 
    204 H204        1.3903  -22.9298  -51.0678 H         1 UNK         0.0600 
    205 H205       -1.8192  -21.9901  -49.4181 H         1 UNK         0.3000 
    206 H206       -3.0650  -21.5559  -51.9499 H         1 UNK         0.0600 
    207 H207       -2.9205  -19.8111  -50.1615 H         1 UNK         0.0600 
    208 H208       -4.5902  -20.0938  -50.5888 H         1 UNK         0.0600 
    209 H209       -3.9429  -20.7824  -49.1122 H         1 UNK         0.0600 
    210 H210       -3.5715  -24.0516  -49.6679 H         1 UNK         0.3000 
    211 H211       -5.0869  -25.5901  -49.2117 H         1 UNK         0.0600 
    212 H212       -6.1947  -25.0763  -52.0277 H         1 UNK         0.0600 
    213 H213       -6.4455  -26.5169  -51.0549 H         1 UNK         0.0600 
    214 H214       -4.8368  -26.1321  -51.6474 H         1 UNK         0.0600 
    215 H215       -5.5944  -23.2824  -47.9871 H         1 UNK         0.3000 
    216 H216       -7.0330  -21.9598  -46.9553 H         1 UNK         0.0600 
    217 H217       -8.0693  -24.1188  -46.2171 H         1 UNK         0.0600 
    218 H218       -9.1947  -24.0436  -47.5723 H         1 UNK         0.0600 
    219 H219       -9.2479  -22.8210  -46.3108 H         1 UNK         0.0600 
    220 H220       -6.4826  -21.4295  -49.6259 H         1 UNK         0.3000 
    221 H221       -6.8289  -19.9453  -51.2023 H         1 UNK         0.0600 
    222 H222       -9.3947  -19.0137  -49.8304 H         1 UNK         0.0600 
    223 H223       -7.7766  -18.4245  -49.4471 H         1 UNK         0.0600 
    224 H224       -8.4619  -18.1464  -51.0384 H         1 UNK         0.0600 
    225 H225       -8.2932  -22.7369  -51.1049 H         1 UNK         0.3000 
    226 H226      -10.2880  -22.4524  -53.1991 H         1 UNK         0.0600 
    227 H227      -10.2998  -24.3392  -51.5332 H         1 UNK         0.0600 
    228 H228      -10.2926  -24.8999  -53.1993 H         1 UNK         0.0600 
    229 H229       -8.8147  -24.9628  -52.2527 H         1 UNK         0.0600 
    230 H230       -6.7946  -23.0856  -53.0497 H         1 UNK         0.3000 
    231 H231       -6.6135  -23.3354  -56.0262 H         1 UNK         0.0600 
    232 H232       -4.5446  -23.9250  -53.8389 H         1 UNK         0.0600 
    233 H233       -5.4970  -25.1274  -54.7039 H         1 UNK         0.0600 
    234 H234       -4.3205  -24.1508  -55.5684 H         1 UNK         0.0600 
    235 H235       -5.5394  -21.4862  -53.1988 H         1 UNK         0.3000 
    236 H236       -4.6540  -19.4882  -52.8407 H         1 UNK         0.0600 
    237 H237       -6.7525  -18.7540  -53.9858 H         1 UNK         0.0600 
    238 H238       -5.4494  -17.5982  -54.2013 H         1 UNK         0.0600 
    239 H239       -5.8871  -18.6766  -55.5198 H         1 UNK         0.0600 
    240 H240       -3.0433  -21.4557  -54.4689 H         1 UNK         0.3000 
    241 H241       -1.0974  -21.7244  -55.4347 H         1 UNK         0.0600 
    242 H242       -2.6526  -20.1376  -58.5521 H         1 UNK         0.3800 
    243 H243       -3.4506  -20.6246  -57.0767 H         1 UNK         0.3800 
    244 H244       -0.3292  -18.8675  -54.6625 H         1 UNK         0.0800 
    245 H245        0.7656  -20.0894  -55.2430 H         1 UNK         0.0800 
    246 H246       -1.0722  -18.5499  -52.4751 H         1 UNK         0.0800 
    247 H247       -0.8950  -19.6017  -51.0961 H         1 UNK         0.0800 
@<TRIPOS>BOND
     1    1    2 1    
     2    1  127 1    
     3    1  128 1    
     4    1  129 1    
     5    2    3 2    
     6    2    4 am   BACKBONE|DICT|INTERRES
     7    4    5 1    
     8    4  130 1    
     9    5    6 1    
    10    5   65 1    
    11    5  131 1    
    12    6    7 1    
    13    6  132 1    
    14    6  133 1    
    15    7    8 1    
    16    8    9 1    
    17    8  134 1    
    18    8  135 1    
    19    9   10 ar   
    20    9   14 ar   
    21   10   11 ar   
    22   10  136 1    
    23   11   12 ar   
    24   11  126 1    
    25   12   13 ar   
    26   12  137 1    
    27   13   14 ar   
    28   13   15 1    
    29   14  138 1    
    30   15   16 1    
    31   15  139 1    
    32   15  140 1    
    33   16   17 1    
    34   17   18 1    
    35   17  141 1    
    36   17  142 1    
    37   18   19 1    
    38   18   67 1    
    39   18  143 1    
    40   19   20 am   BACKBONE|DICT|INTERRES
    41   19  144 1    
    42   20   21 2    
    43   20   22 1    
    44   22   23 1    
    45   22   24 1    
    46   22  145 1    
    47   23  146 1    
    48   23  147 1    
    49   23  148 1    
    50   24   25 am   BACKBONE|DICT|INTERRES
    51   24  149 1    
    52   25   26 2    
    53   25   27 1    
    54   27   28 1    
    55   27   29 1    
    56   27  150 1    
    57   28  151 1    
    58   28  152 1    
    59   28  153 1    
    60   29   30 am   BACKBONE|DICT|INTERRES
    61   29  154 1    
    62   30   31 2    
    63   30   32 1    
    64   32   33 1    
    65   32   34 1    
    66   32  155 1    
    67   33  156 1    
    68   33  157 1    
    69   33  158 1    
    70   34   35 am   BACKBONE|DICT|INTERRES
    71   34  159 1    
    72   35   36 2    
    73   35   37 1    
    74   37   38 1    
    75   37   39 1    
    76   37  160 1    
    77   38  161 1    
    78   38  162 1    
    79   38  163 1    
    80   39   40 am   BACKBONE|DICT|INTERRES
    81   39  164 1    
    82   40   41 2    
    83   40   42 1    
    84   42   43 1    
    85   42   44 1    
    86   42  165 1    
    87   43  166 1    
    88   43  167 1    
    89   43  168 1    
    90   44   45 am   BACKBONE|DICT|INTERRES
    91   44  169 1    
    92   45   46 2    
    93   45   47 1    
    94   47   48 1    
    95   47   49 1    
    96   47  170 1    
    97   48  171 1    
    98   48  172 1    
    99   48  173 1    
   100   49   50 am   BACKBONE|DICT|INTERRES
   101   49  174 1    
   102   50   51 2    
   103   50   52 1    
   104   52   53 1    
   105   52   54 1    
   106   52  175 1    
   107   53  176 1    
   108   53  177 1    
   109   53  178 1    
   110   54   55 am   BACKBONE|DICT|INTERRES
   111   54  179 1    
   112   55   56 2    
   113   55   57 1    
   114   57   58 1    
   115   57   59 1    
   116   57  180 1    
   117   58  181 1    
   118   58  182 1    
   119   58  183 1    
   120   59   60 am   BACKBONE|DICT|INTERRES
   121   59  184 1    
   122   60   61 2    
   123   60   62 1    
   124   62   63 1    
   125   62   64 1    
   126   62  185 1    
   127   63  186 1    
   128   63  187 1    
   129   63  188 1    
   130   64   65 am   BACKBONE|DICT|INTERRES
   131   64  189 1    
   132   65   66 2    
   133   67   68 2    
   134   67   69 am   BACKBONE|DICT|INTERRES
   135   69   70 1    
   136   69  190 1    
   137   70   71 1    
   138   70   72 1    
   139   70  191 1    
   140   71  192 1    
   141   71  193 1    
   142   71  194 1    
   143   72   73 2    
   144   72   74 am   BACKBONE|DICT|INTERRES
   145   74   75 1    
   146   74  195 1    
   147   75   76 1    
   148   75   77 1    
   149   75  196 1    
   150   76  197 1    
   151   76  198 1    
   152   76  199 1    
   153   77   78 2    
   154   77   79 am   BACKBONE|DICT|INTERRES
   155   79   80 1    
   156   79  200 1    
   157   80   81 1    
   158   80   82 1    
   159   80  201 1    
   160   81  202 1    
   161   81  203 1    
   162   81  204 1    
   163   82   83 2    
   164   82   84 am   BACKBONE|DICT|INTERRES
   165   84   85 1    
   166   84  205 1    
   167   85   86 1    
   168   85   87 1    
   169   85  206 1    
   170   86  207 1    
   171   86  208 1    
   172   86  209 1    
   173   87   88 2    
   174   87   89 am   BACKBONE|DICT|INTERRES
   175   89   90 1    
   176   89  210 1    
   177   90   91 1    
   178   90   92 1    
   179   90  211 1    
   180   91  212 1    
   181   91  213 1    
   182   91  214 1    
   183   92   93 2    
   184   92   94 am   BACKBONE|DICT|INTERRES
   185   94   95 1    
   186   94  215 1    
   187   95   96 1    
   188   95   97 1    
   189   95  216 1    
   190   96  217 1    
   191   96  218 1    
   192   96  219 1    
   193   97   98 2    
   194   97   99 am   BACKBONE|DICT|INTERRES
   195   99  100 1    
   196   99  220 1    
   197  100  101 1    
   198  100  102 1    
   199  100  221 1    
   200  101  222 1    
   201  101  223 1    
   202  101  224 1    
   203  102  103 2    
   204  102  104 am   BACKBONE|DICT|INTERRES
   205  104  105 1    
   206  104  225 1    
   207  105  106 1    
   208  105  107 1    
   209  105  226 1    
   210  106  227 1    
   211  106  228 1    
   212  106  229 1    
   213  107  108 2    
   214  107  109 am   BACKBONE|DICT|INTERRES
   215  109  110 1    
   216  109  230 1    
   217  110  111 1    
   218  110  112 1    
   219  110  231 1    
   220  111  232 1    
   221  111  233 1    
   222  111  234 1    
   223  112  113 2    
   224  112  114 am   BACKBONE|DICT|INTERRES
   225  114  115 1    
   226  114  235 1    
   227  115  116 1    
   228  115  117 1    
   229  115  236 1    
   230  116  237 1    
   231  116  238 1    
   232  116  239 1    
   233  117  118 2    
   234  117  119 am   BACKBONE|DICT|INTERRES
   235  119  120 1    
   236  119  240 1    
   237  120  121 1    
   238  120  124 1    
   239  120  241 1    
   240  121  122 am   BACKBONE|DICT|INTERRES
   241  121  123 2    
   242  122  242 1    
   243  122  243 1    
   244  124  125 1    
   245  124  244 1    
   246  124  245 1    
   247  125  126 1    
   248  126  246 1    
   249  126  247 1    
@<TRIPOS>SUBSTRUCTURE
     1 UNK         1 GROUP             0       ****    0 ROOT    
