@<TRIPOS>MOLECULE
3R540
247   249    1
SMALL
USER_CHARGES


@<TRIPOS>ATOM
      1 CA          0.4631  -15.1699  -48.4205 C.3       0 UNK        -0.1800 
      2 C          -0.3850  -13.9141  -48.2276 C.2       0 UNK         0.5000 
      3 O          -1.2362  -13.9025  -47.3428 O.2       0 UNK        -0.5000 
      4 N          -0.2069  -12.8247  -48.9924 N.am      1 UNK        -0.5000 
      5 CA          0.7176  -12.5820  -50.1163 C.3       1 UNK         0.1400 
      6 C6          0.5382  -13.5390  -51.3276 C.3       23 UNK        -0.0398 
      7 S7         -1.1723  -13.5481  -51.9645 S.3       23 UNK        -0.2404 
      8 C8         -1.2457  -15.1528  -52.8232 C.3       23 UNK        -0.0205 
      9 C9         -1.1585  -16.3276  -51.8606 C.ar      23 UNK        -0.0193 
     10 C10        -0.0259  -17.1480  -51.8454 C.ar      23 UNK        -0.1150 
     11 C11         0.0639  -18.2165  -50.9493 C.ar      23 UNK        -0.0193 
     12 C12        -0.9954  -18.4677  -50.0731 C.ar      23 UNK        -0.1150 
     13 C13        -2.1301  -17.6498  -50.0733 C.ar      23 UNK        -0.0193 
     14 C14        -2.2093  -16.5870  -50.9763 C.ar      23 UNK        -0.1150 
     15 C15        -3.2586  -17.9052  -49.0872 C.3       23 UNK        -0.0205 
     16 S16        -2.6864  -17.7028  -47.3668 S.3       23 UNK        -0.2404 
     17 C17        -3.4633  -19.1393  -46.5572 C.3       23 UNK        -0.0398 
     18 CA         -2.7520  -20.4670  -46.9115 C.3       11 UNK         0.1400 
     19 N          -1.3519  -20.4996  -46.4758 N.am      11 UNK        -0.5000 
     20 C          -0.4238  -21.3346  -46.9586 C.2       10 UNK         0.5000 
     21 O          -0.6415  -22.1542  -47.8502 O.2       10 UNK        -0.5000 
     22 CA          0.9466  -21.3269  -46.2628 C.3       10 UNK         0.1400 
     23 CB          1.9215  -20.3731  -46.9697 C.3       10 UNK        -0.1800 
     24 N           0.8565  -21.0143  -44.8308 N.am      10 UNK        -0.5000 
     25 C           0.2531  -21.8050  -43.9316 C.2       9 UNK         0.5000 
     26 O          -0.3628  -22.8260  -44.2369 O.2       9 UNK        -0.5000 
     27 CA          0.3585  -21.4078  -42.4540 C.3       9 UNK         0.1400 
     28 CB          1.7958  -21.5969  -41.9436 C.3       9 UNK        -0.1800 
     29 N          -0.0866  -20.0412  -42.1861 N.am      9 UNK        -0.5000 
     30 C          -1.3713  -19.6929  -42.0245 C.2       8 UNK         0.5000 
     31 O          -2.3173  -20.4434  -42.2655 O.2       8 UNK        -0.5000 
     32 CA         -1.6463  -18.2920  -41.4472 C.3       8 UNK         0.1400 
     33 CB         -0.9954  -18.1156  -40.0646 C.3       8 UNK        -0.1800 
     34 N          -1.1759  -17.2402  -42.3381 N.am      8 UNK        -0.5000 
     35 C          -1.8509  -16.7744  -43.3967 C.2       7 UNK         0.5000 
     36 O          -3.0036  -17.1062  -43.6723 O.2       7 UNK        -0.5000 
     37 CA         -1.1049  -15.7771  -44.3084 C.3       7 UNK         0.1400 
     38 CB         -1.3876  -14.3315  -43.8743 C.3       7 UNK        -0.1800 
     39 N           0.3432  -15.9993  -44.3430 N.am      7 UNK        -0.5000 
     40 C           0.9233  -17.1320  -44.7645 C.2       6 UNK         0.5000 
     41 O           0.3031  -18.1028  -45.1953 O.2       6 UNK        -0.5000 
     42 CA          2.4500  -17.2169  -44.6168 C.3       6 UNK         0.1400 
     43 CB          3.1500  -16.5087  -45.7852 C.3       6 UNK        -0.1800 
     44 N           2.8974  -16.6489  -43.3440 N.am      6 UNK        -0.5000 
     45 C           2.7122  -17.2388  -42.1537 C.2       5 UNK         0.5000 
     46 O           2.1753  -18.3366  -42.0155 O.2       5 UNK        -0.5000 
     47 CA          3.1563  -16.4566  -40.9039 C.3       5 UNK         0.1400 
     48 CB          4.6609  -16.6400  -40.6573 C.3       5 UNK        -0.1800 
     49 N           2.8495  -15.0298  -40.9935 N.am      5 UNK        -0.5000 
     50 C           1.6115  -14.5184  -41.0543 C.2       4 UNK         0.5000 
     51 O           0.5893  -15.1967  -40.9630 O.2       4 UNK        -0.5000 
     52 CA          1.4970  -13.0014  -41.3082 C.3       4 UNK         0.1400 
     53 CB          1.3783  -12.2428  -39.9782 C.3       4 UNK        -0.1800 
     54 N           2.6100  -12.4434  -42.0848 N.am      4 UNK        -0.5000 
     55 C           2.9574  -12.8301  -43.3199 C.2       3 UNK         0.5000 
     56 O           2.3763  -13.7234  -43.9426 O.2       3 UNK        -0.5000 
     57 CA          4.2103  -12.1533  -43.9100 C.3       3 UNK         0.1400 
     58 CB          5.4779  -12.7196  -43.2485 C.3       3 UNK        -0.1800 
     59 N           4.3270  -12.3396  -45.3561 N.am      3 UNK        -0.5000 
     60 C           3.5102  -11.8093  -46.2738 C.2       2 UNK         0.5000 
     61 O           2.5888  -11.0358  -45.9999 O.2       2 UNK        -0.5000 
     62 CA          3.7517  -12.2017  -47.7433 C.3       2 UNK         0.1400 
     63 CB          4.6002  -13.4835  -47.9235 C.3       2 UNK        -0.1800 
     64 N           2.4469  -12.3423  -48.3799 N.am      2 UNK        -0.5000 
     65 C           2.1978  -12.4404  -49.6900 C.2       1 UNK         0.5000 
     66 O           3.0783  -12.4067  -50.5506 O.2       1 UNK        -0.5000 
     67 C          -3.5839  -21.6992  -46.4806 C.2       11 UNK         0.5000 
     68 O          -4.7542  -21.7780  -46.8513 O.2       11 UNK        -0.5000 
     69 N          -2.9895  -22.6399  -45.7362 N.am      12 UNK        -0.5000 
     70 CA         -3.5639  -23.9505  -45.4444 C.3       12 UNK         0.1400 
     71 CB         -3.7723  -24.0866  -43.9275 C.3       12 UNK        -0.1800 
     72 C          -2.6567  -25.0730  -45.9750 C.2       12 UNK         0.5000 
     73 O          -3.1570  -26.0238  -46.5767 O.2       12 UNK        -0.5000 
     74 N          -1.3456  -24.9623  -45.7218 N.am      13 UNK        -0.5000 
     75 CA         -0.3605  -26.0074  -45.9915 C.3       13 UNK         0.1400 
     76 CB          0.8709  -25.7699  -45.1028 C.3       13 UNK        -0.1800 
     77 C           0.0652  -26.1104  -47.4658 C.2       13 UNK         0.5000 
     78 O           0.3406  -27.2200  -47.9249 O.2       13 UNK        -0.5000 
     79 N           0.1472  -24.9730  -48.1683 N.am      14 UNK        -0.5000 
     80 CA          0.6492  -24.8943  -49.5407 C.3       14 UNK         0.1400 
     81 CB          1.7594  -23.8343  -49.6246 C.3       14 UNK        -0.1800 
     82 C          -0.4886  -24.5987  -50.5261 C.2       14 UNK         0.5000 
     83 O          -0.6491  -25.3333  -51.5020 O.2       14 UNK        -0.5000 
     84 N          -1.2734  -23.5499  -50.2519 N.am      15 UNK        -0.5000 
     85 CA         -2.4511  -23.1933  -51.0329 C.3       15 UNK         0.1400 
     86 CB         -2.6992  -21.6814  -50.9393 C.3       15 UNK        -0.1800 
     87 C          -3.6606  -23.9822  -50.5133 C.2       15 UNK         0.5000 
     88 O          -4.1491  -23.6948  -49.4189 O.2       15 UNK        -0.5000 
     89 N          -4.1236  -24.9546  -51.3086 N.am      16 UNK        -0.5000 
     90 CA         -5.3164  -25.7605  -51.0488 C.3       16 UNK         0.1400 
     91 CB         -5.4940  -26.7791  -52.1858 C.3       16 UNK        -0.1800 
     92 C          -6.5700  -24.8791  -50.8920 C.2       16 UNK         0.5000 
     93 O          -6.9751  -24.2192  -51.8524 O.2       16 UNK        -0.5000 
     94 N          -7.1120  -24.8505  -49.6657 N.am      17 UNK        -0.5000 
     95 CA         -8.2573  -24.0485  -49.2176 C.3       17 UNK         0.1400 
     96 CB         -9.5580  -24.5668  -49.8665 C.3       17 UNK        -0.1800 
     97 C          -8.0664  -22.5262  -49.4086 C.2       17 UNK         0.5000 
     98 O          -9.0491  -21.8111  -49.6127 O.2       17 UNK        -0.5000 
     99 N          -6.8071  -22.0613  -49.3764 N.am      18 UNK        -0.5000 
    100 CA        -6.3128  -20.6959  -49.6077 C.3       18 UNK         0.1400 
    101 CB        -6.9020  -19.6974  -48.5935 C.3       18 UNK        -0.1800 
    102 C         -6.4939  -20.1787  -51.0495 C.2       18 UNK         0.5000 
    103 O         -5.5816  -19.5449  -51.5804 O.2       18 UNK        -0.5000 
    104 N         -7.6481  -20.4704  -51.6618 N.am      19 UNK        -0.5000 
    105 CA        -8.0926  -20.0320  -52.9869 C.3       19 UNK         0.1400 
    106 CB        -9.5130  -20.5660  -53.2264 C.3       19 UNK        -0.1800 
    107 C         -7.1672  -20.4309  -54.1520 C.2       19 UNK         0.5000 
    108 O         -7.1831  -19.7625  -55.1863 O.2       19 UNK        -0.5000 
    109 N         -6.3644  -21.4882  -53.9650 N.am      20 UNK        -0.5000 
    110 CA        -5.3229  -21.9181  -54.9002 C.3       20 UNK         0.1400 
    111 CB        -4.7898  -23.2859  -54.4535 C.3       20 UNK        -0.1800 
    112 C         -4.1600  -20.9123  -55.0409 C.2       20 UNK         0.5000 
    113 O         -3.4472  -20.9644  -56.0445 O.2       20 UNK        -0.5000 
    114 N         -3.9757  -20.0353  -54.0378 N.am      21 UNK        -0.5000 
    115 CA        -3.0182  -18.9210  -53.9889 C.3       21 UNK         0.1400 
    116 CB        -3.4866  -17.7962  -54.9341 C.3       21 UNK        -0.1800 
    117 C         -1.5484  -19.3297  -54.2359 C.2       21 UNK         0.5000 
    118 O         -0.7763  -18.5510  -54.7982 O.2       21 UNK        -0.5000 
    119 N         -1.2057  -20.5624  -53.8375 N.am      22 UNK        -0.5000 
    120 CA         0.0863  -21.2290  -54.0706 C.3       22 UNK         0.1400 
    121 C          0.4150  -21.4911  -55.5755 C.2       22 UNK         0.5000 
    122 N         -0.5540  -21.4620  -56.4844 N.am      22 UNK        -0.7600 
    123 O          1.5591  -21.7647  -55.9284 O.2       22 UNK        -0.5000 
    124 C124        1.2595  -20.5677  -53.2914 C.3       23 UNK        -0.0398 
    125 S125        1.0754  -20.7562  -51.4851 S.3       23 UNK        -0.2404 
    126 C126        1.3272  -19.0606  -50.8765 C.3       23 UNK        -0.0205 
    127 H127        1.4903  -14.9543  -48.7057 H         1 UNK         0.0600 
    128 H128        0.0160  -15.8057  -49.1812 H         1 UNK         0.0600 
    129 H129        0.4964  -15.7433  -47.4942 H         1 UNK         0.0600 
    130 H130       -0.8085  -12.0369  -48.7973 H         1 UNK         0.3000 
    131 H131        0.4511  -11.5860  -50.4731 H         1 UNK         0.0600 
    132 H132        1.1819  -13.2343  -52.1545 H         1 UNK         0.0800 
    133 H133        0.8470  -14.5506  -51.0698 H         1 UNK         0.0800 
    134 H134       -0.4547  -15.2015  -53.5733 H         1 UNK         0.0800 
    135 H135       -2.1886  -15.2089  -53.3673 H         1 UNK         0.0800 
    136 H136        0.7916  -16.9467  -52.5232 H         1 UNK         0.1150 
    137 H137       -0.9237  -19.2857  -49.3700 H         1 UNK         0.1150 
    138 H138       -3.0798  -15.9463  -50.9815 H         1 UNK         0.1150 
    139 H139       -4.0912  -17.2221  -49.2606 H         1 UNK         0.0800 
    140 H140       -3.6502  -18.9060  -49.2622 H         1 UNK         0.0800 
    141 H141       -4.5140  -19.1568  -46.8495 H         1 UNK         0.0800 
    142 H142       -3.4515  -18.9843  -45.4780 H         1 UNK         0.0800 
    143 H143       -2.7248  -20.5266  -47.9953 H         1 UNK         0.0600 
    144 H144       -1.0722  -19.8251  -45.7731 H         1 UNK         0.3000 
    145 H145        1.3573  -22.3354  -46.3467 H         1 UNK         0.0600 
    146 H146        2.8774  -20.3209  -46.4488 H         1 UNK         0.0600 
    147 H147        2.1241  -20.7193  -47.9839 H         1 UNK         0.0600 
    148 H148        1.5230  -19.3625  -47.0515 H         1 UNK         0.0600 
    149 H149        1.2522  -20.1369  -44.5254 H         1 UNK         0.3000 
    150 H150       -0.2766  -22.0923  -41.8869 H         1 UNK         0.0600 
    151 H151        2.1235  -22.6286  -42.0774 H         1 UNK         0.0600 
    152 H152        1.8694  -21.3676  -40.8805 H         1 UNK         0.0600 
    153 H153        2.5042  -20.9585  -42.4724 H         1 UNK         0.0600 
    154 H154        0.6470  -19.3560  -42.0181 H         1 UNK         0.3000 
    155 H155       -2.7260  -18.1914  -41.3163 H         1 UNK         0.0600 
    156 H156        0.0935  -18.1393  -40.1176 H         1 UNK         0.0600 
    157 H157       -1.3100  -18.9044  -39.3802 H         1 UNK         0.0600 
    158 H158       -1.2817  -17.1634  -39.6175 H         1 UNK         0.0600 
    159 H159       -0.2597  -16.8555  -42.1467 H         1 UNK         0.3000 
    160 H160       -1.4792  -15.9070  -45.3250 H         1 UNK         0.0600 
    161 H161       -1.1145  -14.1638  -42.8332 H         1 UNK         0.0600 
    162 H162       -2.4485  -14.0999  -43.9745 H         1 UNK         0.0600 
    163 H163       -0.8389  -13.6173  -44.4888 H         1 UNK         0.0600 
    164 H164        0.9363  -15.2380  -44.0317 H         1 UNK         0.3000 
    165 H165        2.7351  -18.2707  -44.6422 H         1 UNK         0.0600 
    166 H166        4.2345  -16.5621  -45.6898 H         1 UNK         0.0600 
    167 H167        2.8824  -16.9717  -46.7359 H         1 UNK         0.0600 
    168 H168        2.8672  -15.4581  -45.8446 H         1 UNK         0.0600 
    169 H169        3.2595  -15.7057  -43.3740 H         1 UNK         0.3000 
    170 H170        2.6163  -16.8651  -40.0470 H         1 UNK         0.0600 
    171 H171        4.9158  -17.6972  -40.5718 H         1 UNK         0.0600 
    172 H172        5.2576  -16.2227  -41.4695 H         1 UNK         0.0600 
    173 H173        4.9702  -16.1565  -39.7305 H         1 UNK         0.0600 
    174 H174        3.6323  -14.3977  -41.0667 H         1 UNK         0.3000 
    175 H175        0.5829  -12.8315  -41.8791 H         1 UNK         0.0600 
    176 H176        2.2800  -12.3466  -39.3733 H         1 UNK         0.0600 
    177 H177        1.2044  -11.1794  -40.1439 H         1 UNK         0.0600 
    178 H178        0.5416  -12.6188  -39.3876 H         1 UNK         0.0600 
    179 H179        3.1448  -11.7145  -41.6346 H         1 UNK         0.3000 
    180 H180        4.1511  -11.0822  -43.7061 H         1 UNK         0.0600 
    181 H181        5.5758  -13.7928  -43.4183 H         1 UNK         0.0600 
    182 H182        5.4702  -12.5573  -42.1700 H         1 UNK         0.0600 
    183 H183        6.3745  -12.2364  -43.6374 H         1 UNK         0.0600 
    184 H184        5.0355  -12.9877  -45.6657 H         1 UNK         0.3000 
    185 H185        4.2747  -11.3663  -48.2123 H         1 UNK         0.0600 
    186 H186        5.5901  -13.3759  -47.4790 H         1 UNK         0.0600 
    187 H187        4.1198  -14.3507  -47.4730 H         1 UNK         0.0600 
    188 H188        4.7626  -13.7122  -48.9763 H         1 UNK         0.0600 
    189 H189        1.6637  -12.2951  -47.7401 H         1 UNK         0.3000 
    190 H190       -2.0321  -22.4947  -45.4414 H         1 UNK         0.3000 
    191 H191       -4.5341  -24.0674  -45.9319 H         1 UNK         0.0600 
    192 H192       -2.8376  -23.9690  -43.3776 H         1 UNK         0.0600 
    193 H193       -4.1838  -25.0646  -43.6750 H         1 UNK         0.0600 
    194 H194       -4.4703  -23.3341  -43.5600 H         1 UNK         0.0600 
    195 H195       -1.0094  -24.1675  -45.1812 H         1 UNK         0.3000 
    196 H196       -0.7954  -26.9681  -45.7070 H         1 UNK         0.0600 
    197 H197        1.6120  -26.5582  -45.2414 H         1 UNK         0.0600 
    198 H198        0.5998  -25.7607  -44.0469 H         1 UNK         0.0600 
    199 H199        1.3552  -24.8198  -45.3316 H         1 UNK         0.0600 
    200 H200       -0.1620  -24.1021  -47.7517 H         1 UNK         0.3000 
    201 H201        1.0948  -25.8446  -49.8422 H         1 UNK         0.0600 
    202 H202        2.6019  -24.0982  -48.9855 H         1 UNK         0.0600 
    203 H203        1.4098  -22.8485  -49.3210 H         1 UNK         0.0600 
    204 H204        2.1385  -23.7464  -50.6436 H         1 UNK         0.0600 
    205 H205       -1.0971  -23.0041  -49.4113 H         1 UNK         0.3000 
    206 H206       -2.2784  -23.4336  -52.0840 H         1 UNK         0.0600 
    207 H207       -1.8176  -21.1094  -51.2201 H         1 UNK         0.0600 
    208 H208       -3.5154  -21.3811  -51.5946 H         1 UNK         0.0600 
    209 H209       -2.9706  -21.3840  -49.9315 H         1 UNK         0.0600 
    210 H210       -3.6443  -25.1429  -52.1766 H         1 UNK         0.3000 
    211 H211       -5.1489  -26.3129  -50.1217 H         1 UNK         0.0600 
    212 H212       -5.6193  -26.2889  -53.1520 H         1 UNK         0.0600 
    213 H213       -6.3741  -27.4010  -52.0172 H         1 UNK         0.0600 
    214 H214       -4.6345  -27.4458  -52.2567 H         1 UNK         0.0600 
    215 H215       -6.6623  -25.3928  -48.9410 H         1 UNK         0.3000 
    216 H216       -8.3390  -24.2065  -48.1414 H         1 UNK         0.0600 
    217 H217      -10.4337  -24.0795  -49.4363 H         1 UNK         0.0600 
    218 H218       -9.6771  -25.6389  -49.7098 H         1 UNK         0.0600 
    219 H219       -9.5751  -24.3808  -50.9410 H         1 UNK         0.0600 
    220 H220       -6.0704  -22.7399  -49.2107 H         1 UNK         0.3000 
    221 H221       -5.2394  -20.7485  -49.4271 H         1 UNK         0.0600 
    222 H222       -7.9693  -19.5381  -48.7485 H         1 UNK         0.0600 
    223 H223       -6.7625  -20.0442  -47.5700 H         1 UNK         0.0600 
    224 H224       -6.4140  -18.7258  -48.6786 H         1 UNK         0.0600 
    225 H225       -8.3268  -20.9902  -51.1111 H         1 UNK         0.3000 
    226 H226       -8.1336  -18.9413  -52.9690 H         1 UNK         0.0600 
    227 H227      -10.2038  -20.2064  -52.4634 H         1 UNK         0.0600 
    228 H228       -9.8987  -20.2393  -54.1930 H         1 UNK         0.0600 
    229 H229       -9.5371  -21.6566  -53.2128 H         1 UNK         0.0600 
    230 H230       -6.4538  -22.0119  -53.1046 H         1 UNK         0.3000 
    231 H231       -5.7785  -22.0321  -55.8859 H         1 UNK         0.0600 
    232 H232       -5.5878  -24.0277  -54.4152 H         1 UNK         0.0600 
    233 H233       -4.3383  -23.2268  -53.4652 H         1 UNK         0.0600 
    234 H234       -4.0311  -23.6584  -55.1432 H         1 UNK         0.0600 
    235 H235       -4.6216  -20.0651  -53.2544 H         1 UNK         0.3000 
    236 H236       -3.0547  -18.5359  -52.9694 H         1 UNK         0.0600 
    237 H237       -3.4695  -18.1150  -55.9767 H         1 UNK         0.0600 
    238 H238       -4.5028  -17.4818  -54.6961 H         1 UNK         0.0600 
    239 H239       -2.8484  -16.9169  -54.8522 H         1 UNK         0.0600 
    240 H240       -1.9182  -21.1268  -53.4039 H         1 UNK         0.3000 
    241 H241       -0.0364  -22.2326  -53.6615 H         1 UNK         0.0600 
    242 H242       -1.5125  -21.2422  -56.2302 H         1 UNK         0.3800 
    243 H243       -0.3286  -21.6453  -57.4490 H         1 UNK         0.3800 
    244 H244        1.3573  -19.5149  -53.5570 H         1 UNK         0.0800 
    245 H245        2.2115  -21.0323  -53.5516 H         1 UNK         0.0800 
    246 H246        2.1475  -18.5912  -51.4214 H         1 UNK         0.0800 
    247 H247        1.6492  -19.1112  -49.8360 H         1 UNK         0.0800 
@<TRIPOS>BOND
     1    1    2 1    
     2    1  127 1    
     3    1  128 1    
     4    1  129 1    
     5    2    3 2    
     6    2    4 am   BACKBONE|DICT|INTERRES
     7    4    5 1    
     8    4  130 1    
     9    5    6 1    
    10    5   65 1    
    11    5  131 1    
    12    6    7 1    
    13    6  132 1    
    14    6  133 1    
    15    7    8 1    
    16    8    9 1    
    17    8  134 1    
    18    8  135 1    
    19    9   10 ar   
    20    9   14 ar   
    21   10   11 ar   
    22   10  136 1    
    23   11   12 ar   
    24   11  126 1    
    25   12   13 ar   
    26   12  137 1    
    27   13   14 ar   
    28   13   15 1    
    29   14  138 1    
    30   15   16 1    
    31   15  139 1    
    32   15  140 1    
    33   16   17 1    
    34   17   18 1    
    35   17  141 1    
    36   17  142 1    
    37   18   19 1    
    38   18   67 1    
    39   18  143 1    
    40   19   20 am   BACKBONE|DICT|INTERRES
    41   19  144 1    
    42   20   21 2    
    43   20   22 1    
    44   22   23 1    
    45   22   24 1    
    46   22  145 1    
    47   23  146 1    
    48   23  147 1    
    49   23  148 1    
    50   24   25 am   BACKBONE|DICT|INTERRES
    51   24  149 1    
    52   25   26 2    
    53   25   27 1    
    54   27   28 1    
    55   27   29 1    
    56   27  150 1    
    57   28  151 1    
    58   28  152 1    
    59   28  153 1    
    60   29   30 am   BACKBONE|DICT|INTERRES
    61   29  154 1    
    62   30   31 2    
    63   30   32 1    
    64   32   33 1    
    65   32   34 1    
    66   32  155 1    
    67   33  156 1    
    68   33  157 1    
    69   33  158 1    
    70   34   35 am   BACKBONE|DICT|INTERRES
    71   34  159 1    
    72   35   36 2    
    73   35   37 1    
    74   37   38 1    
    75   37   39 1    
    76   37  160 1    
    77   38  161 1    
    78   38  162 1    
    79   38  163 1    
    80   39   40 am   BACKBONE|DICT|INTERRES
    81   39  164 1    
    82   40   41 2    
    83   40   42 1    
    84   42   43 1    
    85   42   44 1    
    86   42  165 1    
    87   43  166 1    
    88   43  167 1    
    89   43  168 1    
    90   44   45 am   BACKBONE|DICT|INTERRES
    91   44  169 1    
    92   45   46 2    
    93   45   47 1    
    94   47   48 1    
    95   47   49 1    
    96   47  170 1    
    97   48  171 1    
    98   48  172 1    
    99   48  173 1    
   100   49   50 am   BACKBONE|DICT|INTERRES
   101   49  174 1    
   102   50   51 2    
   103   50   52 1    
   104   52   53 1    
   105   52   54 1    
   106   52  175 1    
   107   53  176 1    
   108   53  177 1    
   109   53  178 1    
   110   54   55 am   BACKBONE|DICT|INTERRES
   111   54  179 1    
   112   55   56 2    
   113   55   57 1    
   114   57   58 1    
   115   57   59 1    
   116   57  180 1    
   117   58  181 1    
   118   58  182 1    
   119   58  183 1    
   120   59   60 am   BACKBONE|DICT|INTERRES
   121   59  184 1    
   122   60   61 2    
   123   60   62 1    
   124   62   63 1    
   125   62   64 1    
   126   62  185 1    
   127   63  186 1    
   128   63  187 1    
   129   63  188 1    
   130   64   65 am   BACKBONE|DICT|INTERRES
   131   64  189 1    
   132   65   66 2    
   133   67   68 2    
   134   67   69 am   BACKBONE|DICT|INTERRES
   135   69   70 1    
   136   69  190 1    
   137   70   71 1    
   138   70   72 1    
   139   70  191 1    
   140   71  192 1    
   141   71  193 1    
   142   71  194 1    
   143   72   73 2    
   144   72   74 am   BACKBONE|DICT|INTERRES
   145   74   75 1    
   146   74  195 1    
   147   75   76 1    
   148   75   77 1    
   149   75  196 1    
   150   76  197 1    
   151   76  198 1    
   152   76  199 1    
   153   77   78 2    
   154   77   79 am   BACKBONE|DICT|INTERRES
   155   79   80 1    
   156   79  200 1    
   157   80   81 1    
   158   80   82 1    
   159   80  201 1    
   160   81  202 1    
   161   81  203 1    
   162   81  204 1    
   163   82   83 2    
   164   82   84 am   BACKBONE|DICT|INTERRES
   165   84   85 1    
   166   84  205 1    
   167   85   86 1    
   168   85   87 1    
   169   85  206 1    
   170   86  207 1    
   171   86  208 1    
   172   86  209 1    
   173   87   88 2    
   174   87   89 am   BACKBONE|DICT|INTERRES
   175   89   90 1    
   176   89  210 1    
   177   90   91 1    
   178   90   92 1    
   179   90  211 1    
   180   91  212 1    
   181   91  213 1    
   182   91  214 1    
   183   92   93 2    
   184   92   94 am   BACKBONE|DICT|INTERRES
   185   94   95 1    
   186   94  215 1    
   187   95   96 1    
   188   95   97 1    
   189   95  216 1    
   190   96  217 1    
   191   96  218 1    
   192   96  219 1    
   193   97   98 2    
   194   97   99 am   BACKBONE|DICT|INTERRES
   195   99  100 1    
   196   99  220 1    
   197  100  101 1    
   198  100  102 1    
   199  100  221 1    
   200  101  222 1    
   201  101  223 1    
   202  101  224 1    
   203  102  103 2    
   204  102  104 am   BACKBONE|DICT|INTERRES
   205  104  105 1    
   206  104  225 1    
   207  105  106 1    
   208  105  107 1    
   209  105  226 1    
   210  106  227 1    
   211  106  228 1    
   212  106  229 1    
   213  107  108 2    
   214  107  109 am   BACKBONE|DICT|INTERRES
   215  109  110 1    
   216  109  230 1    
   217  110  111 1    
   218  110  112 1    
   219  110  231 1    
   220  111  232 1    
   221  111  233 1    
   222  111  234 1    
   223  112  113 2    
   224  112  114 am   BACKBONE|DICT|INTERRES
   225  114  115 1    
   226  114  235 1    
   227  115  116 1    
   228  115  117 1    
   229  115  236 1    
   230  116  237 1    
   231  116  238 1    
   232  116  239 1    
   233  117  118 2    
   234  117  119 am   BACKBONE|DICT|INTERRES
   235  119  120 1    
   236  119  240 1    
   237  120  121 1    
   238  120  124 1    
   239  120  241 1    
   240  121  122 am   BACKBONE|DICT|INTERRES
   241  121  123 2    
   242  122  242 1    
   243  122  243 1    
   244  124  125 1    
   245  124  244 1    
   246  124  245 1    
   247  125  126 1    
   248  126  246 1    
   249  126  247 1    
@<TRIPOS>SUBSTRUCTURE
     1 UNK         1 GROUP             0       ****    0 ROOT    
