@<TRIPOS>MOLECULE
3R540
247   249    1
SMALL
USER_CHARGES


@<TRIPOS>ATOM
      1 CA         -0.3995  -12.1666  -50.5163 C.3       0 UNK        -0.1800 
      2 C          -0.6160  -13.2277  -49.4460 C.2       0 UNK         0.5000 
      3 O          -1.7455  -13.6825  -49.2698 O.2       0 UNK        -0.5000 
      4 N           0.4663  -13.6062  -48.7490 N.am      1 UNK        -0.5000 
      5 CA          0.5532  -14.5954  -47.6644 C.3       1 UNK         0.1400 
      6 C6          0.7614  -16.0577  -48.1627 C.3       23 UNK        -0.0398 
      7 S7         -0.6119  -16.8109  -49.1098 S.3       23 UNK        -0.2404 
      8 C8          0.0996  -16.9463  -50.7804 C.3       23 UNK        -0.0205 
      9 C9          0.7666  -18.2946  -51.0359 C.ar      23 UNK        -0.0193 
     10 C10         0.3099  -19.1122  -52.0754 C.ar      23 UNK        -0.1150 
     11 C11         0.9478  -20.3260  -52.3729 C.ar      23 UNK        -0.0193 
     12 C12         2.0377  -20.7208  -51.5930 C.ar      23 UNK        -0.1150 
     13 C13         2.4960  -19.9248  -50.5410 C.ar      23 UNK        -0.0193 
     14 C14         1.8621  -18.7106  -50.2727 C.ar      23 UNK        -0.1150 
     15 C15         3.6997  -20.3641  -49.7219 C.3       23 UNK        -0.0205 
     16 S16         3.3213  -21.7849  -48.6508 S.3       23 UNK        -0.2404 
     17 C17         2.3636  -21.0123  -47.3043 C.3       23 UNK        -0.0398 
     18 CA          1.1769  -21.9042  -46.8551 C.3       11 UNK         0.1400 
     19 N           0.9944  -21.9005  -45.4005 N.am      11 UNK        -0.5000 
     20 C           0.2069  -22.7563  -44.7326 C.2       10 UNK         0.5000 
     21 O          -0.4224  -23.6677  -45.2704 O.2       10 UNK        -0.5000 
     22 CA          0.0566  -22.5248  -43.2170 C.3       10 UNK         0.1400 
     23 CB          1.2462  -23.1152  -42.4458 C.3       10 UNK        -0.1800 
     24 N          -0.0966  -21.1083  -42.8835 N.am      10 UNK        -0.5000 
     25 C          -1.1352  -20.3537  -43.2697 C.2       9 UNK         0.5000 
     26 O          -2.1064  -20.7927  -43.8839 O.2       9 UNK        -0.5000 
     27 CA         -1.0513  -18.8486  -42.9723 C.3       9 UNK         0.1400 
     28 CB         -1.4849  -18.5439  -41.5310 C.3       9 UNK        -0.1800 
     29 N           0.2861  -18.3117  -43.2128 N.am      9 UNK        -0.5000 
     30 C           0.8789  -18.2389  -44.4118 C.2       8 UNK         0.5000 
     31 O           0.3432  -18.5831  -45.4641 O.2       8 UNK        -0.5000 
     32 CA          2.3382  -17.7535  -44.4367 C.3       8 UNK         0.1400 
     33 CB          2.4168  -16.2203  -44.4531 C.3       8 UNK        -0.1800 
     34 N           3.1079  -18.2754  -43.3080 N.am      8 UNK        -0.5000 
     35 C           3.4251  -19.5673  -43.1420 C.2       7 UNK         0.5000 
     36 O           3.1349  -20.4500  -43.9483 O.2       7 UNK        -0.5000 
     37 CA          4.1484  -19.9376  -41.8349 C.3       7 UNK         0.1400 
     38 CB          5.6605  -19.7040  -41.9677 C.3       7 UNK        -0.1800 
     39 N           3.6391  -19.1850  -40.6876 N.am      7 UNK        -0.5000 
     40 C           2.4127  -19.3379  -40.1676 C.2       6 UNK         0.5000 
     41 O           1.6005  -20.1719  -40.5684 O.2       6 UNK        -0.5000 
     42 CA          2.0140  -18.3526  -39.0505 C.3       6 UNK         0.1400 
     43 CB          2.5089  -18.8513  -37.6848 C.3       6 UNK        -0.1800 
     44 N           2.5135  -16.9923  -39.2866 N.am      6 UNK        -0.5000 
     45 C           2.1395  -16.2302  -40.3224 C.2       5 UNK         0.5000 
     46 O           1.3158  -16.5918  -41.1630 O.2       5 UNK        -0.5000 
     47 CA          2.8450  -14.8780  -40.4875 C.3       5 UNK         0.1400 
     48 CB          4.2718  -15.0896  -41.0350 C.3       5 UNK        -0.1800 
     49 N           2.0658  -14.0459  -41.4030 N.am      5 UNK        -0.5000 
     50 C           2.2463  -12.7373  -41.6210 C.2       4 UNK         0.5000 
     51 O           3.1089  -12.0645  -41.0544 O.2       4 UNK        -0.5000 
     52 CA          1.3100  -12.0501  -42.6378 C.3       4 UNK         0.1400 
     53 CB          1.9267  -12.1002  -44.0445 C.3       4 UNK        -0.1800 
     54 N          -0.0419  -12.6096  -42.6967 N.am      4 UNK        -0.5000 
     55 C          -0.9132  -12.6623  -41.6795 C.2       3 UNK         0.5000 
     56 O          -0.6724  -12.2022  -40.5623 O.2       3 UNK        -0.5000 
     57 CA         -2.2885  -13.3240  -41.9318 C.3       3 UNK         0.1400 
     58 CB         -3.4287  -12.3246  -41.6735 C.3       3 UNK        -0.1800 
     59 N          -2.4888  -13.9133  -43.2609 N.am      3 UNK        -0.5000 
     60 C          -1.8164  -14.9505  -43.7754 C.2       2 UNK         0.5000 
     61 O          -0.8582  -15.4746  -43.2136 O.2       2 UNK        -0.5000 
     62 CA         -2.2701  -15.4936  -45.1468 C.3       2 UNK         0.1400 
     63 CB         -3.5391  -14.8192  -45.7141 C.3       2 UNK        -0.1800 
     64 N          -1.1942  -15.4631  -46.1402 N.am      2 UNK        -0.5000 
     65 C          -0.5064  -14.3888  -46.5529 C.2       1 UNK         0.5000 
     66 O          -0.6533  -13.2602  -46.0766 O.2       1 UNK        -0.5000 
     67 C          -0.1310  -21.5598  -47.5994 C.2       11 UNK         0.5000 
     68 O          -0.4757  -22.2415  -48.5640 O.2       11 UNK        -0.5000 
     69 N          -0.8705  -20.5588  -47.0967 N.am      12 UNK        -0.5000 
     70 CA         -2.1979  -20.1810  -47.5815 C.3       12 UNK         0.1400 
     71 CB         -2.6919  -18.9208  -46.8567 C.3       12 UNK        -0.1800 
     72 C          -3.2220  -21.3157  -47.4251 C.2       12 UNK         0.5000 
     73 O          -3.9587  -21.5901  -48.3701 O.2       12 UNK        -0.5000 
     74 N          -3.2354  -21.9738  -46.2571 N.am      13 UNK        -0.5000 
     75 CA         -4.0924  -23.1223  -45.9565 C.3       13 UNK         0.1400 
     76 CB         -3.9506  -23.5081  -44.4770 C.3       13 UNK        -0.1800 
     77 C          -3.8135  -24.3285  -46.8708 C.2       13 UNK         0.5000 
     78 O          -4.7593  -24.9286  -47.3825 O.2       13 UNK        -0.5000 
     79 N          -2.5274  -24.6207  -47.1156 N.am      14 UNK        -0.5000 
     80 CA         -2.0706  -25.6360  -48.0707 C.3       14 UNK         0.1400 
     81 CB         -0.5492  -25.8063  -47.9451 C.3       14 UNK        -0.1800 
     82 C          -2.4680  -25.3172  -49.5273 C.2       14 UNK         0.5000 
     83 O          -2.7331  -26.2351  -50.3034 O.2       14 UNK        -0.5000 
     84 N          -2.5526  -24.0214  -49.8509 N.am      15 UNK        -0.5000 
     85 CA         -3.0326  -23.4726  -51.1182 C.3       15 UNK         0.1400 
     86 CB         -2.3189  -22.1338  -51.3582 C.3       15 UNK        -0.1800 
     87 C          -4.5690  -23.3101  -51.1739 C.2       15 UNK         0.5000 
     88 O          -5.0638  -22.6161  -52.0641 O.2       15 UNK        -0.5000 
     89 N          -5.2975  -23.9270  -50.2296 N.am      16 UNK        -0.5000 
     90 CA         -6.7585  -23.9438  -50.0958 C.3       16 UNK         0.1400 
     91 CB         -7.4088  -24.6669  -51.2945 C.3       16 UNK        -0.1800 
     92 C          -7.3485  -22.5430  -49.8349 C.2       16 UNK         0.5000 
     93 O          -8.3149  -22.1456  -50.4848 O.2       16 UNK        -0.5000 
     94 N          -6.7275  -21.8174  -48.8948 N.am      17 UNK        -0.5000 
     95 CA         -6.9623  -20.4103  -48.5480 C.3       17 UNK         0.1400 
     96 CB         -8.4060  -20.1695  -48.0585 C.3       17 UNK        -0.1800 
     97 C          -6.5257  -19.4679  -49.6885 C.2       17 UNK         0.5000 
     98 O          -7.2154  -18.4928  -49.9907 O.2       17 UNK        -0.5000 
     99 N          -5.3799  -19.8035  -50.3022 N.am      18 UNK        -0.5000 
    100 CA        -4.7523  -19.1452  -51.4543 C.3       18 UNK         0.1400 
    101 CB        -4.2068  -17.7587  -51.0553 C.3       18 UNK        -0.1800 
    102 C         -5.6498  -19.1156  -52.7130 C.2       18 UNK         0.5000 
    103 O         -5.5892  -18.1645  -53.4941 O.2       18 UNK        -0.5000 
    104 N         -6.4673  -20.1626  -52.8867 N.am      19 UNK        -0.5000 
    105 CA        -7.3528  -20.3541  -54.0355 C.3       19 UNK         0.1400 
    106 CB        -8.5986  -21.1297  -53.5841 C.3       19 UNK        -0.1800 
    107 C         -6.6568  -21.0911  -55.1940 C.2       19 UNK         0.5000 
    108 O         -7.1233  -20.9960  -56.3308 O.2       19 UNK        -0.5000 
    109 N         -5.5707  -21.8183  -54.8949 N.am      20 UNK        -0.5000 
    110 CA        -4.7286  -22.5197  -55.8644 C.3       20 UNK         0.1400 
    111 CB        -3.7089  -23.3767  -55.0970 C.3       20 UNK        -0.1800 
    112 C         -4.0149  -21.5659  -56.8461 C.2       20 UNK         0.5000 
    113 O         -3.8658  -20.3726  -56.5673 O.2       20 UNK        -0.5000 
    114 N         -3.5627  -22.1199  -57.9786 N.am      21 UNK        -0.5000 
    115 CA        -2.8512  -21.4196  -59.0521 C.3       21 UNK         0.1400 
    116 CB        -2.9723  -22.2483  -60.3439 C.3       21 UNK        -0.1800 
    117 C         -1.3841  -21.1114  -58.6782 C.2       21 UNK         0.5000 
    118 O         -0.4560  -21.6227  -59.3078 O.2       21 UNK        -0.5000 
    119 N         -1.2086  -20.2952  -57.6355 N.am      22 UNK        -0.5000 
    120 CA         0.0848  -19.8989  -57.0549 C.3       22 UNK         0.1400 
    121 C          0.8853  -18.8552  -57.8886 C.2       22 UNK         0.5000 
    122 N          0.3146  -18.2398  -58.9173 N.am      22 UNK        -0.7600 
    123 O          2.0522  -18.6039  -57.6004 O.2       22 UNK        -0.5000 
    124 C124       -0.0810  -19.4202  -55.5898 C.3       23 UNK        -0.0398 
    125 S125       -0.8827  -20.6764  -54.5344 S.3       23 UNK        -0.2404 
    126 C126        0.5206  -21.2487  -53.5185 C.3       23 UNK        -0.0205 
    127 H127       -0.6892  -12.5552  -51.4926 H         1 UNK         0.0600 
    128 H128        0.6425  -11.8506  -50.5724 H         1 UNK         0.0600 
    129 H129       -1.0096  -11.2889  -50.3029 H         1 UNK         0.0600 
    130 H130        1.3396  -13.1431  -48.9564 H         1 UNK         0.3000 
    131 H131        1.4861  -14.3316  -47.1640 H         1 UNK         0.0600 
    132 H132        0.9872  -16.7189  -47.3262 H         1 UNK         0.0800 
    133 H133        1.6625  -16.0713  -48.7745 H         1 UNK         0.0800 
    134 H134       -0.7090  -16.7851  -51.4948 H         1 UNK         0.0800 
    135 H135        0.8148  -16.1419  -50.9557 H         1 UNK         0.0800 
    136 H136       -0.5357  -18.7814  -52.6590 H         1 UNK         0.1150 
    137 H137        2.5376  -21.6557  -51.8057 H         1 UNK         0.1150 
    138 H138        2.2314  -18.0902  -49.4717 H         1 UNK         0.1150 
    139 H139        4.5054  -20.6444  -50.4019 H         1 UNK         0.0800 
    140 H140        4.0863  -19.5430  -49.1162 H         1 UNK         0.0800 
    141 H141        2.0353  -20.0090  -47.5823 H         1 UNK         0.0800 
    142 H142        3.0677  -20.8706  -46.4852 H         1 UNK         0.0800 
    143 H143        1.4139  -22.9399  -47.1099 H         1 UNK         0.0600 
    144 H144        1.5190  -21.2089  -44.8748 H         1 UNK         0.3000 
    145 H145       -0.8473  -23.0431  -42.8904 H         1 UNK         0.0600 
    146 H146        1.1135  -23.0006  -41.3698 H         1 UNK         0.0600 
    147 H147        1.3516  -24.1814  -42.6498 H         1 UNK         0.0600 
    148 H148        2.1856  -22.6350  -42.7186 H         1 UNK         0.0600 
    149 H149        0.6396  -20.6813  -42.3317 H         1 UNK         0.3000 
    150 H150       -1.7408  -18.3392  -43.6464 H         1 UNK         0.0600 
    151 H151       -2.5000  -18.8973  -41.3464 H         1 UNK         0.0600 
    152 H152       -1.4719  -17.4715  -41.3351 H         1 UNK         0.0600 
    153 H153       -0.8320  -19.0232  -40.8021 H         1 UNK         0.0600 
    154 H154        0.7571  -17.8959  -42.4140 H         1 UNK         0.3000 
    155 H155        2.7952  -18.1248  -45.3566 H         1 UNK         0.0600 
    156 H156        1.9110  -15.8150  -45.3260 H         1 UNK         0.0600 
    157 H157        1.9411  -15.7810  -43.5785 H         1 UNK         0.0600 
    158 H158        3.4497  -15.8741  -44.4868 H         1 UNK         0.0600 
    159 H159        3.3388  -17.6236  -42.5750 H         1 UNK         0.3000 
    160 H160        3.9808  -21.0008  -41.6497 H         1 UNK         0.0600 
    161 H161        5.8948  -18.6514  -42.1320 H         1 UNK         0.0600 
    162 H162        6.0692  -20.2666  -42.8082 H         1 UNK         0.0600 
    163 H163        6.1896  -20.0302  -41.0721 H         1 UNK         0.0600 
    164 H164        4.2469  -18.4826  -40.2933 H         1 UNK         0.3000 
    165 H165        0.9231  -18.3103  -39.0225 H         1 UNK         0.0600 
    166 H166        2.1602  -18.2048  -36.8792 H         1 UNK         0.0600 
    167 H167        2.1363  -19.8555  -37.4781 H         1 UNK         0.0600 
    168 H168        3.5979  -18.8891  -37.6383 H         1 UNK         0.0600 
    169 H169        3.1972  -16.6394  -38.6323 H         1 UNK         0.3000 
    170 H170        2.8879  -14.3892  -39.5123 H         1 UNK         0.0600 
    171 H171        4.2586  -15.5328  -42.0310 H         1 UNK         0.0600 
    172 H172        4.8205  -14.1502  -41.0987 H         1 UNK         0.0600 
    173 H173        4.8518  -15.7493  -40.3888 H         1 UNK         0.0600 
    174 H174        1.3077  -14.5351  -41.8674 H         1 UNK         0.3000 
    175 H175        1.2185  -11.0033  -42.3416 H         1 UNK         0.0600 
    176 H176        1.3289  -11.5328  -44.7582 H         1 UNK         0.0600 
    177 H177        2.0037  -13.1240  -44.4125 H         1 UNK         0.0600 
    178 H178        2.9301  -11.6722  -44.0489 H         1 UNK         0.0600 
    179 H179       -0.3241  -13.0149  -43.5791 H         1 UNK         0.3000 
    180 H180       -2.3776  -14.1327  -41.2036 H         1 UNK         0.0600 
    181 H181       -4.4032  -12.8065  -41.7549 H         1 UNK         0.0600 
    182 H182       -3.4022  -11.4959  -42.3821 H         1 UNK         0.0600 
    183 H183       -3.3643  -11.9008  -40.6705 H         1 UNK         0.0600 
    184 H184       -3.2328  -13.5130  -43.8135 H         1 UNK         0.3000 
    185 H185       -2.5077  -16.5449  -44.9860 H         1 UNK         0.0600 
    186 H186       -4.3810  -14.9156  -45.0275 H         1 UNK         0.0600 
    187 H187       -3.3874  -13.7582  -45.9159 H         1 UNK         0.0600 
    188 H188       -3.8384  -15.2890  -46.6514 H         1 UNK         0.0600 
    189 H189       -0.9874  -16.3501  -46.5783 H         1 UNK         0.3000 
    190 H190       -0.4916  -20.0029  -46.3342 H         1 UNK         0.3000 
    191 H191       -2.1054  -19.9479  -48.6442 H         1 UNK         0.0600 
    192 H192       -1.9663  -18.1149  -46.9314 H         1 UNK         0.0600 
    193 H193       -3.6243  -18.5616  -47.2938 H         1 UNK         0.0600 
    194 H194       -2.8738  -19.1030  -45.7981 H         1 UNK         0.0600 
    195 H195       -2.6345  -21.6473  -45.5046 H         1 UNK         0.3000 
    196 H196       -5.1260  -22.8132  -46.1252 H         1 UNK         0.0600 
    197 H197       -4.5996  -24.3487  -44.2285 H         1 UNK         0.0600 
    198 H198       -4.2288  -22.6791  -43.8261 H         1 UNK         0.0600 
    199 H199       -2.9292  -23.7975  -44.2306 H         1 UNK         0.0600 
    200 H200       -1.8062  -24.1029  -46.6213 H         1 UNK         0.3000 
    201 H201       -2.5426  -26.5827  -47.8002 H         1 UNK         0.0600 
    202 H202       -0.2670  -26.0942  -46.9322 H         1 UNK         0.0600 
    203 H203       -0.0192  -24.8858  -48.1902 H         1 UNK         0.0600 
    204 H204       -0.1861  -26.5836  -48.6184 H         1 UNK         0.0600 
    205 H205       -2.2684  -23.3390  -49.1574 H         1 UNK         0.3000 
    206 H206       -2.7545  -24.1508  -51.9270 H         1 UNK         0.0600 
    207 H207       -1.2374  -22.2567  -51.3233 H         1 UNK         0.0600 
    208 H208       -2.5707  -21.7188  -52.3332 H         1 UNK         0.0600 
    209 H209       -2.5827  -21.3931  -50.6055 H         1 UNK         0.0600 
    210 H210       -4.7984  -24.4243  -49.5023 H         1 UNK         0.3000 
    211 H211       -6.9755  -24.5330  -49.2037 H         1 UNK         0.0600 
    212 H212       -7.2612  -24.1244  -52.2284 H         1 UNK         0.0600 
    213 H213       -8.4839  -24.7768  -51.1478 H         1 UNK         0.0600 
    214 H214       -6.9954  -25.6675  -51.4207 H         1 UNK         0.0600 
    215 H215       -5.8778  -22.2048  -48.4994 H         1 UNK         0.3000 
    216 H216       -6.2998  -20.1926  -47.7090 H         1 UNK         0.0600 
    217 H217       -8.5132  -19.1639  -47.6505 H         1 UNK         0.0600 
    218 H218       -8.6770  -20.8704  -47.2691 H         1 UNK         0.0600 
    219 H219       -9.1344  -20.2701  -48.8632 H         1 UNK         0.0600 
    220 H220       -4.8931  -20.6170  -49.9422 H         1 UNK         0.3000 
    221 H221       -3.8947  -19.7588  -51.7266 H         1 UNK         0.0600 
    222 H222       -5.0099  -17.0609  -50.8173 H         1 UNK         0.0600 
    223 H223       -3.5529  -17.8282  -50.1856 H         1 UNK         0.0600 
    224 H224       -3.6198  -17.3207  -51.8634 H         1 UNK         0.0600 
    225 H225       -6.4128  -20.9284  -52.2256 H         1 UNK         0.3000 
    226 H226       -7.6786  -19.3808  -54.4081 H         1 UNK         0.0600 
    227 H227       -9.1132  -20.6128  -52.7738 H         1 UNK         0.0600 
    228 H228       -9.3094  -21.2399  -54.4039 H         1 UNK         0.0600 
    229 H229       -8.3430  -22.1304  -53.2348 H         1 UNK         0.0600 
    230 H230       -5.2827  -21.8743  -53.9238 H         1 UNK         0.3000 
    231 H231       -5.3729  -23.1824  -56.4456 H         1 UNK         0.0600 
    232 H232       -3.0630  -22.7629  -54.4699 H         1 UNK         0.0600 
    233 H233       -3.0676  -23.9376  -55.7777 H         1 UNK         0.0600 
    234 H234       -4.2085  -24.1004  -54.4528 H         1 UNK         0.0600 
    235 H235       -3.6917  -23.1121  -58.1146 H         1 UNK         0.3000 
    236 H236       -3.3458  -20.4621  -59.2290 H         1 UNK         0.0600 
    237 H237       -4.0162  -22.3914  -60.6239 H         1 UNK         0.0600 
    238 H238       -2.4808  -21.7464  -61.1784 H         1 UNK         0.0600 
    239 H239       -2.5157  -23.2330  -60.2366 H         1 UNK         0.0600 
    240 H240       -2.0387  -19.9851  -57.1389 H         1 UNK         0.3000 
    241 H241        0.7113  -20.7926  -57.0315 H         1 UNK         0.0600 
    242 H242       -0.6418  -18.4368  -59.1648 H         1 UNK         0.3800 
    243 H243        0.8443  -17.5698  -59.4529 H         1 UNK         0.3800 
    244 H244       -0.6875  -18.5137  -55.5548 H         1 UNK         0.0800 
    245 H245        0.8851  -19.1535  -55.1574 H         1 UNK         0.0800 
    246 H246        1.3755  -21.4248  -54.1731 H         1 UNK         0.0800 
    247 H247        0.2580  -22.2209  -53.1014 H         1 UNK         0.0800 
@<TRIPOS>BOND
     1    1    2 1    
     2    1  127 1    
     3    1  128 1    
     4    1  129 1    
     5    2    3 2    
     6    2    4 am   BACKBONE|DICT|INTERRES
     7    4    5 1    
     8    4  130 1    
     9    5    6 1    
    10    5   65 1    
    11    5  131 1    
    12    6    7 1    
    13    6  132 1    
    14    6  133 1    
    15    7    8 1    
    16    8    9 1    
    17    8  134 1    
    18    8  135 1    
    19    9   10 ar   
    20    9   14 ar   
    21   10   11 ar   
    22   10  136 1    
    23   11   12 ar   
    24   11  126 1    
    25   12   13 ar   
    26   12  137 1    
    27   13   14 ar   
    28   13   15 1    
    29   14  138 1    
    30   15   16 1    
    31   15  139 1    
    32   15  140 1    
    33   16   17 1    
    34   17   18 1    
    35   17  141 1    
    36   17  142 1    
    37   18   19 1    
    38   18   67 1    
    39   18  143 1    
    40   19   20 am   BACKBONE|DICT|INTERRES
    41   19  144 1    
    42   20   21 2    
    43   20   22 1    
    44   22   23 1    
    45   22   24 1    
    46   22  145 1    
    47   23  146 1    
    48   23  147 1    
    49   23  148 1    
    50   24   25 am   BACKBONE|DICT|INTERRES
    51   24  149 1    
    52   25   26 2    
    53   25   27 1    
    54   27   28 1    
    55   27   29 1    
    56   27  150 1    
    57   28  151 1    
    58   28  152 1    
    59   28  153 1    
    60   29   30 am   BACKBONE|DICT|INTERRES
    61   29  154 1    
    62   30   31 2    
    63   30   32 1    
    64   32   33 1    
    65   32   34 1    
    66   32  155 1    
    67   33  156 1    
    68   33  157 1    
    69   33  158 1    
    70   34   35 am   BACKBONE|DICT|INTERRES
    71   34  159 1    
    72   35   36 2    
    73   35   37 1    
    74   37   38 1    
    75   37   39 1    
    76   37  160 1    
    77   38  161 1    
    78   38  162 1    
    79   38  163 1    
    80   39   40 am   BACKBONE|DICT|INTERRES
    81   39  164 1    
    82   40   41 2    
    83   40   42 1    
    84   42   43 1    
    85   42   44 1    
    86   42  165 1    
    87   43  166 1    
    88   43  167 1    
    89   43  168 1    
    90   44   45 am   BACKBONE|DICT|INTERRES
    91   44  169 1    
    92   45   46 2    
    93   45   47 1    
    94   47   48 1    
    95   47   49 1    
    96   47  170 1    
    97   48  171 1    
    98   48  172 1    
    99   48  173 1    
   100   49   50 am   BACKBONE|DICT|INTERRES
   101   49  174 1    
   102   50   51 2    
   103   50   52 1    
   104   52   53 1    
   105   52   54 1    
   106   52  175 1    
   107   53  176 1    
   108   53  177 1    
   109   53  178 1    
   110   54   55 am   BACKBONE|DICT|INTERRES
   111   54  179 1    
   112   55   56 2    
   113   55   57 1    
   114   57   58 1    
   115   57   59 1    
   116   57  180 1    
   117   58  181 1    
   118   58  182 1    
   119   58  183 1    
   120   59   60 am   BACKBONE|DICT|INTERRES
   121   59  184 1    
   122   60   61 2    
   123   60   62 1    
   124   62   63 1    
   125   62   64 1    
   126   62  185 1    
   127   63  186 1    
   128   63  187 1    
   129   63  188 1    
   130   64   65 am   BACKBONE|DICT|INTERRES
   131   64  189 1    
   132   65   66 2    
   133   67   68 2    
   134   67   69 am   BACKBONE|DICT|INTERRES
   135   69   70 1    
   136   69  190 1    
   137   70   71 1    
   138   70   72 1    
   139   70  191 1    
   140   71  192 1    
   141   71  193 1    
   142   71  194 1    
   143   72   73 2    
   144   72   74 am   BACKBONE|DICT|INTERRES
   145   74   75 1    
   146   74  195 1    
   147   75   76 1    
   148   75   77 1    
   149   75  196 1    
   150   76  197 1    
   151   76  198 1    
   152   76  199 1    
   153   77   78 2    
   154   77   79 am   BACKBONE|DICT|INTERRES
   155   79   80 1    
   156   79  200 1    
   157   80   81 1    
   158   80   82 1    
   159   80  201 1    
   160   81  202 1    
   161   81  203 1    
   162   81  204 1    
   163   82   83 2    
   164   82   84 am   BACKBONE|DICT|INTERRES
   165   84   85 1    
   166   84  205 1    
   167   85   86 1    
   168   85   87 1    
   169   85  206 1    
   170   86  207 1    
   171   86  208 1    
   172   86  209 1    
   173   87   88 2    
   174   87   89 am   BACKBONE|DICT|INTERRES
   175   89   90 1    
   176   89  210 1    
   177   90   91 1    
   178   90   92 1    
   179   90  211 1    
   180   91  212 1    
   181   91  213 1    
   182   91  214 1    
   183   92   93 2    
   184   92   94 am   BACKBONE|DICT|INTERRES
   185   94   95 1    
   186   94  215 1    
   187   95   96 1    
   188   95   97 1    
   189   95  216 1    
   190   96  217 1    
   191   96  218 1    
   192   96  219 1    
   193   97   98 2    
   194   97   99 am   BACKBONE|DICT|INTERRES
   195   99  100 1    
   196   99  220 1    
   197  100  101 1    
   198  100  102 1    
   199  100  221 1    
   200  101  222 1    
   201  101  223 1    
   202  101  224 1    
   203  102  103 2    
   204  102  104 am   BACKBONE|DICT|INTERRES
   205  104  105 1    
   206  104  225 1    
   207  105  106 1    
   208  105  107 1    
   209  105  226 1    
   210  106  227 1    
   211  106  228 1    
   212  106  229 1    
   213  107  108 2    
   214  107  109 am   BACKBONE|DICT|INTERRES
   215  109  110 1    
   216  109  230 1    
   217  110  111 1    
   218  110  112 1    
   219  110  231 1    
   220  111  232 1    
   221  111  233 1    
   222  111  234 1    
   223  112  113 2    
   224  112  114 am   BACKBONE|DICT|INTERRES
   225  114  115 1    
   226  114  235 1    
   227  115  116 1    
   228  115  117 1    
   229  115  236 1    
   230  116  237 1    
   231  116  238 1    
   232  116  239 1    
   233  117  118 2    
   234  117  119 am   BACKBONE|DICT|INTERRES
   235  119  120 1    
   236  119  240 1    
   237  120  121 1    
   238  120  124 1    
   239  120  241 1    
   240  121  122 am   BACKBONE|DICT|INTERRES
   241  121  123 2    
   242  122  242 1    
   243  122  243 1    
   244  124  125 1    
   245  124  244 1    
   246  124  245 1    
   247  125  126 1    
   248  126  246 1    
   249  126  247 1    
@<TRIPOS>SUBSTRUCTURE
     1 UNK         1 GROUP             0       ****    0 ROOT    
