@<TRIPOS>MOLECULE
3R540
247   249    1
SMALL
USER_CHARGES


@<TRIPOS>ATOM
      1 CA         -3.9261  -16.5567  -42.2662 C.3       0 UNK        -0.1800 
      2 C          -2.8040  -15.5886  -42.6102 C.2       0 UNK         0.5000 
      3 O          -2.5224  -14.6705  -41.8407 O.2       0 UNK        -0.5000 
      4 N          -2.1367  -15.8019  -43.7512 N.am      1 UNK        -0.5000 
      5 CA         -1.0712  -14.9472  -44.2947 C.3       1 UNK         0.1400 
      6 C6         -0.8249  -15.1883  -45.8061 C.3       23 UNK        -0.0398 
      7 S7         -0.7983  -16.9368  -46.3311 S.3       23 UNK        -0.2404 
      8 C8         -1.1646  -16.6993  -48.1003 C.3       23 UNK        -0.0205 
      9 C9         -1.1191  -17.9897  -48.9065 C.ar      23 UNK        -0.0193 
     10 C10        -2.2670  -18.4632  -49.5497 C.ar      23 UNK        -0.1150 
     11 C11        -2.2083  -19.5919  -50.3746 C.ar      23 UNK        -0.0193 
     12 C12        -0.9933  -20.2656  -50.5267 C.ar      23 UNK        -0.1150 
     13 C13         0.1595  -19.8083  -49.8841 C.ar      23 UNK        -0.0193 
     14 C14         0.0887  -18.6707  -49.0764 C.ar      23 UNK        -0.1150 
     15 C15         1.4918  -20.5134  -50.0961 C.3       23 UNK        -0.0205 
     16 S16         1.5267  -22.1934  -49.3970 S.3       23 UNK        -0.2404 
     17 C17         1.2700  -21.8776  -47.6181 C.3       23 UNK        -0.0398 
     18 CA          0.2007  -22.8002  -46.9837 C.3       11 UNK         0.1400 
     19 N           0.2678  -22.7641  -45.5213 N.am      11 UNK        -0.5000 
     20 C          -0.3455  -23.6338  -44.7045 C.2       10 UNK         0.5000 
     21 O          -1.0146  -24.5879  -45.0985 O.2       10 UNK        -0.5000 
     22 CA         -0.2333  -23.3638  -43.1917 C.3       10 UNK         0.1400 
     23 CB          1.0360  -24.0135  -42.6215 C.3       10 UNK        -0.1800 
     24 N          -0.2322  -21.9367  -42.8680 N.am      10 UNK        -0.5000 
     25 C          -1.2452  -21.0964  -43.1221 C.2       9 UNK         0.5000 
     26 O          -2.3235  -21.4536  -43.5920 O.2       9 UNK        -0.5000 
     27 CA         -0.9995  -19.6005  -42.8569 C.3       9 UNK         0.1400 
     28 CB         -1.5485  -19.2051  -41.4786 C.3       9 UNK        -0.1800 
     29 N           0.4096  -19.2067  -42.9465 N.am      9 UNK        -0.5000 
     30 C           1.1604  -19.2808  -44.0531 C.2       8 UNK         0.5000 
     31 O           0.7676  -19.7565  -45.1200 O.2       8 UNK        -0.5000 
     32 CA          2.6046  -18.7851  -43.9369 C.3       8 UNK         0.1400 
     33 CB          3.5841  -19.9693  -43.9315 C.3       8 UNK        -0.1800 
     34 N           2.8886  -17.9218  -45.0760 N.am      8 UNK        -0.5000 
     35 C           3.4874  -16.7276  -45.0082 C.2       7 UNK         0.5000 
     36 O           3.9019  -16.2323  -43.9584 O.2       7 UNK        -0.5000 
     37 CA          3.6584  -15.9381  -46.3174 C.3       7 UNK         0.1400 
     38 CB          2.9129  -16.5360  -47.5308 C.3       7 UNK        -0.1800 
     39 N           3.2386  -14.5620  -46.0743 N.am      7 UNK        -0.5000 
     40 C           3.5345  -13.5063  -46.8417 C.2       6 UNK         0.5000 
     41 O           4.1960  -13.5734  -47.8783 O.2       6 UNK        -0.5000 
     42 CA          3.0153  -12.1393  -46.3683 C.3       6 UNK         0.1400 
     43 CB          1.6285  -11.8470  -46.9623 C.3       6 UNK        -0.1800 
     44 N           2.9277  -12.0676  -44.9126 N.am      6 UNK        -0.5000 
     45 C           3.9082  -11.6476  -44.1034 C.2       5 UNK         0.5000 
     46 O           5.0165  -11.2878  -44.5045 O.2       5 UNK        -0.5000 
     47 CA          3.5812  -11.6219  -42.5942 C.3       5 UNK         0.1400 
     48 CB          4.4386  -10.6111  -41.8053 C.3       5 UNK        -0.1800 
     49 N           2.1524  -11.4215  -42.3259 N.am      5 UNK        -0.5000 
     50 C           1.3887  -10.3654  -42.6517 C.2       4 UNK         0.5000 
     51 O           1.8198   -9.3345  -43.1684 O.2       4 UNK        -0.5000 
     52 CA         -0.1265  -10.4992  -42.3930 C.3       4 UNK         0.1400 
     53 CB         -0.8664  -10.7450  -43.7180 C.3       4 UNK        -0.1800 
     54 N          -0.4497  -11.5881  -41.4698 N.am      4 UNK        -0.5000 
     55 C          -0.2698  -11.5452  -40.1428 C.2       3 UNK         0.5000 
     56 O           0.0834  -10.5382  -39.5287 O.2       3 UNK        -0.5000 
     57 CA         -0.4770  -12.8693  -39.3876 C.3       3 UNK         0.1400 
     58 CB         -1.9323  -13.0053  -38.9152 C.3       3 UNK        -0.1800 
     59 N          -0.1135  -14.0319  -40.2044 N.am      3 UNK        -0.5000 
     60 C           1.1498  -14.3876  -40.4873 C.2       2 UNK         0.5000 
     61 O           2.1355  -13.7629  -40.0981 O.2       2 UNK        -0.5000 
     62 CA          1.3503  -15.6350  -41.3678 C.3       2 UNK         0.1400 
     63 CB          1.3359  -16.8901  -40.4798 C.3       2 UNK        -0.1800 
     64 N           0.3357  -15.7462  -42.4196 N.am      2 UNK        -0.5000 
     65 C           0.2354  -14.9127  -43.4664 C.2       1 UNK         0.5000 
     66 O           1.1001  -14.0820  -43.7561 O.2       1 UNK        -0.5000 
     67 C          -1.2254  -22.4821  -47.4785 C.2       11 UNK         0.5000 
     68 O          -1.7275  -23.1744  -48.3661 O.2       11 UNK        -0.5000 
     69 N          -1.8669  -21.4853  -46.8504 N.am      12 UNK        -0.5000 
     70 CA         -3.2546  -21.1029  -47.1057 C.3       12 UNK         0.1400 
     71 CB         -3.5597  -19.7592  -46.4261 C.3       12 UNK        -0.1800 
     72 C          -4.2558  -22.1803  -46.6567 C.2       12 UNK         0.5000 
     73 O          -5.1814  -22.4924  -47.4052 O.2       12 UNK        -0.5000 
     74 N          -4.0405  -22.7402  -45.4578 N.am      13 UNK        -0.5000 
     75 CA         -4.8696  -23.7865  -44.8574 C.3       13 UNK         0.1400 
     76 CB         -4.4358  -24.0132  -43.4014 C.3       13 UNK        -0.1800 
     77 C          -4.8365  -25.1073  -45.6456 C.2       13 UNK         0.5000 
     78 O          -5.8860  -25.7202  -45.8458 O.2       13 UNK        -0.5000 
     79 N          -3.6410  -25.5098  -46.0982 N.am      14 UNK        -0.5000 
     80 CA         -3.4415  -26.6812  -46.9532 C.3       14 UNK         0.1400 
     81 CB         -1.9601  -27.0870  -46.9065 C.3       14 UNK        -0.1800 
     82 C          -3.8726  -26.4417  -48.4126 C.2       14 UNK         0.5000 
     83 O          -4.1334  -27.4112  -49.1257 O.2       14 UNK        -0.5000 
     84 N          -3.9009  -25.1662  -48.8308 N.am      15 UNK        -0.5000 
     85 CA         -4.0677  -24.6763  -50.2028 C.3       15 UNK         0.1400 
     86 CB         -5.4884  -24.9623  -50.7296 C.3       15 UNK        -0.1800 
     87 C          -2.9527  -25.2115  -51.1243 C.2       15 UNK         0.5000 
     88 O          -3.2176  -25.6466  -52.2460 O.2       15 UNK        -0.5000 
     89 N          -1.7133  -25.1911  -50.6125 N.am      16 UNK        -0.5000 
     90 CA         -0.5422  -25.8422  -51.2089 C.3       16 UNK         0.1400 
     91 CB          0.5846  -25.9029  -50.1679 C.3       16 UNK        -0.1800 
     92 C          -0.0614  -25.2125  -52.5321 C.2       16 UNK         0.5000 
     93 O           0.6906  -25.8529  -53.2676 O.2       16 UNK        -0.5000 
     94 N          -0.5351  -23.9969  -52.8363 N.am      17 UNK        -0.5000 
     95 CA         -0.3732  -23.3341  -54.1320 C.3       17 UNK         0.1400 
     96 CB         -0.6624  -21.8360  -53.9608 C.3       17 UNK        -0.1800 
     97 C          -1.2606  -23.9337  -55.2464 C.2       17 UNK         0.5000 
     98 O          -1.0594  -23.5946  -56.4130 O.2       17 UNK        -0.5000 
     99 N          -2.2299  -24.7879  -54.8794 N.am      18 UNK        -0.5000 
    100 CA        -3.1894  -25.5296  -55.7092 C.3       18 UNK         0.1400 
    101 CB        -2.4759  -26.4373  -56.7292 C.3       18 UNK        -0.1800 
    102 C         -4.2662  -24.6608  -56.3872 C.2       18 UNK         0.5000 
    103 O         -5.4338  -25.0536  -56.4019 O.2       18 UNK        -0.5000 
    104 N         -3.8729  -23.5022  -56.9266 N.am      19 UNK        -0.5000 
    105 CA        -4.7620  -22.4964  -57.5017 C.3       19 UNK         0.1400 
    106 CB        -3.9147  -21.4550  -58.2491 C.3       19 UNK        -0.1800 
    107 C         -5.6043  -21.8104  -56.4126 C.2       19 UNK         0.5000 
    108 O         -5.0739  -21.4896  -55.3471 O.2       19 UNK        -0.5000 
    109 N         -6.8807  -21.5408  -56.7167 N.am      20 UNK        -0.5000 
    110 CA        -7.8244  -20.8611  -55.8200 C.3       20 UNK         0.1400 
    111 CB        -9.2378  -20.9515  -56.4155 C.3       20 UNK        -0.1800 
    112 C         -7.4513  -19.3921  -55.5335 C.2       20 UNK         0.5000 
    113 O         -7.7816  -18.8754  -54.4662 O.2       20 UNK        -0.5000 
    114 N         -6.7485  -18.7605  -56.4832 N.am      21 UNK        -0.5000 
    115 CA        -6.1757  -17.4190  -56.3586 C.3       21 UNK         0.1400 
    116 CB        -6.0475  -16.8157  -57.7673 C.3       21 UNK        -0.1800 
    117 C         -4.8097  -17.4098  -55.6377 C.2       21 UNK         0.5000 
    118 O         -4.2696  -16.3294  -55.3976 O.2       21 UNK        -0.5000 
    119 N         -4.2653  -18.5967  -55.3308 N.am      22 UNK        -0.5000 
    120 CA        -2.9614  -18.8335  -54.6861 C.3       22 UNK         0.1400 
    121 C         -1.7234  -18.4705  -55.5644 C.2       22 UNK         0.5000 
    122 N         -1.8690  -18.2756  -56.8696 N.am      22 UNK        -0.7600 
    123 O         -0.6039  -18.3929  -55.0666 O.2       22 UNK        -0.5000 
    124 C124       -2.8604  -18.2504  -53.2483 C.3       23 UNK        -0.0398 
    125 S125       -4.2219  -18.7773  -52.1445 S.3       23 UNK        -0.2404 
    126 C126       -3.4450  -20.0761  -51.1236 C.3       23 UNK        -0.0205 
    127 H127       -3.7918  -16.9453  -41.2568 H         1 UNK         0.0600 
    128 H128       -3.9574  -17.4015  -42.9548 H         1 UNK         0.0600 
    129 H129       -4.8869  -16.0441  -42.3089 H         1 UNK         0.0600 
    130 H130       -2.3962  -16.5777  -44.3447 H         1 UNK         0.3000 
    131 H131       -1.4498  -13.9259  -44.2179 H         1 UNK         0.0600 
    132 H132        0.0961  -14.7135  -46.1465 H         1 UNK         0.0800 
    133 H133       -1.6233  -14.6914  -46.3591 H         1 UNK         0.0800 
    134 H134       -2.1435  -16.2274  -48.1973 H         1 UNK         0.0800 
    135 H135       -0.4433  -15.9992  -48.5245 H         1 UNK         0.0800 
    136 H136       -3.2035  -17.9353  -49.4370 H         1 UNK         0.1150 
    137 H137       -0.9370  -21.1444  -51.1511 H         1 UNK         0.1150 
    138 H138        0.9791  -18.3035  -48.5905 H         1 UNK         0.1150 
    139 H139        1.6913  -20.5758  -51.1667 H         1 UNK         0.0800 
    140 H140        2.3113  -19.9345  -49.6670 H         1 UNK         0.0800 
    141 H141        1.0228  -20.8293  -47.4523 H         1 UNK         0.0800 
    142 H142        2.2307  -22.0354  -47.1264 H         1 UNK         0.0800 
    143 H143        0.4247  -23.8261  -47.2855 H         1 UNK         0.0600 
    144 H144        0.7286  -21.9587  -45.1180 H         1 UNK         0.3000 
    145 H145       -1.0988  -23.8187  -42.7062 H         1 UNK         0.0600 
    146 H146        1.9398  -23.5786  -43.0503 H         1 UNK         0.0600 
    147 H147        1.0871  -23.8961  -41.5389 H         1 UNK         0.0600 
    148 H148        1.0544  -25.0837  -42.8322 H         1 UNK         0.0600 
    149 H149        0.6154  -21.5598  -42.4715 H         1 UNK         0.3000 
    150 H150       -1.5485  -19.0426  -43.6187 H         1 UNK         0.0600 
    151 H151       -1.0151  -19.7104  -40.6725 H         1 UNK         0.0600 
    152 H152       -2.6035  -19.4682  -41.3886 H         1 UNK         0.0600 
    153 H153       -1.4699  -18.1322  -41.3114 H         1 UNK         0.0600 
    154 H154        0.8244  -18.8475  -42.1003 H         1 UNK         0.3000 
    155 H155        2.7171  -18.2324  -43.0035 H         1 UNK         0.0600 
    156 H156        3.5108  -20.5586  -44.8467 H         1 UNK         0.0600 
    157 H157        3.3876  -20.6374  -43.0921 H         1 UNK         0.0600 
    158 H158        4.6142  -19.6250  -43.8386 H         1 UNK         0.0600 
    159 H159        2.5020  -18.2368  -45.9556 H         1 UNK         0.3000 
    160 H160        4.7277  -15.9378  -46.5371 H         1 UNK         0.0600 
    161 H161        1.8358  -16.5134  -47.3810 H         1 UNK         0.0600 
    162 H162        3.2130  -17.5671  -47.7203 H         1 UNK         0.0600 
    163 H163        3.1257  -15.9800  -48.4435 H         1 UNK         0.0600 
    164 H164        2.7410  -14.4116  -45.2035 H         1 UNK         0.3000 
    165 H165        3.7053  -11.3751  -46.7328 H         1 UNK         0.0600 
    166 H166        1.2932  -10.8441  -46.6971 H         1 UNK         0.0600 
    167 H167        1.6481  -11.9062  -48.0512 H         1 UNK         0.0600 
    168 H168        0.8781  -12.5523  -46.6066 H         1 UNK         0.0600 
    169 H169        2.0787  -12.4201  -44.4860 H         1 UNK         0.3000 
    170 H170        3.8200  -12.6185  -42.2200 H         1 UNK         0.0600 
    171 H171        5.4989  -10.8544  -41.8817 H         1 UNK         0.0600 
    172 H172        4.3101   -9.5934  -42.1747 H         1 UNK         0.0600 
    173 H173        4.1807  -10.6196  -40.7463 H         1 UNK         0.0600 
    174 H174        1.6893  -12.2111  -41.8992 H         1 UNK         0.3000 
    175 H175       -0.4796   -9.5577  -41.9671 H         1 UNK         0.0600 
    176 H176       -0.7100   -9.9169  -44.4106 H         1 UNK         0.0600 
    177 H177       -0.5174  -11.6519  -44.2124 H         1 UNK         0.0600 
    178 H178       -1.9413  -10.8375  -43.5612 H         1 UNK         0.0600 
    179 H179       -0.7739  -12.4532  -41.8764 H         1 UNK         0.3000 
    180 H180        0.1651  -12.8541  -38.5042 H         1 UNK         0.0600 
    181 H181       -2.6327  -12.9912  -39.7507 H         1 UNK         0.0600 
    182 H182       -2.2025  -12.1850  -38.2491 H         1 UNK         0.0600 
    183 H183       -2.0840  -13.9342  -38.3653 H         1 UNK         0.0600 
    184 H184       -0.8845  -14.5491  -40.6129 H         1 UNK         0.3000 
    185 H185        2.3323  -15.5564  -41.8386 H         1 UNK         0.0600 
    186 H186        1.6359  -17.7786  -41.0276 H         1 UNK         0.0600 
    187 H187        2.0381  -16.7859  -39.6512 H         1 UNK         0.0600 
    188 H188        0.3514  -17.0698  -40.0467 H         1 UNK         0.0600 
    189 H189       -0.4337  -16.3758  -42.2531 H         1 UNK         0.3000 
    190 H190       -1.3790  -20.9753  -46.1277 H         1 UNK         0.3000 
    191 H191       -3.3711  -20.9735  -48.1819 H         1 UNK         0.0600 
    192 H192       -2.8802  -18.9819  -46.7694 H         1 UNK         0.0600 
    193 H193       -4.5727  -19.4283  -46.6575 H         1 UNK         0.0600 
    194 H194       -3.4748  -19.8197  -45.3414 H         1 UNK         0.0600 
    195 H195       -3.2878  -22.3737  -44.8796 H         1 UNK         0.3000 
    196 H196       -5.9012  -23.4289  -44.8519 H         1 UNK         0.0600 
    197 H197       -5.0585  -24.7687  -42.9208 H         1 UNK         0.0600 
    198 H198       -4.5249  -23.0978  -42.8161 H         1 UNK         0.0600 
    199 H199       -3.4013  -24.3512  -43.3389 H         1 UNK         0.0600 
    200 H200       -2.8084  -24.9865  -45.8426 H         1 UNK         0.3000 
    201 H201       -4.0356  -27.5089  -46.5603 H         1 UNK         0.0600 
    202 H202       -1.7768  -27.9761  -47.5112 H         1 UNK         0.0600 
    203 H203       -1.6454  -27.3154  -45.8880 H         1 UNK         0.0600 
    204 H204       -1.3155  -26.2930  -47.2858 H         1 UNK         0.0600 
    205 H205       -3.6412  -24.4558  -48.1592 H         1 UNK         0.3000 
    206 H206       -3.9417  -23.5933  -50.1606 H         1 UNK         0.0600 
    207 H207       -6.2445  -24.5665  -50.0514 H         1 UNK         0.0600 
    208 H208       -5.6448  -24.4920  -51.7011 H         1 UNK         0.0600 
    209 H209       -5.6713  -26.0302  -50.8509 H         1 UNK         0.0600 
    210 H210       -1.5820  -24.7423  -49.7118 H         1 UNK         0.3000 
    211 H211       -0.8278  -26.8697  -51.4439 H         1 UNK         0.0600 
    212 H212        0.8734  -24.9097  -49.8319 H         1 UNK         0.0600 
    213 H213        1.4741  -26.3838  -50.5769 H         1 UNK         0.0600 
    214 H214        0.2806  -26.4763  -49.2922 H         1 UNK         0.0600 
    215 H215       -1.1386  -23.5482  -52.1641 H         1 UNK         0.3000 
    216 H216        0.6647  -23.4448  -54.4528 H         1 UNK         0.0600 
    217 H217       -0.5800  -21.3096  -54.9125 H         1 UNK         0.0600 
    218 H218        0.0504  -21.3726  -53.2790 H         1 UNK         0.0600 
    219 H219       -1.6666  -21.6645  -53.5741 H         1 UNK         0.0600 
    220 H220       -2.3438  -24.9643  -53.8858 H         1 UNK         0.3000 
    221 H221       -3.7183  -26.1835  -55.0138 H         1 UNK         0.0600 
    222 H222       -1.9424  -25.8627  -57.4867 H         1 UNK         0.0600 
    223 H223       -1.7580  -27.0938  -56.2375 H         1 UNK         0.0600 
    224 H224       -3.1933  -27.0721  -57.2506 H         1 UNK         0.0600 
    225 H225       -2.8864  -23.2702  -56.8628 H         1 UNK         0.3000 
    226 H226       -5.4264  -22.9884  -58.2150 H         1 UNK         0.0600 
    227 H227       -3.3384  -21.9184  -59.0501 H         1 UNK         0.0600 
    228 H228       -4.5434  -20.6883  -58.7035 H         1 UNK         0.0600 
    229 H229       -3.2130  -20.9536  -57.5808 H         1 UNK         0.0600 
    230 H230       -7.2439  -21.8296  -57.6140 H         1 UNK         0.3000 
    231 H231       -7.8212  -21.3910  -54.8651 H         1 UNK         0.0600 
    232 H232       -9.2986  -20.4572  -57.3859 H         1 UNK         0.0600 
    233 H233       -9.9691  -20.4774  -55.7594 H         1 UNK         0.0600 
    234 H234       -9.5457  -21.9891  -56.5460 H         1 UNK         0.0600 
    235 H235       -6.5413  -19.2623  -57.3339 H         1 UNK         0.3000 
    236 H236       -6.8549  -16.7905  -55.7788 H         1 UNK         0.0600 
    237 H237       -7.0154  -16.7737  -58.2673 H         1 UNK         0.0600 
    238 H238       -5.6628  -15.7959  -57.7247 H         1 UNK         0.0600 
    239 H239       -5.3700  -17.3962  -58.3946 H         1 UNK         0.0600 
    240 H240       -4.7961  -19.4380  -55.5196 H         1 UNK         0.3000 
    241 H241       -2.9037  -19.9165  -54.5856 H         1 UNK         0.0600 
    242 H242       -1.0607  -18.0506  -57.4279 H         1 UNK         0.3800 
    243 H243       -2.7770  -18.3284  -57.2999 H         1 UNK         0.3800 
    244 H244       -1.9070  -18.5266  -52.7977 H         1 UNK         0.0800 
    245 H245       -2.8601  -17.1604  -53.2823 H         1 UNK         0.0800 
    246 H246       -3.2049  -20.9246  -51.7654 H         1 UNK         0.0800 
    247 H247       -4.1781  -20.4368  -50.4016 H         1 UNK         0.0800 
@<TRIPOS>BOND
     1    1    2 1    
     2    1  127 1    
     3    1  128 1    
     4    1  129 1    
     5    2    3 2    
     6    2    4 am   BACKBONE|DICT|INTERRES
     7    4    5 1    
     8    4  130 1    
     9    5    6 1    
    10    5   65 1    
    11    5  131 1    
    12    6    7 1    
    13    6  132 1    
    14    6  133 1    
    15    7    8 1    
    16    8    9 1    
    17    8  134 1    
    18    8  135 1    
    19    9   10 ar   
    20    9   14 ar   
    21   10   11 ar   
    22   10  136 1    
    23   11   12 ar   
    24   11  126 1    
    25   12   13 ar   
    26   12  137 1    
    27   13   14 ar   
    28   13   15 1    
    29   14  138 1    
    30   15   16 1    
    31   15  139 1    
    32   15  140 1    
    33   16   17 1    
    34   17   18 1    
    35   17  141 1    
    36   17  142 1    
    37   18   19 1    
    38   18   67 1    
    39   18  143 1    
    40   19   20 am   BACKBONE|DICT|INTERRES
    41   19  144 1    
    42   20   21 2    
    43   20   22 1    
    44   22   23 1    
    45   22   24 1    
    46   22  145 1    
    47   23  146 1    
    48   23  147 1    
    49   23  148 1    
    50   24   25 am   BACKBONE|DICT|INTERRES
    51   24  149 1    
    52   25   26 2    
    53   25   27 1    
    54   27   28 1    
    55   27   29 1    
    56   27  150 1    
    57   28  151 1    
    58   28  152 1    
    59   28  153 1    
    60   29   30 am   BACKBONE|DICT|INTERRES
    61   29  154 1    
    62   30   31 2    
    63   30   32 1    
    64   32   33 1    
    65   32   34 1    
    66   32  155 1    
    67   33  156 1    
    68   33  157 1    
    69   33  158 1    
    70   34   35 am   BACKBONE|DICT|INTERRES
    71   34  159 1    
    72   35   36 2    
    73   35   37 1    
    74   37   38 1    
    75   37   39 1    
    76   37  160 1    
    77   38  161 1    
    78   38  162 1    
    79   38  163 1    
    80   39   40 am   BACKBONE|DICT|INTERRES
    81   39  164 1    
    82   40   41 2    
    83   40   42 1    
    84   42   43 1    
    85   42   44 1    
    86   42  165 1    
    87   43  166 1    
    88   43  167 1    
    89   43  168 1    
    90   44   45 am   BACKBONE|DICT|INTERRES
    91   44  169 1    
    92   45   46 2    
    93   45   47 1    
    94   47   48 1    
    95   47   49 1    
    96   47  170 1    
    97   48  171 1    
    98   48  172 1    
    99   48  173 1    
   100   49   50 am   BACKBONE|DICT|INTERRES
   101   49  174 1    
   102   50   51 2    
   103   50   52 1    
   104   52   53 1    
   105   52   54 1    
   106   52  175 1    
   107   53  176 1    
   108   53  177 1    
   109   53  178 1    
   110   54   55 am   BACKBONE|DICT|INTERRES
   111   54  179 1    
   112   55   56 2    
   113   55   57 1    
   114   57   58 1    
   115   57   59 1    
   116   57  180 1    
   117   58  181 1    
   118   58  182 1    
   119   58  183 1    
   120   59   60 am   BACKBONE|DICT|INTERRES
   121   59  184 1    
   122   60   61 2    
   123   60   62 1    
   124   62   63 1    
   125   62   64 1    
   126   62  185 1    
   127   63  186 1    
   128   63  187 1    
   129   63  188 1    
   130   64   65 am   BACKBONE|DICT|INTERRES
   131   64  189 1    
   132   65   66 2    
   133   67   68 2    
   134   67   69 am   BACKBONE|DICT|INTERRES
   135   69   70 1    
   136   69  190 1    
   137   70   71 1    
   138   70   72 1    
   139   70  191 1    
   140   71  192 1    
   141   71  193 1    
   142   71  194 1    
   143   72   73 2    
   144   72   74 am   BACKBONE|DICT|INTERRES
   145   74   75 1    
   146   74  195 1    
   147   75   76 1    
   148   75   77 1    
   149   75  196 1    
   150   76  197 1    
   151   76  198 1    
   152   76  199 1    
   153   77   78 2    
   154   77   79 am   BACKBONE|DICT|INTERRES
   155   79   80 1    
   156   79  200 1    
   157   80   81 1    
   158   80   82 1    
   159   80  201 1    
   160   81  202 1    
   161   81  203 1    
   162   81  204 1    
   163   82   83 2    
   164   82   84 am   BACKBONE|DICT|INTERRES
   165   84   85 1    
   166   84  205 1    
   167   85   86 1    
   168   85   87 1    
   169   85  206 1    
   170   86  207 1    
   171   86  208 1    
   172   86  209 1    
   173   87   88 2    
   174   87   89 am   BACKBONE|DICT|INTERRES
   175   89   90 1    
   176   89  210 1    
   177   90   91 1    
   178   90   92 1    
   179   90  211 1    
   180   91  212 1    
   181   91  213 1    
   182   91  214 1    
   183   92   93 2    
   184   92   94 am   BACKBONE|DICT|INTERRES
   185   94   95 1    
   186   94  215 1    
   187   95   96 1    
   188   95   97 1    
   189   95  216 1    
   190   96  217 1    
   191   96  218 1    
   192   96  219 1    
   193   97   98 2    
   194   97   99 am   BACKBONE|DICT|INTERRES
   195   99  100 1    
   196   99  220 1    
   197  100  101 1    
   198  100  102 1    
   199  100  221 1    
   200  101  222 1    
   201  101  223 1    
   202  101  224 1    
   203  102  103 2    
   204  102  104 am   BACKBONE|DICT|INTERRES
   205  104  105 1    
   206  104  225 1    
   207  105  106 1    
   208  105  107 1    
   209  105  226 1    
   210  106  227 1    
   211  106  228 1    
   212  106  229 1    
   213  107  108 2    
   214  107  109 am   BACKBONE|DICT|INTERRES
   215  109  110 1    
   216  109  230 1    
   217  110  111 1    
   218  110  112 1    
   219  110  231 1    
   220  111  232 1    
   221  111  233 1    
   222  111  234 1    
   223  112  113 2    
   224  112  114 am   BACKBONE|DICT|INTERRES
   225  114  115 1    
   226  114  235 1    
   227  115  116 1    
   228  115  117 1    
   229  115  236 1    
   230  116  237 1    
   231  116  238 1    
   232  116  239 1    
   233  117  118 2    
   234  117  119 am   BACKBONE|DICT|INTERRES
   235  119  120 1    
   236  119  240 1    
   237  120  121 1    
   238  120  124 1    
   239  120  241 1    
   240  121  122 am   BACKBONE|DICT|INTERRES
   241  121  123 2    
   242  122  242 1    
   243  122  243 1    
   244  124  125 1    
   245  124  244 1    
   246  124  245 1    
   247  125  126 1    
   248  126  246 1    
   249  126  247 1    
@<TRIPOS>SUBSTRUCTURE
     1 UNK         1 GROUP             0       ****    0 ROOT    
