@<TRIPOS>MOLECULE
3R540
247   249    1
SMALL
USER_CHARGES


@<TRIPOS>ATOM
      1 CA         -2.6243  -13.2727  -50.3436 C.3       0 UNK        -0.1800 
      2 C          -2.4704  -14.3756  -49.2996 C.2       0 UNK         0.5000 
      3 O          -3.3215  -15.2567  -49.2174 O.2       0 UNK        -0.5000 
      4 N          -1.4122  -14.3797  -48.4825 N.am      1 UNK        -0.5000 
      5 CA         -0.3630  -13.3662  -48.3708 C.3       1 UNK         0.1400 
      6 C6          1.0073  -13.9913  -48.0001 C.3       23 UNK        -0.0398 
      7 S7          1.6592  -15.0949  -49.3007 S.3       23 UNK        -0.2404 
      8 C8          1.0552  -16.7109  -48.7146 C.3       23 UNK        -0.0205 
      9 C9          1.4858  -17.8689  -49.6024 C.ar      23 UNK        -0.0193 
     10 C10         1.1483  -17.8820  -50.9596 C.ar      23 UNK        -0.1150 
     11 C11         1.5080  -18.9592  -51.7782 C.ar      23 UNK        -0.0193 
     12 C12         2.2152  -20.0282  -51.2172 C.ar      23 UNK        -0.1150 
     13 C13         2.5515  -20.0338  -49.8600 C.ar      23 UNK        -0.0193 
     14 C14         2.1855  -18.9497  -49.0576 C.ar      23 UNK        -0.1150 
     15 C15         3.3218  -21.2063  -49.2688 C.3       23 UNK        -0.0205 
     16 S16         2.2275  -22.5933  -48.8246 S.3       23 UNK        -0.2404 
     17 C17         1.3965  -21.9405  -47.3371 C.3       23 UNK        -0.0398 
     18 CA          0.8315  -23.0594  -46.4289 C.3       11 UNK         0.1400 
     19 N           0.6009  -22.5921  -45.0634 N.am      11 UNK        -0.5000 
     20 C           0.3740  -23.3905  -44.0117 C.2       10 UNK         0.5000 
     21 O           0.4169  -24.6196  -44.0631 O.2       10 UNK        -0.5000 
     22 CA          0.0057  -22.7013  -42.6849 C.3       10 UNK         0.1400 
     23 CB          1.2701  -22.2647  -41.9307 C.3       10 UNK        -0.1800 
     24 N          -0.8831  -21.5513  -42.8660 N.am      10 UNK        -0.5000 
     25 C          -2.1272  -21.6267  -43.3618 C.2       9 UNK         0.5000 
     26 O          -2.6681  -22.6813  -43.6954 O.2       9 UNK        -0.5000 
     27 CA         -2.8802  -20.2982  -43.5567 C.3       9 UNK         0.1400 
     28 CB         -3.4377  -19.7833  -42.2214 C.3       9 UNK        -0.1800 
     29 N          -2.0544  -19.2614  -44.1754 N.am      9 UNK        -0.5000 
     30 C          -1.5189  -19.3431  -45.4019 C.2       8 UNK         0.5000 
     31 O          -1.6756  -20.2976  -46.1604 O.2       8 UNK        -0.5000 
     32 CA         -0.5957  -18.1925  -45.8300 C.3       8 UNK         0.1400 
     33 CB         -1.4087  -16.9364  -46.1778 C.3       8 UNK        -0.1800 
     34 N           0.3975  -17.8735  -44.8050 N.am      8 UNK        -0.5000 
     35 C           1.3121  -18.7338  -44.3337 C.2       7 UNK         0.5000 
     36 O           1.4660  -19.8752  -44.7639 O.2       7 UNK        -0.5000 
     37 CA          2.1619  -18.2582  -43.1457 C.3       7 UNK         0.1400 
     38 CB          3.3672  -17.4409  -43.6323 C.3       7 UNK        -0.1800 
     39 N           1.3704  -17.4751  -42.1963 N.am      7 UNK        -0.5000 
     40 C           0.4156  -17.9913  -41.4081 C.2       6 UNK         0.5000 
     41 O           0.1339  -19.1890  -41.3700 O.2       6 UNK        -0.5000 
     42 CA         -0.3886  -16.9948  -40.5531 C.3       6 UNK         0.1400 
     43 CB          0.3748  -16.6404  -39.2684 C.3       6 UNK        -0.1800 
     44 N          -0.7114  -15.7678  -41.2829 N.am      6 UNK        -0.5000 
     45 C          -1.5419  -15.7121  -42.3337 C.2       5 UNK         0.5000 
     46 O          -2.1661  -16.6839  -42.7592 O.2       5 UNK        -0.5000 
     47 CA         -1.6581  -14.3566  -43.0584 C.3       5 UNK         0.1400 
     48 CB         -2.7892  -13.5126  -42.4537 C.3       5 UNK        -0.1800 
     49 N          -0.4177  -13.5741  -43.0585 N.am      5 UNK        -0.5000 
     50 C           0.7335  -13.9730  -43.6153 C.2       4 UNK         0.5000 
     51 O           0.8882  -15.0770  -44.1405 O.2       4 UNK        -0.5000 
     52 CA          1.8817  -12.9547  -43.5928 C.3       4 UNK         0.1400 
     53 CB          3.1854  -13.4979  -44.2109 C.3       4 UNK        -0.1800 
     54 N           1.4714  -11.7396  -44.2930 N.am      4 UNK        -0.5000 
     55 C           1.9619  -10.5178  -44.0415 C.2       3 UNK         0.5000 
     56 O           2.7463  -10.2839  -43.1207 O.2       3 UNK        -0.5000 
     57 CA          1.5499   -9.3602  -44.9747 C.3       3 UNK         0.1400 
     58 CB          2.7636   -8.8627  -45.7772 C.3       3 UNK        -0.1800 
     59 N           0.4927   -9.7194  -45.9194 N.am      3 UNK        -0.5000 
     60 C          -0.8188   -9.6773  -45.6552 C.2       2 UNK         0.5000 
     61 O          -1.2898   -9.3145  -44.5770 O.2       2 UNK        -0.5000 
     62 CA         -1.7617  -10.1372  -46.7853 C.3       2 UNK         0.1400 
     63 CB         -2.2237   -8.9355  -47.6234 C.3       2 UNK        -0.1800 
     64 N          -1.1817  -11.1494  -47.6779 N.am      2 UNK        -0.5000 
     65 C          -0.8220  -12.3788  -47.2862 C.2       1 UNK         0.5000 
     66 O          -0.8643  -12.7551  -46.1156 O.2       1 UNK        -0.5000 
     67 C          -0.4438  -23.7014  -47.0114 C.2       11 UNK         0.5000 
     68 O          -0.3883  -24.8407  -47.4734 O.2       11 UNK        -0.5000 
     69 N          -1.5802  -22.9913  -46.9356 N.am      12 UNK        -0.5000 
     70 CA         -2.8840  -23.4204  -47.4517 C.3       12 UNK         0.1400 
     71 CB         -3.9089  -22.2912  -47.2825 C.3       12 UNK        -0.1800 
     72 C          -3.4097  -24.7243  -46.8306 C.2       12 UNK         0.5000 
     73 O          -4.0785  -25.4869  -47.5255 O.2       12 UNK        -0.5000 
     74 N          -3.0529  -24.9946  -45.5684 N.am      13 UNK        -0.5000 
     75 CA         -3.3461  -26.2479  -44.8698 C.3       13 UNK         0.1400 
     76 CB         -2.8868  -26.1280  -43.4088 C.3       13 UNK        -0.1800 
     77 C          -2.7297  -27.5012  -45.5308 C.2       13 UNK         0.5000 
     78 O          -3.2508  -28.5982  -45.3237 O.2       13 UNK        -0.5000 
     79 N          -1.6543  -27.3242  -46.3115 N.am      14 UNK        -0.5000 
     80 CA         -0.9886  -28.3822  -47.0689 C.3       14 UNK         0.1400 
     81 CB          0.5107  -28.3706  -46.7288 C.3       14 UNK        -0.1800 
     82 C          -1.1974  -28.2118  -48.5838 C.2       14 UNK         0.5000 
     83 O          -1.5100  -29.1882  -49.2662 O.2       14 UNK        -0.5000 
     84 N          -0.9957  -26.9884  -49.0901 N.am      15 UNK        -0.5000 
     85 CA         -0.9447  -26.6781  -50.5190 C.3       15 UNK         0.1400 
     86 CB         -0.0740  -25.4263  -50.7169 C.3       15 UNK        -0.1800 
     87 C          -2.3212  -26.4579  -51.1678 C.2       15 UNK         0.5000 
     88 O          -2.4195  -26.5656  -52.3910 O.2       15 UNK        -0.5000 
     89 N          -3.3397  -26.1103  -50.3659 N.am      16 UNK        -0.5000 
     90 CA         -4.7101  -25.7244  -50.7380 C.3       16 UNK         0.1400 
     91 CB         -5.4466  -26.8642  -51.4679 C.3       16 UNK        -0.1800 
     92 C          -4.7964  -24.3993  -51.5228 C.2       16 UNK         0.5000 
     93 O          -5.4964  -23.4812  -51.0951 O.2       16 UNK        -0.5000 
     94 N          -4.0712  -24.3131  -52.6445 N.am      17 UNK        -0.5000 
     95 CA         -4.0501  -23.1791  -53.5699 C.3       17 UNK         0.1400 
     96 CB         -3.3078  -23.5916  -54.8497 C.3       17 UNK        -0.1800 
     97 C          -3.4244  -21.9010  -52.9856 C.2       17 UNK         0.5000 
     98 O          -3.7347  -20.8129  -53.4656 O.2       17 UNK        -0.5000 
     99 N          -2.5724  -22.0385  -51.9601 N.am      18 UNK        -0.5000 
    100 CA        -1.8613  -20.9409  -51.2931 C.3       18 UNK         0.1400 
    101 CB        -0.8367  -21.5315  -50.3204 C.3       18 UNK        -0.1800 
    102 C         -2.7629  -19.9096  -50.5812 C.2       18 UNK         0.5000 
    103 O         -2.2787  -18.8430  -50.2012 O.2       18 UNK        -0.5000 
    104 N         -4.0591  -20.2182  -50.4383 N.am      19 UNK        -0.5000 
    105 CA        -5.1118  -19.2901  -50.0360 C.3       19 UNK         0.1400 
    106 CB        -6.3514  -20.1025  -49.6229 C.3       19 UNK        -0.1800 
    107 C         -5.4145  -18.2825  -51.1676 C.2       19 UNK         0.5000 
    108 O         -6.4361  -18.3949  -51.8469 O.2       19 UNK        -0.5000 
    109 N         -4.4876  -17.3380  -51.3648 N.am      20 UNK        -0.5000 
    110 CA        -4.4906  -16.1859  -52.2736 C.3       20 UNK         0.1400 
    111 CB        -5.6750  -15.2488  -51.9676 C.3       20 UNK        -0.1800 
    112 C         -4.4138  -16.4940  -53.7825 C.2       20 UNK         0.5000 
    113 O         -3.9037  -15.6523  -54.5233 O.2       20 UNK        -0.5000 
    114 N         -4.9213  -17.6499  -54.2287 N.am      21 UNK        -0.5000 
    115 CA        -4.9595  -18.0470  -55.6373 C.3       21 UNK         0.1400 
    116 CB        -5.9041  -19.2474  -55.8133 C.3       21 UNK        -0.1800 
    117 C         -3.5594  -18.3409  -56.2054 C.2       21 UNK         0.5000 
    118 O         -3.1718  -17.7451  -57.2114 O.2       21 UNK        -0.5000 
    119 N         -2.8326  -19.2446  -55.5370 N.am      22 UNK        -0.5000 
    120 CA        -1.4529  -19.6706  -55.8312 C.3       22 UNK         0.1400 
    121 C         -1.2466  -20.3509  -57.2211 C.2       22 UNK         0.5000 
    122 N         -2.2894  -20.8502  -57.8735 N.am      22 UNK        -0.7600 
    123 O         -0.1232  -20.4665  -57.7038 O.2       22 UNK        -0.5000 
    124 C124       -0.4148  -18.5537  -55.5301 C.3       23 UNK        -0.0398 
    125 S125       -0.3599  -18.1438  -53.7502 S.3       23 UNK        -0.2404 
    126 C126        1.1920  -18.9826  -53.2734 C.3       23 UNK        -0.0205 
    127 H127       -1.8084  -13.3101  -51.0654 H         1 UNK         0.0600 
    128 H128       -2.6412  -12.2891  -49.8761 H         1 UNK         0.0600 
    129 H129       -3.5593  -13.3904  -50.8907 H         1 UNK         0.0600 
    130 H130       -1.3767  -15.0947  -47.7729 H         1 UNK         0.3000 
    131 H131       -0.2397  -12.8319  -49.3141 H         1 UNK         0.0600 
    132 H132        1.7478  -13.2038  -47.8488 H         1 UNK         0.0800 
    133 H133        0.9570  -14.5339  -47.0540 H         1 UNK         0.0800 
    134 H134       -0.0337  -16.7038  -48.6877 H         1 UNK         0.0800 
    135 H135        1.4026  -16.8617  -47.6915 H         1 UNK         0.0800 
    136 H136        0.6061  -17.0440  -51.3731 H         1 UNK         0.1150 
    137 H137        2.5056  -20.8646  -51.8376 H         1 UNK         0.1150 
    138 H138        2.4403  -18.9526  -48.0069 H         1 UNK         0.1150 
    139 H139        4.0543  -21.5600  -49.9957 H         1 UNK         0.0800 
    140 H140        3.8942  -20.8908  -48.3952 H         1 UNK         0.0800 
    141 H141        0.6247  -21.2243  -47.6231 H         1 UNK         0.0800 
    142 H142        2.1420  -21.3711  -46.7819 H         1 UNK         0.0800 
    143 H143        1.5878  -23.8449  -46.3637 H         1 UNK         0.0600 
    144 H144        0.6132  -21.5858  -44.9211 H         1 UNK         0.3000 
    145 H145       -0.5213  -23.4329  -42.0689 H         1 UNK         0.0600 
    146 H146        1.0226  -21.8458  -40.9552 H         1 UNK         0.0600 
    147 H147        1.9363  -23.1115  -41.7615 H         1 UNK         0.0600 
    148 H148        1.8297  -21.5121  -42.4863 H         1 UNK         0.0600 
    149 H149       -0.5231  -20.6479  -42.5741 H         1 UNK         0.3000 
    150 H150       -3.7229  -20.4906  -44.2237 H         1 UNK         0.0600 
    151 H151       -4.0696  -20.5343  -41.7456 H         1 UNK         0.0600 
    152 H152       -4.0462  -18.8907  -42.3676 H         1 UNK         0.0600 
    153 H153       -2.6405  -19.5316  -41.5214 H         1 UNK         0.0600 
    154 H154       -1.8997  -18.4186  -43.6294 H         1 UNK         0.3000 
    155 H155       -0.0558  -18.5159  -46.7215 H         1 UNK         0.0600 
    156 H156       -2.1092  -16.6697  -45.3876 H         1 UNK         0.0600 
    157 H157       -1.9924  -17.0955  -47.0857 H         1 UNK         0.0600 
    158 H158       -0.7582  -16.0786  -46.3393 H         1 UNK         0.0600 
    159 H159        0.3855  -16.9307  -44.4267 H         1 UNK         0.3000 
    160 H160        2.5405  -19.1399  -42.6247 H         1 UNK         0.0600 
    161 H161        4.0307  -18.0584  -44.2388 H         1 UNK         0.0600 
    162 H162        3.0611  -16.5966  -44.2491 H         1 UNK         0.0600 
    163 H163        3.9526  -17.0573  -42.7967 H         1 UNK         0.0600 
    164 H164        1.4939  -16.4738  -42.2214 H         1 UNK         0.3000 
    165 H165       -1.3257  -17.4795  -40.2704 H         1 UNK         0.0600 
    166 H166       -0.2202  -15.9949  -38.6220 H         1 UNK         0.0600 
    167 H167        0.6141  -17.5386  -38.6974 H         1 UNK         0.0600 
    168 H168        1.3133  -16.1280  -39.4833 H         1 UNK         0.0600 
    169 H169       -0.2408  -14.9226  -40.9953 H         1 UNK         0.3000 
    170 H170       -1.9115  -14.5642  -44.0999 H         1 UNK         0.0600 
    171 H171       -3.7326  -14.0603  -42.4626 H         1 UNK         0.0600 
    172 H172       -2.5781  -13.2369  -41.4198 H         1 UNK         0.0600 
    173 H173       -2.9421  -12.5953  -43.0229 H         1 UNK         0.0600 
    174 H174       -0.4707  -12.6428  -42.6723 H         1 UNK         0.3000 
    175 H175        2.0706  -12.7244  -42.5423 H         1 UNK         0.0600 
    176 H176        3.0454  -13.7943  -45.2512 H         1 UNK         0.0600 
    177 H177        3.9812  -12.7537  -44.1798 H         1 UNK         0.0600 
    178 H178        3.5424  -14.3682  -43.6607 H         1 UNK         0.0600 
    179 H179        0.7694  -11.8627  -45.0142 H         1 UNK         0.3000 
    180 H180        1.2036   -8.5398  -44.3424 H         1 UNK         0.0600 
    181 H181        3.1676   -9.6442  -46.4221 H         1 UNK         0.0600 
    182 H182        3.5665   -8.5369  -45.1145 H         1 UNK         0.0600 
    183 H183        2.4995   -8.0115  -46.4051 H         1 UNK         0.0600 
    184 H184        0.7876  -10.0272  -46.8343 H         1 UNK         0.3000 
    185 H185       -2.6414  -10.5787  -46.3116 H         1 UNK         0.0600 
    186 H186       -2.9651   -9.2328  -48.3652 H         1 UNK         0.0600 
    187 H187       -2.6848   -8.1735  -46.9934 H         1 UNK         0.0600 
    188 H188       -1.3905   -8.4668  -48.1485 H         1 UNK         0.0600 
    189 H189       -1.1157  -10.8977  -48.6537 H         1 UNK         0.3000 
    190 H190       -1.5513  -22.0542  -46.5355 H         1 UNK         0.3000 
    191 H191       -2.7669  -23.6084  -48.5201 H         1 UNK         0.0600 
    192 H192       -4.0498  -22.0329  -46.2326 H         1 UNK         0.0600 
    193 H193       -4.8799  -22.5820  -47.6853 H         1 UNK         0.0600 
    194 H194       -3.5949  -21.3906  -47.8098 H         1 UNK         0.0600 
    195 H195       -2.5581  -24.2825  -45.0418 H         1 UNK         0.3000 
    196 H196       -4.4299  -26.3797  -44.8755 H         1 UNK         0.0600 
    197 H197       -3.1258  -27.0320  -42.8474 H         1 UNK         0.0600 
    198 H198       -3.3791  -25.2949  -42.9067 H         1 UNK         0.0600 
    199 H199       -1.8101  -25.9731  -43.3385 H         1 UNK         0.0600 
    200 H200       -1.2984  -26.3840  -46.4425 H         1 UNK         0.3000 
    201 H201       -1.3838  -29.3618  -46.7927 H         1 UNK         0.0600 
    202 H202        0.6730  -28.5673  -45.6689 H         1 UNK         0.0600 
    203 H203        0.9723  -27.4103  -46.9632 H         1 UNK         0.0600 
    204 H204        1.0453  -29.1392  -47.2882 H         1 UNK         0.0600 
    205 H205       -0.7349  -26.2290  -48.4619 H         1 UNK         0.3000 
    206 H206       -0.4648  -27.5079  -51.0422 H         1 UNK         0.0600 
    207 H207        0.9284  -25.5738  -50.3143 H         1 UNK         0.0600 
    208 H208        0.0338  -25.1831  -51.7748 H         1 UNK         0.0600 
    209 H209       -0.5049  -24.5557  -50.2222 H         1 UNK         0.0600 
    210 H210       -3.1582  -26.0681  -49.3701 H         1 UNK         0.3000 
    211 H211       -5.2426  -25.5589  -49.8015 H         1 UNK         0.0600 
    212 H212       -5.0040  -27.0903  -52.4381 H         1 UNK         0.0600 
    213 H213       -6.4903  -26.6004  -51.6426 H         1 UNK         0.0600 
    214 H214       -5.4379  -27.7789  -50.8751 H         1 UNK         0.0600 
    215 H215       -3.4920  -25.1151  -52.8818 H         1 UNK         0.3000 
    216 H216       -5.0830  -22.9426  -53.8335 H         1 UNK         0.0600 
    217 H217       -3.2919  -22.7766  -55.5749 H         1 UNK         0.0600 
    218 H218       -3.7921  -24.4422  -55.3296 H         1 UNK         0.0600 
    219 H219       -2.2730  -23.8676  -54.6426 H         1 UNK         0.0600 
    220 H220       -2.3823  -22.9713  -51.6279 H         1 UNK         0.3000 
    221 H221       -1.3139  -20.3938  -52.0616 H         1 UNK         0.0600 
    222 H222       -1.3103  -22.1592  -49.5703 H         1 UNK         0.0600 
    223 H223       -0.0933  -22.1303  -50.8461 H         1 UNK         0.0600 
    224 H224       -0.3017  -20.7409  -49.7940 H         1 UNK         0.0600 
    225 H225       -4.3713  -21.1084  -50.8002 H         1 UNK         0.3000 
    226 H226       -4.7734  -18.7257  -49.1642 H         1 UNK         0.0600 
    227 H227       -6.1354  -20.7443  -48.7693 H         1 UNK         0.0600 
    228 H228       -7.1715  -19.4443  -49.3337 H         1 UNK         0.0600 
    229 H229       -6.7078  -20.7371  -50.4356 H         1 UNK         0.0600 
    230 H230       -3.6517  -17.4134  -50.7925 H         1 UNK         0.3000 
    231 H231       -3.5748  -15.6426  -52.0381 H         1 UNK         0.0600 
    232 H232       -5.6077  -14.3316  -52.5540 H         1 UNK         0.0600 
    233 H233       -5.6884  -14.9610  -50.9163 H         1 UNK         0.0600 
    234 H234       -6.6328  -15.7143  -52.2013 H         1 UNK         0.0600 
    235 H235       -5.3563  -18.2699  -53.5548 H         1 UNK         0.3000 
    236 H236       -5.3767  -17.2143  -56.2078 H         1 UNK         0.0600 
    237 H237       -6.9186  -18.9956  -55.5037 H         1 UNK         0.0600 
    238 H238       -5.9513  -19.5568  -56.8581 H         1 UNK         0.0600 
    239 H239       -5.5843  -20.1101  -55.2292 H         1 UNK         0.0600 
    240 H240       -3.2531  -19.6944  -54.7244 H         1 UNK         0.3000 
    241 H241       -1.2558  -20.4804  -55.1277 H         1 UNK         0.0600 
    242 H242       -2.1483  -21.2982  -58.7652 H         1 UNK         0.3800 
    243 H243       -3.2187  -20.7651  -57.4954 H         1 UNK         0.3800 
    244 H244        0.5868  -18.8475  -55.8471 H         1 UNK         0.0800 
    245 H245       -0.6494  -17.6494  -56.0926 H         1 UNK         0.0800 
    246 H246        1.1369  -20.0167  -53.6176 H         1 UNK         0.0800 
    247 H247        2.0231  -18.5187  -53.8060 H         1 UNK         0.0800 
@<TRIPOS>BOND
     1    1    2 1    
     2    1  127 1    
     3    1  128 1    
     4    1  129 1    
     5    2    3 2    
     6    2    4 am   BACKBONE|DICT|INTERRES
     7    4    5 1    
     8    4  130 1    
     9    5    6 1    
    10    5   65 1    
    11    5  131 1    
    12    6    7 1    
    13    6  132 1    
    14    6  133 1    
    15    7    8 1    
    16    8    9 1    
    17    8  134 1    
    18    8  135 1    
    19    9   10 ar   
    20    9   14 ar   
    21   10   11 ar   
    22   10  136 1    
    23   11   12 ar   
    24   11  126 1    
    25   12   13 ar   
    26   12  137 1    
    27   13   14 ar   
    28   13   15 1    
    29   14  138 1    
    30   15   16 1    
    31   15  139 1    
    32   15  140 1    
    33   16   17 1    
    34   17   18 1    
    35   17  141 1    
    36   17  142 1    
    37   18   19 1    
    38   18   67 1    
    39   18  143 1    
    40   19   20 am   BACKBONE|DICT|INTERRES
    41   19  144 1    
    42   20   21 2    
    43   20   22 1    
    44   22   23 1    
    45   22   24 1    
    46   22  145 1    
    47   23  146 1    
    48   23  147 1    
    49   23  148 1    
    50   24   25 am   BACKBONE|DICT|INTERRES
    51   24  149 1    
    52   25   26 2    
    53   25   27 1    
    54   27   28 1    
    55   27   29 1    
    56   27  150 1    
    57   28  151 1    
    58   28  152 1    
    59   28  153 1    
    60   29   30 am   BACKBONE|DICT|INTERRES
    61   29  154 1    
    62   30   31 2    
    63   30   32 1    
    64   32   33 1    
    65   32   34 1    
    66   32  155 1    
    67   33  156 1    
    68   33  157 1    
    69   33  158 1    
    70   34   35 am   BACKBONE|DICT|INTERRES
    71   34  159 1    
    72   35   36 2    
    73   35   37 1    
    74   37   38 1    
    75   37   39 1    
    76   37  160 1    
    77   38  161 1    
    78   38  162 1    
    79   38  163 1    
    80   39   40 am   BACKBONE|DICT|INTERRES
    81   39  164 1    
    82   40   41 2    
    83   40   42 1    
    84   42   43 1    
    85   42   44 1    
    86   42  165 1    
    87   43  166 1    
    88   43  167 1    
    89   43  168 1    
    90   44   45 am   BACKBONE|DICT|INTERRES
    91   44  169 1    
    92   45   46 2    
    93   45   47 1    
    94   47   48 1    
    95   47   49 1    
    96   47  170 1    
    97   48  171 1    
    98   48  172 1    
    99   48  173 1    
   100   49   50 am   BACKBONE|DICT|INTERRES
   101   49  174 1    
   102   50   51 2    
   103   50   52 1    
   104   52   53 1    
   105   52   54 1    
   106   52  175 1    
   107   53  176 1    
   108   53  177 1    
   109   53  178 1    
   110   54   55 am   BACKBONE|DICT|INTERRES
   111   54  179 1    
   112   55   56 2    
   113   55   57 1    
   114   57   58 1    
   115   57   59 1    
   116   57  180 1    
   117   58  181 1    
   118   58  182 1    
   119   58  183 1    
   120   59   60 am   BACKBONE|DICT|INTERRES
   121   59  184 1    
   122   60   61 2    
   123   60   62 1    
   124   62   63 1    
   125   62   64 1    
   126   62  185 1    
   127   63  186 1    
   128   63  187 1    
   129   63  188 1    
   130   64   65 am   BACKBONE|DICT|INTERRES
   131   64  189 1    
   132   65   66 2    
   133   67   68 2    
   134   67   69 am   BACKBONE|DICT|INTERRES
   135   69   70 1    
   136   69  190 1    
   137   70   71 1    
   138   70   72 1    
   139   70  191 1    
   140   71  192 1    
   141   71  193 1    
   142   71  194 1    
   143   72   73 2    
   144   72   74 am   BACKBONE|DICT|INTERRES
   145   74   75 1    
   146   74  195 1    
   147   75   76 1    
   148   75   77 1    
   149   75  196 1    
   150   76  197 1    
   151   76  198 1    
   152   76  199 1    
   153   77   78 2    
   154   77   79 am   BACKBONE|DICT|INTERRES
   155   79   80 1    
   156   79  200 1    
   157   80   81 1    
   158   80   82 1    
   159   80  201 1    
   160   81  202 1    
   161   81  203 1    
   162   81  204 1    
   163   82   83 2    
   164   82   84 am   BACKBONE|DICT|INTERRES
   165   84   85 1    
   166   84  205 1    
   167   85   86 1    
   168   85   87 1    
   169   85  206 1    
   170   86  207 1    
   171   86  208 1    
   172   86  209 1    
   173   87   88 2    
   174   87   89 am   BACKBONE|DICT|INTERRES
   175   89   90 1    
   176   89  210 1    
   177   90   91 1    
   178   90   92 1    
   179   90  211 1    
   180   91  212 1    
   181   91  213 1    
   182   91  214 1    
   183   92   93 2    
   184   92   94 am   BACKBONE|DICT|INTERRES
   185   94   95 1    
   186   94  215 1    
   187   95   96 1    
   188   95   97 1    
   189   95  216 1    
   190   96  217 1    
   191   96  218 1    
   192   96  219 1    
   193   97   98 2    
   194   97   99 am   BACKBONE|DICT|INTERRES
   195   99  100 1    
   196   99  220 1    
   197  100  101 1    
   198  100  102 1    
   199  100  221 1    
   200  101  222 1    
   201  101  223 1    
   202  101  224 1    
   203  102  103 2    
   204  102  104 am   BACKBONE|DICT|INTERRES
   205  104  105 1    
   206  104  225 1    
   207  105  106 1    
   208  105  107 1    
   209  105  226 1    
   210  106  227 1    
   211  106  228 1    
   212  106  229 1    
   213  107  108 2    
   214  107  109 am   BACKBONE|DICT|INTERRES
   215  109  110 1    
   216  109  230 1    
   217  110  111 1    
   218  110  112 1    
   219  110  231 1    
   220  111  232 1    
   221  111  233 1    
   222  111  234 1    
   223  112  113 2    
   224  112  114 am   BACKBONE|DICT|INTERRES
   225  114  115 1    
   226  114  235 1    
   227  115  116 1    
   228  115  117 1    
   229  115  236 1    
   230  116  237 1    
   231  116  238 1    
   232  116  239 1    
   233  117  118 2    
   234  117  119 am   BACKBONE|DICT|INTERRES
   235  119  120 1    
   236  119  240 1    
   237  120  121 1    
   238  120  124 1    
   239  120  241 1    
   240  121  122 am   BACKBONE|DICT|INTERRES
   241  121  123 2    
   242  122  242 1    
   243  122  243 1    
   244  124  125 1    
   245  124  244 1    
   246  124  245 1    
   247  125  126 1    
   248  126  246 1    
   249  126  247 1    
@<TRIPOS>SUBSTRUCTURE
     1 UNK         1 GROUP             0       ****    0 ROOT    
