@<TRIPOS>MOLECULE
3R540
247   249    1
SMALL
USER_CHARGES


@<TRIPOS>ATOM
      1 CA          1.0323  -11.7182  -50.7291 C.3       0 UNK        -0.1800 
      2 C           2.4390  -11.6364  -50.1523 C.2       0 UNK         0.5000 
      3 O           3.1943  -10.7277  -50.4990 O.2       0 UNK        -0.5000 
      4 N           2.7912  -12.5883  -49.2809 N.am      1 UNK        -0.5000 
      5 CA          4.0731  -12.6598  -48.5717 C.3       1 UNK         0.1400 
      6 C6          4.2547  -14.0165  -47.8484 C.3       23 UNK        -0.0398 
      7 S7          4.0020  -15.4768  -48.9129 S.3       23 UNK        -0.2404 
      8 C8          2.5647  -16.2275  -48.0878 C.3       23 UNK        -0.0205 
      9 C9          2.1139  -17.4971  -48.7888 C.ar      23 UNK        -0.0193 
     10 C10         1.1302  -17.4439  -49.7790 C.ar      23 UNK        -0.1150 
     11 C11         0.6773  -18.6139  -50.4000 C.ar      23 UNK        -0.0193 
     12 C12         1.2089  -19.8446  -50.0041 C.ar      23 UNK        -0.1150 
     13 C13         2.1936  -19.9121  -49.0140 C.ar      23 UNK        -0.0193 
     14 C14         2.6539  -18.7316  -48.4221 C.ar      23 UNK        -0.1150 
     15 C15         2.7247  -21.2675  -48.5624 C.3       23 UNK        -0.0205 
     16 S16         2.6171  -21.5221  -46.7565 S.3       23 UNK        -0.2404 
     17 C17         0.8845  -21.0752  -46.3878 C.3       23 UNK        -0.0398 
     18 CA         -0.0505  -22.2914  -46.2193 C.3       11 UNK         0.1400 
     19 N          -1.2641  -21.9139  -45.4975 N.am      11 UNK        -0.5000 
     20 C          -2.1946  -22.7630  -45.0461 C.2       10 UNK         0.5000 
     21 O          -2.1134  -23.9863  -45.1441 O.2       10 UNK        -0.5000 
     22 CA         -3.4482  -22.1273  -44.4233 C.3       10 UNK         0.1400 
     23 CB         -3.1960  -21.7345  -42.9598 C.3       10 UNK        -0.1800 
     24 N          -3.8893  -20.9537  -45.1779 N.am      10 UNK        -0.5000 
     25 C          -4.4328  -21.0077  -46.4014 C.2       9 UNK         0.5000 
     26 O          -4.6574  -22.0565  -47.0047 O.2       9 UNK        -0.5000 
     27 CA         -4.7433  -19.6617  -47.0778 C.3       9 UNK         0.1400 
     28 CB         -6.0865  -19.1001  -46.5892 C.3       9 UNK        -0.1800 
     29 N          -3.6945  -18.6618  -46.8712 N.am      9 UNK        -0.5000 
     30 C          -2.4620  -18.7517  -47.3890 C.2       8 UNK         0.5000 
     31 O          -2.0848  -19.6813  -48.0975 O.2       8 UNK        -0.5000 
     32 CA         -1.4681  -17.6364  -47.0264 C.3       8 UNK         0.1400 
     33 CB         -1.6394  -16.4468  -47.9810 C.3       8 UNK        -0.1800 
     34 N          -1.5584  -17.1743  -45.6375 N.am      8 UNK        -0.5000 
     35 C          -1.4210  -17.9549  -44.5532 C.2       7 UNK         0.5000 
     36 O          -1.3087  -19.1798  -44.6161 O.2       7 UNK        -0.5000 
     37 CA         -1.4024  -17.2791  -43.1686 C.3       7 UNK         0.1400 
     38 CB         -0.1574  -17.7067  -42.3729 C.3       7 UNK        -0.1800 
     39 N          -1.4092  -15.8196  -43.2647 N.am      7 UNK        -0.5000 
     40 C          -2.4363  -15.0219  -42.9408 C.2       6 UNK         0.5000 
     41 O          -3.5137  -15.4377  -42.5134 O.2       6 UNK        -0.5000 
     42 CA         -2.2385  -13.5009  -43.1248 C.3       6 UNK         0.1400 
     43 CB         -1.9279  -12.8350  -41.7756 C.3       6 UNK        -0.1800 
     44 N          -1.1799  -13.1490  -44.0735 N.am      6 UNK        -0.5000 
     45 C          -1.2039  -13.4186  -45.3863 C.2       5 UNK         0.5000 
     46 O          -2.1588  -13.9476  -45.9533 O.2       5 UNK        -0.5000 
     47 CA          0.0751  -13.1024  -46.1885 C.3       5 UNK         0.1400 
     48 CB         -0.0440  -11.7097  -46.8244 C.3       5 UNK        -0.1800 
     49 N           1.3119  -13.1891  -45.3993 N.am      5 UNK        -0.5000 
     50 C           1.7098  -14.2641  -44.6980 C.2       4 UNK         0.5000 
     51 O           1.1142  -15.3406  -44.7312 O.2       4 UNK        -0.5000 
     52 CA          2.9321  -14.1244  -43.7664 C.3       4 UNK         0.1400 
     53 CB          4.0705  -15.0751  -44.1707 C.3       4 UNK        -0.1800 
     54 N           3.4632  -12.7662  -43.6410 N.am      4 UNK        -0.5000 
     55 C           2.8677  -11.7374  -43.0262 C.2       3 UNK         0.5000 
     56 O           1.7427  -11.8082  -42.5295 O.2       3 UNK        -0.5000 
     57 CA          3.6371  -10.3991  -42.9806 C.3       3 UNK         0.1400 
     58 CB          4.5916  -10.3496  -41.7726 C.3       3 UNK        -0.1800 
     59 N           4.3283  -10.0450  -44.2312 N.am      3 UNK        -0.5000 
     60 C           5.3692  -10.6462  -44.8254 C.2       2 UNK         0.5000 
     61 O           5.9581  -11.6275  -44.3671 O.2       2 UNK        -0.5000 
     62 CA          5.7637  -10.1114  -46.2162 C.3       2 UNK         0.1400 
     63 CB          7.2626   -9.7771  -46.2806 C.3       2 UNK        -0.1800 
     64 N           5.4405  -11.0852  -47.2626 N.am      2 UNK        -0.5000 
     65 C           4.2030  -11.5179  -47.5397 C.2       1 UNK         0.5000 
     66 O           3.1948  -11.0922  -46.9710 O.2       1 UNK        -0.5000 
     67 C          -0.3774  -22.9710  -47.5664 C.2       11 UNK         0.5000 
     68 O           0.1913  -24.0195  -47.8674 O.2       11 UNK        -0.5000 
     69 N          -1.3223  -22.4005  -48.3284 N.am      12 UNK        -0.5000 
     70 CA         -1.8341  -22.9668  -49.5762 C.3       12 UNK         0.1400 
     71 CB         -2.7576  -21.9533  -50.2656 C.3       12 UNK        -0.1800 
     72 C          -2.5428  -24.3178  -49.3674 C.2       12 UNK         0.5000 
     73 O          -2.2991  -25.2478  -50.1360 O.2       12 UNK        -0.5000 
     74 N          -3.3508  -24.4291  -48.3023 N.am      13 UNK        -0.5000 
     75 CA         -3.9964  -25.6772  -47.8904 C.3       13 UNK         0.1400 
     76 CB         -4.9733  -25.4064  -46.7368 C.3       13 UNK        -0.1800 
     77 C          -2.9802  -26.7697  -47.5042 C.2       13 UNK         0.5000 
     78 O          -3.1234  -27.9116  -47.9417 O.2       13 UNK        -0.5000 
     79 N          -1.9451  -26.3951  -46.7374 N.am      14 UNK        -0.5000 
     80 CA         -0.8292  -27.2651  -46.3518 C.3       14 UNK         0.1400 
     81 CB          0.0412  -26.5511  -45.3068 C.3       14 UNK        -0.1800 
     82 C           0.0236  -27.7270  -47.5505 C.2       14 UNK         0.5000 
     83 O           0.5100  -28.8581  -47.5508 O.2       14 UNK        -0.5000 
     84 N           0.1487  -26.8647  -48.5680 N.am      15 UNK        -0.5000 
     85 CA          0.7862  -27.1488  -49.8561 C.3       15 UNK         0.1400 
     86 CB          1.1928  -25.8180  -50.5114 C.3       15 UNK        -0.1800 
     87 C          -0.0888  -27.9928  -50.8117 C.2       15 UNK         0.5000 
     88 O           0.3601  -28.2946  -51.9184 O.2       15 UNK        -0.5000 
     89 N          -1.3056  -28.3584  -50.3799 N.am      16 UNK        -0.5000 
     90 CA         -2.3124  -29.1566  -51.0866 C.3       16 UNK         0.1400 
     91 CB         -1.7787  -30.5626  -51.4353 C.3       16 UNK        -0.1800 
     92 C          -2.9527  -28.4320  -52.2888 C.2       16 UNK         0.5000 
     93 O          -3.4602  -29.0891  -53.2004 O.2       16 UNK        -0.5000 
     94 N          -2.9586  -27.0943  -52.2532 N.am      17 UNK        -0.5000 
     95 CA         -3.7507  -26.2373  -53.1311 C.3       17 UNK         0.1400 
     96 CB         -2.9305  -24.9753  -53.4576 C.3       17 UNK        -0.1800 
     97 C          -5.0911  -25.8975  -52.4454 C.2       17 UNK         0.5000 
     98 O          -5.4175  -26.4608  -51.3958 O.2       17 UNK        -0.5000 
     99 N          -5.8595  -24.9832  -53.0509 N.am      18 UNK        -0.5000 
    100 CA        -7.0893  -24.4352  -52.4760 C.3       18 UNK         0.1400 
    101 CB        -7.7899  -23.5612  -53.5276 C.3       18 UNK        -0.1800 
    102 C         -6.7986  -23.6152  -51.2049 C.2       18 UNK         0.5000 
    103 O         -5.7928  -22.9050  -51.1541 O.2       18 UNK        -0.5000 
    104 N         -7.6939  -23.7020  -50.2149 N.am      19 UNK        -0.5000 
    105 CA        -7.5912  -23.0100  -48.9287 C.3       19 UNK         0.1400 
    106 CB        -8.4020  -23.7940  -47.8809 C.3       19 UNK        -0.1800 
    107 C         -8.0257  -21.5330  -49.0358 C.2       19 UNK         0.5000 
    108 O         -8.9902  -21.1179  -48.3907 O.2       19 UNK        -0.5000 
    109 N         -7.3157  -20.7697  -49.8690 N.am      20 UNK        -0.5000 
    110 CA        -7.5184  -19.3482  -50.1166 C.3       20 UNK         0.1400 
    111 CB        -8.4635  -19.1653  -51.3154 C.3       20 UNK        -0.1800 
    112 C         -6.1532  -18.7037  -50.3839 C.2       20 UNK         0.5000 
    113 O         -5.2410  -19.3822  -50.8621 O.2       20 UNK        -0.5000 
    114 N         -6.0289  -17.4118  -50.0584 N.am      21 UNK        -0.5000 
    115 CA        -4.8097  -16.6320  -50.2637 C.3       21 UNK         0.1400 
    116 CB        -4.9342  -15.2887  -49.5296 C.3       21 UNK        -0.1800 
    117 C         -4.5240  -16.4214  -51.7619 C.2       21 UNK         0.5000 
    118 O         -5.4267  -16.0364  -52.5093 O.2       21 UNK        -0.5000 
    119 N         -3.2799  -16.6908  -52.1642 N.am      22 UNK        -0.5000 
    120 CA        -2.7859  -16.5444  -53.5381 C.3       22 UNK         0.1400 
    121 C         -2.4798  -15.0686  -53.9268 C.2       22 UNK         0.5000 
    122 N         -2.3996  -14.7685  -55.2165 N.am      22 UNK        -0.7600 
    123 O         -2.2992  -14.1956  -53.0800 O.2       22 UNK        -0.5000 
    124 C124       -1.5907  -17.4988  -53.8036 C.3       23 UNK        -0.0398 
    125 S125       -0.1554  -17.2524  -52.6982 S.3       23 UNK        -0.2404 
    126 C126       -0.4153  -18.5707  -51.4627 C.3       23 UNK        -0.0205 
    127 H127        0.4696  -10.8207  -50.4723 H         1 UNK         0.0600 
    128 H128        0.4861  -12.5815  -50.3476 H         1 UNK         0.0600 
    129 H129        1.0749  -11.7969  -51.8154 H         1 UNK         0.0600 
    130 H130        2.1282  -13.3102  -49.0469 H         1 UNK         0.3000 
    131 H131        4.8692  -12.5507  -49.3112 H         1 UNK         0.0600 
    132 H132        5.2585  -14.0880  -47.4257 H         1 UNK         0.0800 
    133 H133        3.5665  -14.0781  -47.0062 H         1 UNK         0.0800 
    134 H134        1.7443  -15.5097  -48.0562 H         1 UNK         0.0800 
    135 H135        2.8154  -16.4502  -47.0490 H         1 UNK         0.0800 
    136 H136        0.7114  -16.4885  -50.0611 H         1 UNK         0.1150 
    137 H137        0.8432  -20.7553  -50.4576 H         1 UNK         0.1150 
    138 H138        3.4109  -18.7777  -47.6518 H         1 UNK         0.1150 
    139 H139        2.1879  -22.0779  -49.0582 H         1 UNK         0.0800 
    140 H140        3.7672  -21.3577  -48.8697 H         1 UNK         0.0800 
    141 H141        0.4815  -20.3758  -47.1195 H         1 UNK         0.0800 
    142 H142        0.9197  -20.5157  -45.4520 H         1 UNK         0.0800 
    143 H143        0.4627  -23.0289  -45.5984 H         1 UNK         0.0600 
    144 H144       -1.3962  -20.9203  -45.3254 H         1 UNK         0.3000 
    145 H145       -4.2478  -22.8709  -44.4440 H         1 UNK         0.0600 
    146 H146       -2.8887  -22.6008  -42.3726 H         1 UNK         0.0600 
    147 H147       -2.4109  -20.9829  -42.8699 H         1 UNK         0.0600 
    148 H148       -4.0985  -21.3333  -42.4986 H         1 UNK         0.0600 
    149 H149       -3.6831  -20.0511  -44.7763 H         1 UNK         0.3000 
    150 H150       -4.8179  -19.8547  -48.1484 H         1 UNK         0.0600 
    151 H151       -6.8913  -19.8195  -46.7435 H         1 UNK         0.0600 
    152 H152       -6.3544  -18.1919  -47.1288 H         1 UNK         0.0600 
    153 H153       -6.0610  -18.8618  -45.5252 H         1 UNK         0.0600 
    154 H154       -3.9178  -17.8701  -46.2862 H         1 UNK         0.3000 
    155 H155       -0.4640  -18.0410  -47.1681 H         1 UNK         0.0600 
    156 H156       -2.5796  -15.9235  -47.8066 H         1 UNK         0.0600 
    157 H157       -0.8282  -15.7313  -47.8625 H         1 UNK         0.0600 
    158 H158       -1.6311  -16.7700  -49.0220 H         1 UNK         0.0600 
    159 H159       -1.6699  -16.1786  -45.5011 H         1 UNK         0.3000 
    160 H160       -2.2845  -17.6333  -42.6319 H         1 UNK         0.0600 
    161 H161        0.7634  -17.4257  -42.8856 H         1 UNK         0.0600 
    162 H162       -0.1350  -18.7873  -42.2257 H         1 UNK         0.0600 
    163 H163       -0.1446  -17.2464  -41.3848 H         1 UNK         0.0600 
    164 H164       -0.5640  -15.4091  -43.6487 H         1 UNK         0.3000 
    165 H165       -3.1783  -13.0925  -43.5021 H         1 UNK         0.0600 
    166 H166       -1.8680  -11.7510  -41.8750 H         1 UNK         0.0600 
    167 H167       -2.7065  -13.0507  -41.0427 H         1 UNK         0.0600 
    168 H168       -0.9809  -13.1863  -41.3635 H         1 UNK         0.0600 
    169 H169       -0.3516  -12.7165  -43.6862 H         1 UNK         0.3000 
    170 H170        0.1474  -13.8362  -46.9913 H         1 UNK         0.0600 
    171 H171        0.0174  -10.9184  -46.0764 H         1 UNK         0.0600 
    172 H172        0.7401  -11.5401  -47.5588 H         1 UNK         0.0600 
    173 H173       -0.9942  -11.5951  -47.3480 H         1 UNK         0.0600 
    174 H174        1.8693  -12.3470  -45.3465 H         1 UNK         0.3000 
    175 H175        2.5865  -14.4329  -42.7776 H         1 UNK         0.0600 
    176 H176        4.5850  -14.7402  -45.0693 H         1 UNK         0.0600 
    177 H177        4.8147  -15.1452  -43.3772 H         1 UNK         0.0600 
    178 H178        3.7027  -16.0855  -44.3549 H         1 UNK         0.0600 
    179 H179        4.4001  -12.6023  -44.0005 H         1 UNK         0.3000 
    180 H180        2.8876   -9.6201  -42.8324 H         1 UNK         0.0600 
    181 H181        5.3600  -11.1212  -41.8247 H         1 UNK         0.0600 
    182 H182        4.0449  -10.5001  -40.8408 H         1 UNK         0.0600 
    183 H183        5.0904   -9.3829  -41.7038 H         1 UNK         0.0600 
    184 H184        3.8868   -9.2943  -44.7445 H         1 UNK         0.3000 
    185 H185        5.2039   -9.1959  -46.4189 H         1 UNK         0.0600 
    186 H186        7.5327   -9.0513  -45.5125 H         1 UNK         0.0600 
    187 H187        7.8819  -10.6620  -46.1279 H         1 UNK         0.0600 
    188 H188        7.5291   -9.3435  -47.2446 H         1 UNK         0.0600 
    189 H189        6.2268  -11.4964  -47.7444 H         1 UNK         0.3000 
    190 H190       -1.7101  -21.5008  -48.0539 H         1 UNK         0.3000 
    191 H191       -0.9798  -23.1400  -50.2333 H         1 UNK         0.0600 
    192 H192       -3.6231  -21.7098  -49.6482 H         1 UNK         0.0600 
    193 H193       -3.1309  -22.3435  -51.2125 H         1 UNK         0.0600 
    194 H194       -2.2326  -21.0238  -50.4848 H         1 UNK         0.0600 
    195 H195       -3.5394  -23.6073  -47.7382 H         1 UNK         0.3000 
    196 H196       -4.5732  -26.0441  -48.7420 H         1 UNK         0.0600 
    197 H197       -5.5153  -26.3128  -46.4651 H         1 UNK         0.0600 
    198 H198       -5.7120  -24.6559  -47.0126 H         1 UNK         0.0600 
    199 H199       -4.4594  -25.0518  -45.8438 H         1 UNK         0.0600 
    200 H200       -1.9253  -25.4457  -46.3740 H         1 UNK         0.3000 
    201 H201       -1.2520  -28.1579  -45.8867 H         1 UNK         0.0600 
    202 H202       -0.5402  -26.2883  -44.4229 H         1 UNK         0.0600 
    203 H203        0.4777  -25.6347  -45.7040 H         1 UNK         0.0600 
    204 H204        0.8616  -27.1905  -44.9787 H         1 UNK         0.0600 
    205 H205       -0.2220  -25.9272  -48.4500 H         1 UNK         0.3000 
    206 H206        1.6965  -27.7214  -49.6684 H         1 UNK         0.0600 
    207 H207        1.8366  -25.2339  -49.8534 H         1 UNK         0.0600 
    208 H208        1.7445  -25.9871  -51.4367 H         1 UNK         0.0600 
    209 H209        0.3234  -25.2083  -50.7561 H         1 UNK         0.0600 
    210 H210       -1.5961  -28.0305  -49.4666 H         1 UNK         0.3000 
    211 H211       -3.1237  -29.2942  -50.3708 H         1 UNK         0.0600 
    212 H212       -1.0251  -30.5291  -52.2223 H         1 UNK         0.0600 
    213 H213       -2.5838  -31.2095  -51.7854 H         1 UNK         0.0600 
    214 H214       -1.3349  -31.0435  -50.5636 H         1 UNK         0.0600 
    215 H215       -2.5788  -26.6287  -51.4324 H         1 UNK         0.3000 
    216 H216       -3.9720  -26.7554  -54.0662 H         1 UNK         0.0600 
    217 H217       -3.4158  -24.3727  -54.2255 H         1 UNK         0.0600 
    218 H218       -1.9412  -25.2361  -53.8342 H         1 UNK         0.0600 
    219 H219       -2.7957  -24.3419  -52.5813 H         1 UNK         0.0600 
    220 H220       -5.5238  -24.5419  -53.8939 H         1 UNK         0.3000 
    221 H221       -7.7471  -25.2682  -52.2191 H         1 UNK         0.0600 
    222 H222       -7.1672  -22.7177  -53.8291 H         1 UNK         0.0600 
    223 H223       -8.0337  -24.1362  -54.4212 H         1 UNK         0.0600 
    224 H224       -8.7244  -23.1550  -53.1382 H         1 UNK         0.0600 
    225 H225       -8.5156  -24.2739  -50.3465 H         1 UNK         0.3000 
    226 H226       -6.5468  -23.0167  -48.6117 H         1 UNK         0.0600 
    227 H227       -8.0554  -24.8247  -47.8031 H         1 UNK         0.0600 
    228 H228       -8.2998  -23.3431  -46.8929 H         1 UNK         0.0600 
    229 H229       -9.4646  -23.8168  -48.1258 H         1 UNK         0.0600 
    230 H230       -6.5232  -21.1822  -50.3569 H         1 UNK         0.3000 
    231 H231       -7.9546  -18.8779  -49.2327 H         1 UNK         0.0600 
    232 H232       -8.6219  -18.1083  -51.5324 H         1 UNK         0.0600 
    233 H233       -9.4403  -19.6073  -51.1183 H         1 UNK         0.0600 
    234 H234       -8.0613  -19.6304  -52.2165 H         1 UNK         0.0600 
    235 H235       -6.8317  -16.9072  -49.7122 H         1 UNK         0.3000 
    236 H236       -3.9816  -17.1876  -49.8184 H         1 UNK         0.0600 
    237 H237       -5.0857  -15.4353  -48.4599 H         1 UNK         0.0600 
    238 H238       -4.0281  -14.6934  -49.6508 H         1 UNK         0.0600 
    239 H239       -5.7680  -14.6974  -49.9103 H         1 UNK         0.0600 
    240 H240       -2.5835  -16.9496  -51.4837 H         1 UNK         0.3000 
    241 H241       -3.5931  -16.8654  -54.1999 H         1 UNK         0.0600 
    242 H242       -2.5455  -15.4608  -55.9351 H         1 UNK         0.3800 
    243 H243       -2.1953  -13.8178  -55.4836 H         1 UNK         0.3800 
    244 H244       -1.9288  -18.5326  -53.7205 H         1 UNK         0.0800 
    245 H245       -1.2448  -17.3950  -54.8332 H         1 UNK         0.0800 
    246 H246       -1.3757  -18.4369  -50.9650 H         1 UNK         0.0800 
    247 H247       -0.4686  -19.5270  -51.9856 H         1 UNK         0.0800 
@<TRIPOS>BOND
     1    1    2 1    
     2    1  127 1    
     3    1  128 1    
     4    1  129 1    
     5    2    3 2    
     6    2    4 am   BACKBONE|DICT|INTERRES
     7    4    5 1    
     8    4  130 1    
     9    5    6 1    
    10    5   65 1    
    11    5  131 1    
    12    6    7 1    
    13    6  132 1    
    14    6  133 1    
    15    7    8 1    
    16    8    9 1    
    17    8  134 1    
    18    8  135 1    
    19    9   10 ar   
    20    9   14 ar   
    21   10   11 ar   
    22   10  136 1    
    23   11   12 ar   
    24   11  126 1    
    25   12   13 ar   
    26   12  137 1    
    27   13   14 ar   
    28   13   15 1    
    29   14  138 1    
    30   15   16 1    
    31   15  139 1    
    32   15  140 1    
    33   16   17 1    
    34   17   18 1    
    35   17  141 1    
    36   17  142 1    
    37   18   19 1    
    38   18   67 1    
    39   18  143 1    
    40   19   20 am   BACKBONE|DICT|INTERRES
    41   19  144 1    
    42   20   21 2    
    43   20   22 1    
    44   22   23 1    
    45   22   24 1    
    46   22  145 1    
    47   23  146 1    
    48   23  147 1    
    49   23  148 1    
    50   24   25 am   BACKBONE|DICT|INTERRES
    51   24  149 1    
    52   25   26 2    
    53   25   27 1    
    54   27   28 1    
    55   27   29 1    
    56   27  150 1    
    57   28  151 1    
    58   28  152 1    
    59   28  153 1    
    60   29   30 am   BACKBONE|DICT|INTERRES
    61   29  154 1    
    62   30   31 2    
    63   30   32 1    
    64   32   33 1    
    65   32   34 1    
    66   32  155 1    
    67   33  156 1    
    68   33  157 1    
    69   33  158 1    
    70   34   35 am   BACKBONE|DICT|INTERRES
    71   34  159 1    
    72   35   36 2    
    73   35   37 1    
    74   37   38 1    
    75   37   39 1    
    76   37  160 1    
    77   38  161 1    
    78   38  162 1    
    79   38  163 1    
    80   39   40 am   BACKBONE|DICT|INTERRES
    81   39  164 1    
    82   40   41 2    
    83   40   42 1    
    84   42   43 1    
    85   42   44 1    
    86   42  165 1    
    87   43  166 1    
    88   43  167 1    
    89   43  168 1    
    90   44   45 am   BACKBONE|DICT|INTERRES
    91   44  169 1    
    92   45   46 2    
    93   45   47 1    
    94   47   48 1    
    95   47   49 1    
    96   47  170 1    
    97   48  171 1    
    98   48  172 1    
    99   48  173 1    
   100   49   50 am   BACKBONE|DICT|INTERRES
   101   49  174 1    
   102   50   51 2    
   103   50   52 1    
   104   52   53 1    
   105   52   54 1    
   106   52  175 1    
   107   53  176 1    
   108   53  177 1    
   109   53  178 1    
   110   54   55 am   BACKBONE|DICT|INTERRES
   111   54  179 1    
   112   55   56 2    
   113   55   57 1    
   114   57   58 1    
   115   57   59 1    
   116   57  180 1    
   117   58  181 1    
   118   58  182 1    
   119   58  183 1    
   120   59   60 am   BACKBONE|DICT|INTERRES
   121   59  184 1    
   122   60   61 2    
   123   60   62 1    
   124   62   63 1    
   125   62   64 1    
   126   62  185 1    
   127   63  186 1    
   128   63  187 1    
   129   63  188 1    
   130   64   65 am   BACKBONE|DICT|INTERRES
   131   64  189 1    
   132   65   66 2    
   133   67   68 2    
   134   67   69 am   BACKBONE|DICT|INTERRES
   135   69   70 1    
   136   69  190 1    
   137   70   71 1    
   138   70   72 1    
   139   70  191 1    
   140   71  192 1    
   141   71  193 1    
   142   71  194 1    
   143   72   73 2    
   144   72   74 am   BACKBONE|DICT|INTERRES
   145   74   75 1    
   146   74  195 1    
   147   75   76 1    
   148   75   77 1    
   149   75  196 1    
   150   76  197 1    
   151   76  198 1    
   152   76  199 1    
   153   77   78 2    
   154   77   79 am   BACKBONE|DICT|INTERRES
   155   79   80 1    
   156   79  200 1    
   157   80   81 1    
   158   80   82 1    
   159   80  201 1    
   160   81  202 1    
   161   81  203 1    
   162   81  204 1    
   163   82   83 2    
   164   82   84 am   BACKBONE|DICT|INTERRES
   165   84   85 1    
   166   84  205 1    
   167   85   86 1    
   168   85   87 1    
   169   85  206 1    
   170   86  207 1    
   171   86  208 1    
   172   86  209 1    
   173   87   88 2    
   174   87   89 am   BACKBONE|DICT|INTERRES
   175   89   90 1    
   176   89  210 1    
   177   90   91 1    
   178   90   92 1    
   179   90  211 1    
   180   91  212 1    
   181   91  213 1    
   182   91  214 1    
   183   92   93 2    
   184   92   94 am   BACKBONE|DICT|INTERRES
   185   94   95 1    
   186   94  215 1    
   187   95   96 1    
   188   95   97 1    
   189   95  216 1    
   190   96  217 1    
   191   96  218 1    
   192   96  219 1    
   193   97   98 2    
   194   97   99 am   BACKBONE|DICT|INTERRES
   195   99  100 1    
   196   99  220 1    
   197  100  101 1    
   198  100  102 1    
   199  100  221 1    
   200  101  222 1    
   201  101  223 1    
   202  101  224 1    
   203  102  103 2    
   204  102  104 am   BACKBONE|DICT|INTERRES
   205  104  105 1    
   206  104  225 1    
   207  105  106 1    
   208  105  107 1    
   209  105  226 1    
   210  106  227 1    
   211  106  228 1    
   212  106  229 1    
   213  107  108 2    
   214  107  109 am   BACKBONE|DICT|INTERRES
   215  109  110 1    
   216  109  230 1    
   217  110  111 1    
   218  110  112 1    
   219  110  231 1    
   220  111  232 1    
   221  111  233 1    
   222  111  234 1    
   223  112  113 2    
   224  112  114 am   BACKBONE|DICT|INTERRES
   225  114  115 1    
   226  114  235 1    
   227  115  116 1    
   228  115  117 1    
   229  115  236 1    
   230  116  237 1    
   231  116  238 1    
   232  116  239 1    
   233  117  118 2    
   234  117  119 am   BACKBONE|DICT|INTERRES
   235  119  120 1    
   236  119  240 1    
   237  120  121 1    
   238  120  124 1    
   239  120  241 1    
   240  121  122 am   BACKBONE|DICT|INTERRES
   241  121  123 2    
   242  122  242 1    
   243  122  243 1    
   244  124  125 1    
   245  124  244 1    
   246  124  245 1    
   247  125  126 1    
   248  126  246 1    
   249  126  247 1    
@<TRIPOS>SUBSTRUCTURE
     1 UNK         1 GROUP             0       ****    0 ROOT    
