@<TRIPOS>MOLECULE
3R540
247   249    1
SMALL
USER_CHARGES


@<TRIPOS>ATOM
      1 CA          2.8742  -11.6193  -51.2430 C.3       0 UNK        -0.1800 
      2 C           3.3887  -11.8829  -49.8350 C.2       0 UNK         0.5000 
      3 O           4.5462  -11.5854  -49.5398 O.2       0 UNK        -0.5000 
      4 N           2.5335  -12.4404  -48.9685 N.am      1 UNK        -0.5000 
      5 CA          2.8475  -12.7611  -47.5697 C.3       1 UNK         0.1400 
      6 C6          1.8151  -13.7316  -46.9482 C.3       23 UNK        -0.0398 
      7 S7          1.7605  -15.3618  -47.7627 S.3       23 UNK        -0.2404 
      8 C8          0.3800  -15.1400  -48.9342 C.3       23 UNK        -0.0205 
      9 C9         -0.2369  -16.4637  -49.3645 C.ar      23 UNK        -0.0193 
     10 C10        -1.6119  -16.6755  -49.2203 C.ar      23 UNK        -0.1150 
     11 C11        -2.1911  -17.8802  -49.6260 C.ar      23 UNK        -0.0193 
     12 C12        -1.3872  -18.8699  -50.1938 C.ar      23 UNK        -0.1150 
     13 C13        -0.0066  -18.6882  -50.3164 C.ar      23 UNK        -0.0193 
     14 C14         0.5580  -17.4746  -49.9145 C.ar      23 UNK        -0.1150 
     15 C15         0.8873  -19.7938  -50.8703 C.3       23 UNK        -0.0205 
     16 S16         0.5436  -21.4505  -50.1811 S.3       23 UNK        -0.2404 
     17 C17         0.5323  -21.1484  -48.3772 C.3       23 UNK        -0.0398 
     18 CA          0.0869  -22.3813  -47.5548 C.3       11 UNK         0.1400 
     19 N           0.2648  -22.1603  -46.1180 N.am      11 UNK        -0.5000 
     20 C           0.1368  -23.1084  -45.1792 C.2       10 UNK         0.5000 
     21 O          -0.0982  -24.2898  -45.4268 O.2       10 UNK        -0.5000 
     22 CA          0.2322  -22.6565  -43.7130 C.3       10 UNK         0.1400 
     23 CB          1.6967  -22.4556  -43.2978 C.3       10 UNK        -0.1800 
     24 N          -0.5398  -21.4412  -43.4503 N.am      10 UNK        -0.5000 
     25 C          -1.8711  -21.3491  -43.5857 C.2       9 UNK         0.5000 
     26 O          -2.5904  -22.2942  -43.9079 O.2       9 UNK        -0.5000 
     27 CA         -2.5056  -19.9651  -43.3632 C.3       9 UNK         0.1400 
     28 CB         -2.6717  -19.6766  -41.8640 C.3       9 UNK        -0.1800 
     29 N          -1.7485  -18.8834  -43.9920 N.am      9 UNK        -0.5000 
     30 C          -1.5364  -18.7613  -45.3108 C.2       8 UNK         0.5000 
     31 O          -1.9820  -19.5385  -46.1545 O.2       8 UNK        -0.5000 
     32 CA         -0.6201  -17.6069  -45.7519 C.3       8 UNK         0.1400 
     33 CB         -1.3599  -16.2615  -45.6858 C.3       8 UNK        -0.1800 
     34 N           0.6010  -17.5428  -44.9493 N.am      8 UNK        -0.5000 
     35 C           1.5199  -18.5179  -44.8915 C.2       7 UNK         0.5000 
     36 O           1.4707  -19.5532  -45.5571 O.2       7 UNK        -0.5000 
     37 CA          2.6512  -18.3302  -43.8685 C.3       7 UNK         0.1400 
     38 CB          3.7773  -17.4602  -44.4482 C.3       7 UNK        -0.1800 
     39 N           2.1550  -17.7495  -42.6187 N.am      7 UNK        -0.5000 
     40 C           1.3984  -18.4152  -41.7325 C.2       6 UNK         0.5000 
     41 O           1.0728  -19.5934  -41.8676 O.2       6 UNK        -0.5000 
     42 CA          0.8876  -17.6325  -40.5079 C.3       6 UNK         0.1400 
     43 CB          1.9342  -17.6471  -39.3841 C.3       6 UNK        -0.1800 
     44 N           0.5353  -16.2486  -40.8215 N.am      6 UNK        -0.5000 
     45 C          -0.4638  -15.8809  -41.6361 C.2       5 UNK         0.5000 
     46 O          -1.2434  -16.6761  -42.1593 O.2       5 UNK        -0.5000 
     47 CA         -0.5727  -14.3783  -41.9656 C.3       5 UNK         0.1400 
     48 CB         -1.5259  -13.6776  -40.9871 C.3       5 UNK        -0.1800 
     49 N           0.7190  -13.6835  -41.9621 N.am      5 UNK        -0.5000 
     50 C           1.7628  -13.9925  -42.7410 C.2       4 UNK         0.5000 
     51 O           1.7329  -14.9035  -43.5700 O.2       4 UNK        -0.5000 
     52 CA          3.0484  -13.1675  -42.5286 C.3       4 UNK         0.1400 
     53 CB          4.2402  -13.7144  -43.3348 C.3       4 UNK        -0.1800 
     54 N           2.8577  -11.7472  -42.8359 N.am      4 UNK        -0.5000 
     55 C           2.2594  -10.8617  -42.0236 C.2       3 UNK         0.5000 
     56 O           1.7630  -11.1757  -40.9399 O.2       3 UNK        -0.5000 
     57 CA          2.2077   -9.3836  -42.4619 C.3       3 UNK         0.1400 
     58 CB          3.2213   -8.5535  -41.6586 C.3       3 UNK        -0.1800 
     59 N           2.4608   -9.1761  -43.8873 N.am      3 UNK        -0.5000 
     60 C           1.5825   -9.4237  -44.8664 C.2       2 UNK         0.5000 
     61 O           0.4438   -9.8506  -44.6697 O.2       2 UNK        -0.5000 
     62 CA          2.0542   -9.1822  -46.3168 C.3       2 UNK         0.1400 
     63 CB          3.3477   -8.3441  -46.4352 C.3       2 UNK        -0.1800 
     64 N           2.1937  -10.4469  -47.0435 N.am      2 UNK        -0.5000 
     65 C           2.9555  -11.4957  -46.6930 C.2       1 UNK         0.5000 
     66 O           3.7050  -11.5003  -45.7156 O.2       1 UNK        -0.5000 
     67 C          -1.3560  -22.8272  -47.8830 C.2       11 UNK         0.5000 
     68 O          -1.5369  -23.8128  -48.6009 O.2       11 UNK        -0.5000 
     69 N          -2.3575  -22.1333  -47.3222 N.am      12 UNK        -0.5000 
     70 CA         -3.7774  -22.4636  -47.4666 C.3       12 UNK         0.1400 
     71 CB         -4.6345  -21.4009  -46.7641 C.3       12 UNK        -0.1800 
     72 C          -4.1301  -23.8768  -46.9644 C.2       12 UNK         0.5000 
     73 O          -4.9178  -24.5675  -47.6102 O.2       12 UNK        -0.5000 
     74 N          -3.5255  -24.2845  -45.8422 N.am      13 UNK        -0.5000 
     75 CA         -3.7010  -25.6008  -45.2393 C.3       13 UNK         0.1400 
     76 CB         -3.2848  -25.5423  -43.7600 C.3       13 UNK        -0.1800 
     77 C          -2.9341  -26.7082  -45.9849 C.2       13 UNK         0.5000 
     78 O          -3.5504  -27.6752  -46.4340 O.2       13 UNK        -0.5000 
     79 N          -1.6033  -26.5773  -46.0633 N.am      14 UNK        -0.5000 
     80 CA         -0.7028  -27.6600  -46.4635 C.3       14 UNK         0.1400 
     81 CB          0.6709  -27.4471  -45.8083 C.3       14 UNK        -0.1800 
     82 C          -0.5471  -27.8037  -47.9843 C.2       14 UNK         0.5000 
     83 O          -0.4351  -28.9299  -48.4703 O.2       14 UNK        -0.5000 
     84 N          -0.5291  -26.6766  -48.7065 N.am      15 UNK        -0.5000 
     85 CA         -0.3222  -26.6329  -50.1572 C.3       15 UNK         0.1400 
     86 CB          0.6965  -25.5263  -50.4846 C.3       15 UNK        -0.1800 
     87 C          -1.6367  -26.4139  -50.9263 C.2       15 UNK         0.5000 
     88 O          -1.5969  -26.2762  -52.1494 O.2       15 UNK        -0.5000 
     89 N          -2.7696  -26.3402  -50.2091 N.am      16 UNK        -0.5000 
     90 CA         -4.1116  -26.0187  -50.7124 C.3       16 UNK         0.1400 
     91 CB         -4.6477  -27.1591  -51.6028 C.3       16 UNK        -0.1800 
     92 C          -4.1624  -24.6366  -51.4020 C.2       16 UNK         0.5000 
     93 O          -4.8480  -24.4716  -52.4105 O.2       16 UNK        -0.5000 
     94 N          -3.3828  -23.6905  -50.8576 N.am      17 UNK        -0.5000 
     95 CA         -3.1151  -22.3317  -51.3393 C.3       17 UNK         0.1400 
     96 CB         -4.4094  -21.5080  -51.4957 C.3       17 UNK        -0.1800 
     97 C          -2.2181  -22.2634  -52.5934 C.2       17 UNK         0.5000 
     98 O          -1.9998  -21.1678  -53.1099 O.2       17 UNK        -0.5000 
     99 N          -1.6986  -23.4151  -53.0498 N.am      18 UNK        -0.5000 
    100 CA        -0.7716  -23.6172  -54.1722 C.3       18 UNK         0.1400 
    101 CB         0.5779  -22.9266  -53.8866 C.3       18 UNK        -0.1800 
    102 C         -1.3280  -23.2458  -55.5664 C.2       18 UNK         0.5000 
    103 O         -0.5892  -23.3223  -56.5496 O.2       18 UNK        -0.5000 
    104 N         -2.6097  -22.8758  -55.6425 N.am      19 UNK        -0.5000 
    105 CA        -3.3370  -22.4138  -56.8186 C.3       19 UNK         0.1400 
    106 CB        -2.7805  -21.0548  -57.2948 C.3       19 UNK        -0.1800 
    107 C         -4.8180  -22.2781  -56.4331 C.2       19 UNK         0.5000 
    108 O         -5.1572  -22.3644  -55.2491 O.2       19 UNK        -0.5000 
    109 N         -5.6751  -22.0282  -57.4303 N.am      20 UNK        -0.5000 
    110 CA        -7.0894  -21.6907  -57.2556 C.3       20 UNK         0.1400 
    111 CB        -7.8348  -21.9805  -58.5709 C.3       20 UNK        -0.1800 
    112 C         -7.2388  -20.2242  -56.7969 C.2       20 UNK         0.5000 
    113 O         -7.6454  -19.3625  -57.5791 O.2       20 UNK        -0.5000 
    114 N         -6.8505  -19.9648  -55.5465 N.am      21 UNK        -0.5000 
    115 CA        -6.7985  -18.6545  -54.9100 C.3       21 UNK         0.1400 
    116 CB        -5.4151  -18.0295  -55.1733 C.3       21 UNK        -0.1800 
    117 C         -7.0687  -18.8030  -53.4041 C.2       21 UNK         0.5000 
    118 O         -7.1441  -19.9264  -52.8987 O.2       21 UNK        -0.5000 
    119 N         -7.1910  -17.6589  -52.7199 N.am      22 UNK        -0.5000 
    120 CA        -7.4385  -17.5283  -51.2721 C.3       22 UNK         0.1400 
    121 C         -8.8634  -18.0011  -50.8403 C.2       22 UNK         0.5000 
    122 N         -9.1434  -18.1026  -49.5469 N.am      22 UNK        -0.7600 
    123 O         -9.7480  -18.2310  -51.6631 O.2       22 UNK        -0.5000 
    124 C124       -6.2974  -18.1358  -50.4008 C.3       23 UNK        -0.0398 
    125 S125       -4.6441  -17.4921  -50.8312 S.3       23 UNK        -0.2404 
    126 C126       -3.6775  -18.1270  -49.4305 C.3       23 UNK        -0.0205 
    127 H127        1.8404  -11.9435  -51.3651 H         1 UNK         0.0600 
    128 H128        3.4852  -12.1523  -51.9714 H         1 UNK         0.0600 
    129 H129        2.9254  -10.5539  -51.4678 H         1 UNK         0.0600 
    130 H130        1.5998  -12.6685  -49.2749 H         1 UNK         0.3000 
    131 H131        3.8243  -13.2497  -47.5468 H         1 UNK         0.0600 
    132 H132        2.0700  -13.9214  -45.9061 H         1 UNK         0.0800 
    133 H133        0.8182  -13.2884  -46.9304 H         1 UNK         0.0800 
    134 H134       -0.3832  -14.5047  -48.4829 H         1 UNK         0.0800 
    135 H135        0.7398  -14.6167  -49.8204 H         1 UNK         0.0800 
    136 H136       -2.2362  -15.9042  -48.7919 H         1 UNK         0.1150 
    137 H137       -1.8339  -19.7944  -50.5205 H         1 UNK         0.1150 
    138 H138        1.6224  -17.3163  -50.0176 H         1 UNK         0.1150 
    139 H139        0.7612  -19.8347  -51.9530 H         1 UNK         0.0800 
    140 H140        1.9377  -19.5618  -50.6885 H         1 UNK         0.0800 
    141 H141       -0.1079  -20.2972  -48.1430 H         1 UNK         0.0800 
    142 H142        1.5412  -20.8538  -48.0853 H         1 UNK         0.0800 
    143 H143        0.7442  -23.2102  -47.8270 H         1 UNK         0.0600 
    144 H144        0.4898  -21.2119  -45.8297 H         1 UNK         0.3000 
    145 H145       -0.1863  -23.4535  -43.0949 H         1 UNK         0.0600 
    146 H146        1.7772  -22.2342  -42.2335 H         1 UNK         0.0600 
    147 H147        2.2832  -23.3557  -43.4866 H         1 UNK         0.0600 
    148 H148        2.1636  -21.6380  -43.8467 H         1 UNK         0.0600 
    149 H149       -0.0181  -20.6340  -43.1227 H         1 UNK         0.3000 
    150 H150       -3.4984  -19.9789  -43.8169 H         1 UNK         0.0600 
    151 H151       -3.2526  -20.4609  -41.3771 H         1 UNK         0.0600 
    152 H152       -3.1951  -18.7344  -41.7000 H         1 UNK         0.0600 
    153 H153       -1.7089  -19.6165  -41.3562 H         1 UNK         0.0600 
    154 H154       -1.3789  -18.1697  -43.3700 H         1 UNK         0.3000 
    155 H155       -0.3263  -17.7904  -46.7870 H         1 UNK         0.0600 
    156 H156       -1.6911  -16.0273  -44.6751 H         1 UNK         0.0600 
    157 H157       -0.7268  -15.4427  -46.0253 H         1 UNK         0.0600 
    158 H158       -2.2459  -16.2753  -46.3209 H         1 UNK         0.0600 
    159 H159        0.7440  -16.7128  -44.3871 H         1 UNK         0.3000 
    160 H160        3.0700  -19.3136  -43.6448 H         1 UNK         0.0600 
    161 H161        3.4181  -16.4797  -44.7608 H         1 UNK         0.0600 
    162 H162        4.2175  -17.9355  -45.3256 H         1 UNK         0.0600 
    163 H163        4.5771  -17.3118  -43.7229 H         1 UNK         0.0600 
    164 H164        2.3079  -16.7587  -42.4907 H         1 UNK         0.3000 
    165 H165       -0.0112  -18.1346  -40.1439 H         1 UNK         0.0600 
    166 H166        1.5533  -17.1642  -38.4840 H         1 UNK         0.0600 
    167 H167        2.2019  -18.6696  -39.1143 H         1 UNK         0.0600 
    168 H168        2.8507  -17.1346  -39.6790 H         1 UNK         0.0600 
    169 H169        1.1230  -15.5275  -40.4305 H         1 UNK         0.3000 
    170 H170       -0.9893  -14.2931  -42.9710 H         1 UNK         0.0600 
    171 H171       -2.5056  -14.1575  -40.9847 H         1 UNK         0.0600 
    172 H172       -1.1441  -13.7031  -39.9657 H         1 UNK         0.0600 
    173 H173       -1.6766  -12.6338  -41.2632 H         1 UNK         0.0600 
    174 H174        0.8219  -12.8953  -41.3306 H         1 UNK         0.3000 
    175 H175        3.3127  -13.2577  -41.4728 H         1 UNK         0.0600 
    176 H176        5.1343  -13.1107  -43.1792 H         1 UNK         0.0600 
    177 H177        4.0346  -13.7391  -44.4045 H         1 UNK         0.0600 
    178 H178        4.4801  -14.7330  -43.0281 H         1 UNK         0.0600 
    179 H179        3.2029  -11.4355  -43.7382 H         1 UNK         0.3000 
    180 H180        1.2072   -9.0120  -42.2306 H         1 UNK         0.0600 
    181 H181        4.2462   -8.8722  -41.8529 H         1 UNK         0.0600 
    182 H182        3.0453   -8.6503  -40.5864 H         1 UNK         0.0600 
    183 H183        3.1462   -7.4938  -41.9034 H         1 UNK         0.0600 
    184 H184        3.3856   -8.8599  -44.1414 H         1 UNK         0.3000 
    185 H185        1.2556   -8.6245  -46.8083 H         1 UNK         0.0600 
    186 H186        3.2400   -7.3816  -45.9334 H         1 UNK         0.0600 
    187 H187        4.2140   -8.8493  -46.0072 H         1 UNK         0.0600 
    188 H188        3.5770   -8.1350  -47.4802 H         1 UNK         0.0600 
    189 H189        1.6031  -10.5486  -47.8562 H         1 UNK         0.3000 
    190 H190       -2.1403  -21.3092  -46.7660 H         1 UNK         0.3000 
    191 H191       -4.0172  -22.4252  -48.5283 H         1 UNK         0.0600 
    192 H192       -4.4474  -20.4082  -47.1731 H         1 UNK         0.0600 
    193 H193       -5.6973  -21.6098  -46.8916 H         1 UNK         0.0600 
    194 H194       -4.4331  -21.3644  -45.6937 H         1 UNK         0.0600 
    195 H195       -2.9346  -23.6280  -45.3410 H         1 UNK         0.3000 
    196 H196       -4.7628  -25.8549  -45.2716 H         1 UNK         0.0600 
    197 H197       -3.3928  -26.5171  -43.2829 H         1 UNK         0.0600 
    198 H198       -3.9064  -24.8384  -43.2063 H         1 UNK         0.0600 
    199 H199       -2.2465  -25.2298  -43.6418 H         1 UNK         0.0600 
    200 H200       -1.1592  -25.7245  -45.7257 H         1 UNK         0.3000 
    201 H201       -1.1032  -28.6025  -46.0832 H         1 UNK         0.0600 
    202 H202        0.5840  -27.3666  -44.7247 H         1 UNK         0.0600 
    203 H203        1.1572  -26.5419  -46.1739 H         1 UNK         0.0600 
    204 H204        1.3376  -28.2838  -46.0204 H         1 UNK         0.0600 
    205 H205       -0.6767  -25.7850  -48.2478 H         1 UNK         0.3000 
    206 H206        0.0965  -27.5773  -50.5101 H         1 UNK         0.0600 
    207 H207        1.6201  -25.6595  -49.9215 H         1 UNK         0.0600 
    208 H208        0.9592  -25.5381  -51.5431 H         1 UNK         0.0600 
    209 H209        0.3080  -24.5336  -50.2611 H         1 UNK         0.0600 
    210 H210       -2.6898  -26.4462  -49.2076 H         1 UNK         0.3000 
    211 H211       -4.7630  -25.9523  -49.8412 H         1 UNK         0.0600 
    212 H212       -4.0849  -27.2487  -52.5323 H         1 UNK         0.0600 
    213 H213       -5.6915  -26.9884  -51.8688 H         1 UNK         0.0600 
    214 H214       -4.5983  -28.1179  -51.0867 H         1 UNK         0.0600 
    215 H215       -2.8237  -23.9592  -50.0516 H         1 UNK         0.3000 
    216 H216       -2.5352  -21.8719  -50.5413 H         1 UNK         0.0600 
    217 H217       -4.1828  -20.4583  -51.6847 H         1 UNK         0.0600 
    218 H218       -5.0230  -21.5495  -50.5964 H         1 UNK         0.0600 
    219 H219       -5.0151  -21.8561  -52.3327 H         1 UNK         0.0600 
    220 H220       -1.9536  -24.2703  -52.5686 H         1 UNK         0.3000 
    221 H221       -0.5855  -24.6912  -54.2077 H         1 UNK         0.0600 
    222 H222        0.4863  -21.8402  -53.8892 H         1 UNK         0.0600 
    223 H223        0.9762  -23.2261  -52.9171 H         1 UNK         0.0600 
    224 H224        1.3224  -23.1925  -54.6377 H         1 UNK         0.0600 
    225 H225       -3.1683  -22.8630  -54.7967 H         1 UNK         0.3000 
    226 H226       -3.2458  -23.1586  -57.6112 H         1 UNK         0.0600 
    227 H227       -1.7374  -21.1301  -57.6007 H         1 UNK         0.0600 
    228 H228       -3.3342  -20.6766  -58.1547 H         1 UNK         0.0600 
    229 H229       -2.8433  -20.3018  -56.5076 H         1 UNK         0.0600 
    230 H230       -5.3157  -21.9477  -58.3705 H         1 UNK         0.3000 
    231 H231       -7.5198  -22.3295  -56.4811 H         1 UNK         0.0600 
    232 H232       -7.4365  -21.3953  -59.4007 H         1 UNK         0.0600 
    233 H233       -8.8951  -21.7419  -58.4786 H         1 UNK         0.0600 
    234 H234       -7.7624  -23.0345  -58.8398 H         1 UNK         0.0600 
    235 H235       -6.5329  -20.7324  -54.9622 H         1 UNK         0.3000 
    236 H236       -7.5773  -18.0121  -55.3264 H         1 UNK         0.0600 
    237 H237       -5.2232  -17.9293  -56.2417 H         1 UNK         0.0600 
    238 H238       -5.3378  -17.0330  -54.7375 H         1 UNK         0.0600 
    239 H239       -4.6159  -18.6376  -54.7465 H         1 UNK         0.0600 
    240 H240       -7.1322  -16.7868  -53.2247 H         1 UNK         0.3000 
    241 H241       -7.4441  -16.4532  -51.0895 H         1 UNK         0.0600 
    242 H242      -10.0709  -18.3898  -49.2743 H         1 UNK         0.3800 
    243 H243       -8.4676  -17.8853  -48.8321 H         1 UNK         0.3800 
    244 H244       -6.4653  -17.9158  -49.3462 H         1 UNK         0.0800 
    245 H245       -6.2834  -19.2231  -50.4866 H         1 UNK         0.0800 
    246 H246       -3.8634  -19.1960  -49.3150 H         1 UNK         0.0800 
    247 H247       -4.0149  -17.6541  -48.5069 H         1 UNK         0.0800 
@<TRIPOS>BOND
     1    1    2 1    
     2    1  127 1    
     3    1  128 1    
     4    1  129 1    
     5    2    3 2    
     6    2    4 am   BACKBONE|DICT|INTERRES
     7    4    5 1    
     8    4  130 1    
     9    5    6 1    
    10    5   65 1    
    11    5  131 1    
    12    6    7 1    
    13    6  132 1    
    14    6  133 1    
    15    7    8 1    
    16    8    9 1    
    17    8  134 1    
    18    8  135 1    
    19    9   10 ar   
    20    9   14 ar   
    21   10   11 ar   
    22   10  136 1    
    23   11   12 ar   
    24   11  126 1    
    25   12   13 ar   
    26   12  137 1    
    27   13   14 ar   
    28   13   15 1    
    29   14  138 1    
    30   15   16 1    
    31   15  139 1    
    32   15  140 1    
    33   16   17 1    
    34   17   18 1    
    35   17  141 1    
    36   17  142 1    
    37   18   19 1    
    38   18   67 1    
    39   18  143 1    
    40   19   20 am   BACKBONE|DICT|INTERRES
    41   19  144 1    
    42   20   21 2    
    43   20   22 1    
    44   22   23 1    
    45   22   24 1    
    46   22  145 1    
    47   23  146 1    
    48   23  147 1    
    49   23  148 1    
    50   24   25 am   BACKBONE|DICT|INTERRES
    51   24  149 1    
    52   25   26 2    
    53   25   27 1    
    54   27   28 1    
    55   27   29 1    
    56   27  150 1    
    57   28  151 1    
    58   28  152 1    
    59   28  153 1    
    60   29   30 am   BACKBONE|DICT|INTERRES
    61   29  154 1    
    62   30   31 2    
    63   30   32 1    
    64   32   33 1    
    65   32   34 1    
    66   32  155 1    
    67   33  156 1    
    68   33  157 1    
    69   33  158 1    
    70   34   35 am   BACKBONE|DICT|INTERRES
    71   34  159 1    
    72   35   36 2    
    73   35   37 1    
    74   37   38 1    
    75   37   39 1    
    76   37  160 1    
    77   38  161 1    
    78   38  162 1    
    79   38  163 1    
    80   39   40 am   BACKBONE|DICT|INTERRES
    81   39  164 1    
    82   40   41 2    
    83   40   42 1    
    84   42   43 1    
    85   42   44 1    
    86   42  165 1    
    87   43  166 1    
    88   43  167 1    
    89   43  168 1    
    90   44   45 am   BACKBONE|DICT|INTERRES
    91   44  169 1    
    92   45   46 2    
    93   45   47 1    
    94   47   48 1    
    95   47   49 1    
    96   47  170 1    
    97   48  171 1    
    98   48  172 1    
    99   48  173 1    
   100   49   50 am   BACKBONE|DICT|INTERRES
   101   49  174 1    
   102   50   51 2    
   103   50   52 1    
   104   52   53 1    
   105   52   54 1    
   106   52  175 1    
   107   53  176 1    
   108   53  177 1    
   109   53  178 1    
   110   54   55 am   BACKBONE|DICT|INTERRES
   111   54  179 1    
   112   55   56 2    
   113   55   57 1    
   114   57   58 1    
   115   57   59 1    
   116   57  180 1    
   117   58  181 1    
   118   58  182 1    
   119   58  183 1    
   120   59   60 am   BACKBONE|DICT|INTERRES
   121   59  184 1    
   122   60   61 2    
   123   60   62 1    
   124   62   63 1    
   125   62   64 1    
   126   62  185 1    
   127   63  186 1    
   128   63  187 1    
   129   63  188 1    
   130   64   65 am   BACKBONE|DICT|INTERRES
   131   64  189 1    
   132   65   66 2    
   133   67   68 2    
   134   67   69 am   BACKBONE|DICT|INTERRES
   135   69   70 1    
   136   69  190 1    
   137   70   71 1    
   138   70   72 1    
   139   70  191 1    
   140   71  192 1    
   141   71  193 1    
   142   71  194 1    
   143   72   73 2    
   144   72   74 am   BACKBONE|DICT|INTERRES
   145   74   75 1    
   146   74  195 1    
   147   75   76 1    
   148   75   77 1    
   149   75  196 1    
   150   76  197 1    
   151   76  198 1    
   152   76  199 1    
   153   77   78 2    
   154   77   79 am   BACKBONE|DICT|INTERRES
   155   79   80 1    
   156   79  200 1    
   157   80   81 1    
   158   80   82 1    
   159   80  201 1    
   160   81  202 1    
   161   81  203 1    
   162   81  204 1    
   163   82   83 2    
   164   82   84 am   BACKBONE|DICT|INTERRES
   165   84   85 1    
   166   84  205 1    
   167   85   86 1    
   168   85   87 1    
   169   85  206 1    
   170   86  207 1    
   171   86  208 1    
   172   86  209 1    
   173   87   88 2    
   174   87   89 am   BACKBONE|DICT|INTERRES
   175   89   90 1    
   176   89  210 1    
   177   90   91 1    
   178   90   92 1    
   179   90  211 1    
   180   91  212 1    
   181   91  213 1    
   182   91  214 1    
   183   92   93 2    
   184   92   94 am   BACKBONE|DICT|INTERRES
   185   94   95 1    
   186   94  215 1    
   187   95   96 1    
   188   95   97 1    
   189   95  216 1    
   190   96  217 1    
   191   96  218 1    
   192   96  219 1    
   193   97   98 2    
   194   97   99 am   BACKBONE|DICT|INTERRES
   195   99  100 1    
   196   99  220 1    
   197  100  101 1    
   198  100  102 1    
   199  100  221 1    
   200  101  222 1    
   201  101  223 1    
   202  101  224 1    
   203  102  103 2    
   204  102  104 am   BACKBONE|DICT|INTERRES
   205  104  105 1    
   206  104  225 1    
   207  105  106 1    
   208  105  107 1    
   209  105  226 1    
   210  106  227 1    
   211  106  228 1    
   212  106  229 1    
   213  107  108 2    
   214  107  109 am   BACKBONE|DICT|INTERRES
   215  109  110 1    
   216  109  230 1    
   217  110  111 1    
   218  110  112 1    
   219  110  231 1    
   220  111  232 1    
   221  111  233 1    
   222  111  234 1    
   223  112  113 2    
   224  112  114 am   BACKBONE|DICT|INTERRES
   225  114  115 1    
   226  114  235 1    
   227  115  116 1    
   228  115  117 1    
   229  115  236 1    
   230  116  237 1    
   231  116  238 1    
   232  116  239 1    
   233  117  118 2    
   234  117  119 am   BACKBONE|DICT|INTERRES
   235  119  120 1    
   236  119  240 1    
   237  120  121 1    
   238  120  124 1    
   239  120  241 1    
   240  121  122 am   BACKBONE|DICT|INTERRES
   241  121  123 2    
   242  122  242 1    
   243  122  243 1    
   244  124  125 1    
   245  124  244 1    
   246  124  245 1    
   247  125  126 1    
   248  126  246 1    
   249  126  247 1    
@<TRIPOS>SUBSTRUCTURE
     1 UNK         1 GROUP             0       ****    0 ROOT    
