@<TRIPOS>MOLECULE
3R540
247   249    1
SMALL
USER_CHARGES


@<TRIPOS>ATOM
      1 CA          5.5501  -11.9921  -53.4053 C.3       0 UNK        -0.1800 
      2 C           4.8160  -11.7728  -52.0897 C.2       0 UNK         0.5000 
      3 O           4.2545  -10.6984  -51.8727 O.2       0 UNK        -0.5000 
      4 N           4.8279  -12.7807  -51.2098 N.am      1 UNK        -0.5000 
      5 CA          4.1104  -12.7922  -49.9317 C.3       1 UNK         0.1400 
      6 C6          4.7275  -13.8205  -48.9484 C.3       23 UNK        -0.0398 
      7 S7          4.7388  -15.5464  -49.5509 S.3       23 UNK        -0.2404 
      8 C8          3.4179  -16.2740  -48.5351 C.3       23 UNK        -0.0205 
      9 C9          2.6594  -17.3426  -49.2981 C.ar      23 UNK        -0.0193 
     10 C10         1.7360  -16.9635  -50.2723 C.ar      23 UNK        -0.1150 
     11 C11         0.9698  -17.9180  -50.9444 C.ar      23 UNK        -0.0193 
     12 C12         1.1526  -19.2730  -50.6483 C.ar      23 UNK        -0.1150 
     13 C13         2.0894  -19.6668  -49.6854 C.ar      23 UNK        -0.0193 
     14 C14         2.8417  -18.6972  -49.0147 C.ar      23 UNK        -0.1150 
     15 C15         2.3044  -21.1358  -49.3644 C.3       23 UNK        -0.0205 
     16 S16         1.3366  -21.6479  -47.9111 S.3       23 UNK        -0.2404 
     17 C17         2.3826  -23.0218  -47.3141 C.3       23 UNK        -0.0398 
     18 CA          1.6993  -23.9699  -46.2974 C.3       11 UNK         0.1400 
     19 N           1.2479  -23.2455  -45.1086 N.am      11 UNK        -0.5000 
     20 C           0.9075  -23.8080  -43.9418 C.2       10 UNK         0.5000 
     21 O           0.9829  -25.0174  -43.7136 O.2       10 UNK        -0.5000 
     22 CA          0.4393  -22.8294  -42.8469 C.3       10 UNK         0.1400 
     23 CB          0.2591  -23.4881  -41.4638 C.3       10 UNK        -0.1800 
     24 N           1.3133  -21.6572  -42.7628 N.am      10 UNK        -0.5000 
     25 C           2.6230  -21.6273  -42.4729 C.2       9 UNK         0.5000 
     26 O           3.2913  -22.6144  -42.1633 O.2       9 UNK        -0.5000 
     27 CA          3.3059  -20.2496  -42.5505 C.3       9 UNK         0.1400 
     28 CB          3.8501  -20.0078  -43.9678 C.3       9 UNK        -0.1800 
     29 N           2.4091  -19.1527  -42.1824 N.am      9 UNK        -0.5000 
     30 C           1.9452  -18.9308  -40.9442 C.2       8 UNK         0.5000 
     31 O           2.2912  -19.5806  -39.9566 O.2       8 UNK        -0.5000 
     32 CA          0.9018  -17.8095  -40.7845 C.3       8 UNK         0.1400 
     33 CB          1.5874  -16.4385  -40.6913 C.3       8 UNK        -0.1800 
     34 N          -0.0875  -17.7985  -41.8649 N.am      8 UNK        -0.5000 
     35 C          -1.0000  -18.7617  -42.0644 C.2       7 UNK         0.5000 
     36 O          -1.1338  -19.7405  -41.3301 O.2       7 UNK        -0.5000 
     37 CA         -1.9016  -18.6276  -43.3050 C.3       7 UNK         0.1400 
     38 CB         -3.0924  -17.7015  -43.0171 C.3       7 UNK        -0.1800 
     39 N          -1.1840  -18.1412  -44.4811 N.am      7 UNK        -0.5000 
     40 C          -0.2027  -18.8025  -45.1107 C.2       6 UNK         0.5000 
     41 O           0.1923  -19.9224  -44.7845 O.2       6 UNK        -0.5000 
     42 CA          0.4784  -18.0557  -46.2712 C.3       6 UNK         0.1400 
     43 CB         -0.4286  -18.0549  -47.5136 C.3       6 UNK        -0.1800 
     44 N           0.8281  -16.6788  -45.9060 N.am      6 UNK        -0.5000 
     45 C           1.6641  -16.3427  -44.9115 C.2       5 UNK         0.5000 
     46 O           2.2902  -17.1607  -44.2404 O.2       5 UNK        -0.5000 
     47 CA          1.7797  -14.8498  -44.5599 C.3       5 UNK         0.1400 
     48 CB          2.8651  -14.1534  -45.3910 C.3       5 UNK        -0.1800 
     49 N           0.5079  -14.1512  -44.7246 N.am      5 UNK        -0.5000 
     50 C          -0.5318  -14.2766  -43.8890 C.2       4 UNK         0.5000 
     51 O          -0.5077  -14.9576  -42.8640 O.2       4 UNK        -0.5000 
     52 CA         -1.8297  -13.5566  -44.2977 C.3       4 UNK         0.1400 
     53 CB         -1.7873  -12.0796  -43.8786 C.3       4 UNK        -0.1800 
     54 N          -2.0902  -13.6464  -45.7357 N.am      4 UNK        -0.5000 
     55 C          -2.3501  -14.7912  -46.3828 C.2       3 UNK         0.5000 
     56 O          -2.4379  -15.8824  -45.8209 O.2       3 UNK        -0.5000 
     57 CA         -2.5159  -14.7062  -47.9121 C.3       3 UNK         0.1400 
     58 CB         -3.9795  -14.3807  -48.2450 C.3       3 UNK        -0.1800 
     59 N          -1.6531  -13.7181  -48.5704 N.am      3 UNK        -0.5000 
     60 C          -0.3194  -13.6261  -48.4690 C.2       2 UNK         0.5000 
     61 O           0.3671  -14.3669  -47.7624 O.2       2 UNK        -0.5000 
     62 CA          0.3271  -12.4600  -49.2395 C.3       2 UNK         0.1400 
     63 CB         -0.1360  -11.1137  -48.6545 C.3       2 UNK        -0.1800 
     64 N           1.7906  -12.4943  -49.1781 N.am      2 UNK        -0.5000 
     65 C           2.5858  -12.9732  -50.1424 C.2       1 UNK         0.5000 
     66 O           2.1631  -13.5081  -51.1707 O.2       1 UNK        -0.5000 
     67 C           0.5632  -24.7952  -46.9388 C.2       11 UNK         0.5000 
     68 O          -0.6110  -24.5778  -46.6312 O.2       11 UNK        -0.5000 
     69 N           0.9306  -25.7125  -47.8456 N.am      12 UNK        -0.5000 
     70 CA          0.0134  -26.6109  -48.5550 C.3       12 UNK         0.1400 
     71 CB          0.8167  -27.5142  -49.5024 C.3       12 UNK        -0.1800 
     72 C          -1.1080  -25.8853  -49.3225 C.2       12 UNK         0.5000 
     73 O          -2.2428  -26.3594  -49.3179 O.2       12 UNK        -0.5000 
     74 N          -0.7819  -24.7284  -49.9176 N.am      13 UNK        -0.5000 
     75 CA         -1.7297  -23.8398  -50.5924 C.3       13 UNK         0.1400 
     76 CB         -0.9636  -22.6772  -51.2417 C.3       13 UNK        -0.1800 
     77 C          -2.8105  -23.3047  -49.6375 C.2       13 UNK         0.5000 
     78 O          -3.9971  -23.3816  -49.9552 O.2       13 UNK        -0.5000 
     79 N          -2.3776  -22.8150  -48.4674 N.am      14 UNK        -0.5000 
     80 CA         -3.2458  -22.3148  -47.4038 C.3       14 UNK         0.1400 
     81 CB         -2.4029  -21.5698  -46.3575 C.3       14 UNK        -0.1800 
     82 C          -4.0822  -23.4308  -46.7553 C.2       14 UNK         0.5000 
     83 O          -5.2749  -23.2358  -46.5222 O.2       14 UNK        -0.5000 
     84 N          -3.4477  -24.5831  -46.5022 N.am      15 UNK        -0.5000 
     85 CA         -4.0590  -25.7626  -45.8909 C.3       15 UNK         0.1400 
     86 CB         -2.9624  -26.7805  -45.5435 C.3       15 UNK        -0.1800 
     87 C          -5.1465  -26.4082  -46.7694 C.2       15 UNK         0.5000 
     88 O          -6.2072  -26.7640  -46.2544 O.2       15 UNK        -0.5000 
     89 N          -4.8752  -26.5372  -48.0755 N.am      16 UNK        -0.5000 
     90 CA         -5.8061  -27.1023  -49.0560 C.3       16 UNK         0.1400 
     91 CB         -5.0055  -27.6285  -50.2580 C.3       16 UNK        -0.1800 
     92 C          -6.8723  -26.0992  -49.5363 C.2       16 UNK         0.5000 
     93 O          -7.8449  -26.5212  -50.1630 O.2       16 UNK        -0.5000 
     94 N          -6.6547  -24.8012  -49.2724 N.am      17 UNK        -0.5000 
     95 CA         -7.3979  -23.6513  -49.8017 C.3       17 UNK         0.1400 
     96 CB         -8.8532  -23.6363  -49.2905 C.3       17 UNK        -0.1800 
     97 C          -7.2843  -23.5559  -51.3402 C.2       17 UNK         0.5000 
     98 O          -8.2554  -23.2287  -52.0245 O.2       17 UNK        -0.5000 
     99 N          -6.0879  -23.8653  -51.8515 N.am      18 UNK        -0.5000 
    100 CA        -5.7465  -23.9335  -53.2654 C.3       18 UNK         0.1400 
    101 CB        -4.9649  -25.2351  -53.5172 C.3       18 UNK        -0.1800 
    102 C         -4.9223  -22.6883  -53.6133 C.2       18 UNK         0.5000 
    103 O         -3.7082  -22.6822  -53.4064 O.2       18 UNK        -0.5000 
    104 N         -5.6156  -21.6406  -54.0828 N.am      19 UNK        -0.5000 
    105 CA        -5.0866  -20.3034  -54.3902 C.3       19 UNK         0.1400 
    106 CB        -4.0803  -20.3550  -55.5594 C.3       19 UNK        -0.1800 
    107 C         -4.5294  -19.5805  -53.1437 C.2       19 UNK         0.5000 
    108 O         -3.5634  -18.8231  -53.2406 O.2       19 UNK        -0.5000 
    109 N         -5.1646  -19.8321  -51.9901 N.am      20 UNK        -0.5000 
    110 CA        -4.7904  -19.2915  -50.6830 C.3       20 UNK         0.1400 
    111 CB        -5.5642  -20.0503  -49.5975 C.3       20 UNK        -0.1800 
    112 C         -5.0398  -17.7801  -50.5462 C.2       20 UNK         0.5000 
    113 O         -4.3472  -17.1241  -49.7714 O.2       20 UNK        -0.5000 
    114 N         -6.0062  -17.2465  -51.3063 N.am      21 UNK        -0.5000 
    115 CA        -6.3857  -15.8312  -51.3468 C.3       21 UNK         0.1400 
    116 CB        -7.8516  -15.7292  -51.8054 C.3       21 UNK        -0.1800 
    117 C         -5.4277  -14.9912  -52.2224 C.2       21 UNK         0.5000 
    118 O         -5.8740  -14.1991  -53.0538 O.2       21 UNK        -0.5000 
    119 N         -4.1222  -15.1939  -52.0287 N.am      22 UNK        -0.5000 
    120 CA        -3.0193  -14.5686  -52.7709 C.3       22 UNK         0.1400 
    121 C         -2.5825  -13.1643  -52.2517 C.2       22 UNK         0.5000 
    122 N         -3.2722  -12.5580  -51.2917 N.am      22 UNK        -0.7600 
    123 O         -1.6158  -12.5941  -52.7485 O.2       22 UNK        -0.5000 
    124 C124       -1.8349  -15.5564  -52.9322 C.3       23 UNK        -0.0398 
    125 S125       -1.1995  -16.2276  -51.3586 S.3       23 UNK        -0.2404 
    126 C126       -0.0331  -17.4732  -51.9996 C.3       23 UNK        -0.0205 
    127 H127        6.0083  -12.9803  -53.4540 H         1 UNK         0.0600 
    128 H128        6.3360  -11.2465  -53.5260 H         1 UNK         0.0600 
    129 H129        4.8572  -11.8975  -54.2414 H         1 UNK         0.0600 
    130 H130        5.2708  -13.6539  -51.4583 H         1 UNK         0.3000 
    131 H131        4.2473  -11.8069  -49.4801 H         1 UNK         0.0600 
    132 H132        4.2401  -13.7625  -47.9765 H         1 UNK         0.0800 
    133 H133        5.7646  -13.5430  -48.7551 H         1 UNK         0.0800 
    134 H134        2.7035  -15.5062  -48.2409 H         1 UNK         0.0800 
    135 H135        3.8410  -16.6735  -47.6122 H         1 UNK         0.0800 
    136 H136        1.5937  -15.9154  -50.4909 H         1 UNK         0.1150 
    137 H137        0.5695  -20.0190  -51.1683 H         1 UNK         0.1150 
    138 H138        3.5552  -18.9979  -48.2604 H         1 UNK         0.1150 
    139 H139        2.0385  -21.7601  -50.2184 H         1 UNK         0.0800 
    140 H140        3.3665  -21.3060  -49.1809 H         1 UNK         0.0800 
    141 H141        3.2678  -22.5827  -46.8515 H         1 UNK         0.0800 
    142 H142        2.7540  -23.5855  -48.1715 H         1 UNK         0.0800 
    143 H143        2.4532  -24.6868  -45.9652 H         1 UNK         0.0600 
    144 H144        1.1181  -22.2485  -45.2201 H         1 UNK         0.3000 
    145 H145       -0.5365  -22.4587  -43.1647 H         1 UNK         0.0600 
    146 H146       -0.0833  -22.7618  -40.7264 H         1 UNK         0.0600 
    147 H147       -0.4851  -24.2840  -41.5062 H         1 UNK         0.0600 
    148 H148        1.1870  -23.9274  -41.0969 H         1 UNK         0.0600 
    149 H149        0.8937  -20.7926  -43.0880 H         1 UNK         0.3000 
    150 H150        4.1476  -20.2523  -41.8550 H         1 UNK         0.0600 
    151 H151        4.5326  -20.8042  -44.2670 H         1 UNK         0.0600 
    152 H152        4.4012  -19.0689  -44.0234 H         1 UNK         0.0600 
    153 H153        3.0479  -19.9680  -44.7061 H         1 UNK         0.0600 
    154 H154        2.1329  -18.5245  -42.9329 H         1 UNK         0.3000 
    155 H155        0.3694  -17.9828  -39.8469 H         1 UNK         0.0600 
    156 H156        2.2950  -16.4127  -39.8618 H         1 UNK         0.0600 
    157 H157        0.8609  -15.6434  -40.5233 H         1 UNK         0.0600 
    158 H158        2.1406  -16.2029  -41.6000 H         1 UNK         0.0600 
    159 H159       -0.0820  -16.9934  -42.4806 H         1 UNK         0.3000 
    160 H160       -2.2909  -19.6202  -43.5405 H         1 UNK         0.0600 
    161 H161       -2.7675  -16.6815  -42.8087 H         1 UNK         0.0600 
    162 H162       -3.6601  -18.0503  -42.1536 H         1 UNK         0.0600 
    163 H163       -3.7768  -17.6662  -43.8649 H         1 UNK         0.0600 
    164 H164       -1.4797  -17.2429  -44.8544 H         1 UNK         0.3000 
    165 H165        1.4055  -18.5763  -46.5172 H         1 UNK         0.0600 
    166 H166       -0.0913  -17.3351  -48.2570 H         1 UNK         0.0600 
    167 H167       -0.4315  -19.0366  -47.9873 H         1 UNK         0.0600 
    168 H168       -1.4634  -17.8125  -47.2749 H         1 UNK         0.0600 
    169 H169        0.3947  -15.9356  -46.4430 H         1 UNK         0.3000 
    170 H170        2.0765  -14.7825  -43.5116 H         1 UNK         0.0600 
    171 H171        3.8040  -14.7077  -45.3595 H         1 UNK         0.0600 
    172 H172        2.5689  -14.0582  -46.4328 H         1 UNK         0.0600 
    173 H173        3.0648  -13.1514  -45.0112 H         1 UNK         0.0600 
    174 H174        0.3783  -13.6491  -45.5919 H         1 UNK         0.3000 
    175 H175       -2.6569  -14.0386  -43.7722 H         1 UNK         0.0600 
    176 H176       -1.6079  -11.9839  -42.8068 H         1 UNK         0.0600 
    177 H177       -0.9951  -11.5354  -44.3943 H         1 UNK         0.0600 
    178 H178       -2.7327  -11.5815  -44.0944 H         1 UNK         0.0600 
    179 H179       -2.0422  -12.7904  -46.2677 H         1 UNK         0.3000 
    180 H180       -2.2729  -15.6852  -48.3295 H         1 UNK         0.0600 
    181 H181       -4.6550  -15.1024  -47.7832 H         1 UNK         0.0600 
    182 H182       -4.2654  -13.3889  -47.8928 H         1 UNK         0.0600 
    183 H183       -4.1562  -14.4212  -49.3173 H         1 UNK         0.0600 
    184 H184       -2.1260  -13.0763  -49.1899 H         1 UNK         0.3000 
    185 H185       -0.0064  -12.5189  -50.2780 H         1 UNK         0.0600 
    186 H186       -1.2162  -10.9898  -48.7382 H         1 UNK         0.0600 
    187 H187        0.1250  -11.0206  -47.5994 H         1 UNK         0.0600 
    188 H188        0.3205  -10.2781  -49.1857 H         1 UNK         0.0600 
    189 H189        2.2035  -12.1087  -48.3420 H         1 UNK         0.3000 
    190 H190        1.9124  -25.8387  -48.0446 H         1 UNK         0.3000 
    191 H191       -0.4625  -27.2461  -47.8059 H         1 UNK         0.0600 
    192 H192        1.3547  -26.9342  -50.2532 H         1 UNK         0.0600 
    193 H193        0.1603  -28.2070  -50.0310 H         1 UNK         0.0600 
    194 H194        1.5443  -28.1134  -48.9547 H         1 UNK         0.0600 
    195 H195        0.1747  -24.4140  -49.8586 H         1 UNK         0.3000 
    196 H196       -2.2283  -24.4081  -51.3802 H         1 UNK         0.0600 
    197 H197       -0.2480  -23.0376  -51.9806 H         1 UNK         0.0600 
    198 H198       -0.4193  -22.0933  -50.5000 H         1 UNK         0.0600 
    199 H199       -1.6454  -21.9973  -51.7543 H         1 UNK         0.0600 
    200 H200       -1.3902  -22.8555  -48.2590 H         1 UNK         0.3000 
    201 H201       -3.9371  -21.5962  -47.8426 H         1 UNK         0.0600 
    202 H202       -3.0328  -21.1551  -45.5699 H         1 UNK         0.0600 
    203 H203       -1.6696  -22.2217  -45.8820 H         1 UNK         0.0600 
    204 H204       -1.8631  -20.7395  -46.8115 H         1 UNK         0.0600 
    205 H205       -2.4481  -24.6332  -46.6905 H         1 UNK         0.3000 
    206 H206       -4.5312  -25.4443  -44.9592 H         1 UNK         0.0600 
    207 H207       -2.2172  -26.3463  -44.8762 H         1 UNK         0.0600 
    208 H208       -3.3829  -27.6522  -45.0409 H         1 UNK         0.0600 
    209 H209       -2.4459  -27.1329  -46.4363 H         1 UNK         0.0600 
    210 H210       -3.9598  -26.2663  -48.4260 H         1 UNK         0.3000 
    211 H211       -6.3285  -27.9473  -48.6027 H         1 UNK         0.0600 
    212 H212       -5.6588  -28.1168  -50.9821 H         1 UNK         0.0600 
    213 H213       -4.2601  -28.3606  -49.9471 H         1 UNK         0.0600 
    214 H214       -4.4873  -26.8215  -50.7777 H         1 UNK         0.0600 
    215 H215       -5.8107  -24.5701  -48.7654 H         1 UNK         0.3000 
    216 H216       -6.9061  -22.7668  -49.3992 H         1 UNK         0.0600 
    217 H217       -9.3509  -22.7052  -49.5638 H         1 UNK         0.0600 
    218 H218       -8.8890  -23.7160  -48.2040 H         1 UNK         0.0600 
    219 H219       -9.4420  -24.4536  -49.7073 H         1 UNK         0.0600 
    220 H220       -5.3137  -23.9808  -51.2021 H         1 UNK         0.3000 
    221 H221       -6.6457  -23.9531  -53.8848 H         1 UNK         0.0600 
    222 H222       -4.0661  -25.2971  -52.9024 H         1 UNK         0.0600 
    223 H223       -5.5785  -26.1084  -53.2948 H         1 UNK         0.0600 
    224 H224       -4.6568  -25.3093  -54.5607 H         1 UNK         0.0600 
    225 H225       -6.6149  -21.7475  -54.1949 H         1 UNK         0.3000 
    226 H226       -5.9389  -19.7093  -54.7227 H         1 UNK         0.0600 
    227 H227       -4.5029  -20.8706  -56.4216 H         1 UNK         0.0600 
    228 H228       -3.8089  -19.3500  -55.8846 H         1 UNK         0.0600 
    229 H229       -3.1581  -20.8656  -55.2809 H         1 UNK         0.0600 
    230 H230       -5.9407  -20.4763  -52.0076 H         1 UNK         0.3000 
    231 H231       -3.7224  -19.4668  -50.5342 H         1 UNK         0.0600 
    232 H232       -5.3372  -21.1133  -49.6367 H         1 UNK         0.0600 
    233 H233       -6.6426  -19.9315  -49.7099 H         1 UNK         0.0600 
    234 H234       -5.2958  -19.6935  -48.6022 H         1 UNK         0.0600 
    235 H235       -6.4993  -17.8587  -51.9387 H         1 UNK         0.3000 
    236 H236       -6.3288  -15.4256  -50.3346 H         1 UNK         0.0600 
    237 H237       -8.5100  -16.3005  -51.1508 H         1 UNK         0.0600 
    238 H238       -8.1985  -14.6952  -51.7866 H         1 UNK         0.0600 
    239 H239       -7.9821  -16.1026  -52.8219 H         1 UNK         0.0600 
    240 H240       -3.8444  -15.8508  -51.3070 H         1 UNK         0.3000 
    241 H241       -3.3833  -14.3733  -53.7811 H         1 UNK         0.0600 
    242 H242       -3.0214  -11.6178  -51.0307 H         1 UNK         0.3800 
    243 H243       -4.1228  -12.9684  -50.9444 H         1 UNK         0.3800 
    244 H244       -2.1581  -16.3985  -53.5461 H         1 UNK         0.0800 
    245 H245       -1.0118  -15.0927  -53.4783 H         1 UNK         0.0800 
    246 H246        0.5195  -17.0563  -52.8425 H         1 UNK         0.0800 
    247 H247       -0.6016  -18.3223  -52.3831 H         1 UNK         0.0800 
@<TRIPOS>BOND
     1    1    2 1    
     2    1  127 1    
     3    1  128 1    
     4    1  129 1    
     5    2    3 2    
     6    2    4 am   BACKBONE|DICT|INTERRES
     7    4    5 1    
     8    4  130 1    
     9    5    6 1    
    10    5   65 1    
    11    5  131 1    
    12    6    7 1    
    13    6  132 1    
    14    6  133 1    
    15    7    8 1    
    16    8    9 1    
    17    8  134 1    
    18    8  135 1    
    19    9   10 ar   
    20    9   14 ar   
    21   10   11 ar   
    22   10  136 1    
    23   11   12 ar   
    24   11  126 1    
    25   12   13 ar   
    26   12  137 1    
    27   13   14 ar   
    28   13   15 1    
    29   14  138 1    
    30   15   16 1    
    31   15  139 1    
    32   15  140 1    
    33   16   17 1    
    34   17   18 1    
    35   17  141 1    
    36   17  142 1    
    37   18   19 1    
    38   18   67 1    
    39   18  143 1    
    40   19   20 am   BACKBONE|DICT|INTERRES
    41   19  144 1    
    42   20   21 2    
    43   20   22 1    
    44   22   23 1    
    45   22   24 1    
    46   22  145 1    
    47   23  146 1    
    48   23  147 1    
    49   23  148 1    
    50   24   25 am   BACKBONE|DICT|INTERRES
    51   24  149 1    
    52   25   26 2    
    53   25   27 1    
    54   27   28 1    
    55   27   29 1    
    56   27  150 1    
    57   28  151 1    
    58   28  152 1    
    59   28  153 1    
    60   29   30 am   BACKBONE|DICT|INTERRES
    61   29  154 1    
    62   30   31 2    
    63   30   32 1    
    64   32   33 1    
    65   32   34 1    
    66   32  155 1    
    67   33  156 1    
    68   33  157 1    
    69   33  158 1    
    70   34   35 am   BACKBONE|DICT|INTERRES
    71   34  159 1    
    72   35   36 2    
    73   35   37 1    
    74   37   38 1    
    75   37   39 1    
    76   37  160 1    
    77   38  161 1    
    78   38  162 1    
    79   38  163 1    
    80   39   40 am   BACKBONE|DICT|INTERRES
    81   39  164 1    
    82   40   41 2    
    83   40   42 1    
    84   42   43 1    
    85   42   44 1    
    86   42  165 1    
    87   43  166 1    
    88   43  167 1    
    89   43  168 1    
    90   44   45 am   BACKBONE|DICT|INTERRES
    91   44  169 1    
    92   45   46 2    
    93   45   47 1    
    94   47   48 1    
    95   47   49 1    
    96   47  170 1    
    97   48  171 1    
    98   48  172 1    
    99   48  173 1    
   100   49   50 am   BACKBONE|DICT|INTERRES
   101   49  174 1    
   102   50   51 2    
   103   50   52 1    
   104   52   53 1    
   105   52   54 1    
   106   52  175 1    
   107   53  176 1    
   108   53  177 1    
   109   53  178 1    
   110   54   55 am   BACKBONE|DICT|INTERRES
   111   54  179 1    
   112   55   56 2    
   113   55   57 1    
   114   57   58 1    
   115   57   59 1    
   116   57  180 1    
   117   58  181 1    
   118   58  182 1    
   119   58  183 1    
   120   59   60 am   BACKBONE|DICT|INTERRES
   121   59  184 1    
   122   60   61 2    
   123   60   62 1    
   124   62   63 1    
   125   62   64 1    
   126   62  185 1    
   127   63  186 1    
   128   63  187 1    
   129   63  188 1    
   130   64   65 am   BACKBONE|DICT|INTERRES
   131   64  189 1    
   132   65   66 2    
   133   67   68 2    
   134   67   69 am   BACKBONE|DICT|INTERRES
   135   69   70 1    
   136   69  190 1    
   137   70   71 1    
   138   70   72 1    
   139   70  191 1    
   140   71  192 1    
   141   71  193 1    
   142   71  194 1    
   143   72   73 2    
   144   72   74 am   BACKBONE|DICT|INTERRES
   145   74   75 1    
   146   74  195 1    
   147   75   76 1    
   148   75   77 1    
   149   75  196 1    
   150   76  197 1    
   151   76  198 1    
   152   76  199 1    
   153   77   78 2    
   154   77   79 am   BACKBONE|DICT|INTERRES
   155   79   80 1    
   156   79  200 1    
   157   80   81 1    
   158   80   82 1    
   159   80  201 1    
   160   81  202 1    
   161   81  203 1    
   162   81  204 1    
   163   82   83 2    
   164   82   84 am   BACKBONE|DICT|INTERRES
   165   84   85 1    
   166   84  205 1    
   167   85   86 1    
   168   85   87 1    
   169   85  206 1    
   170   86  207 1    
   171   86  208 1    
   172   86  209 1    
   173   87   88 2    
   174   87   89 am   BACKBONE|DICT|INTERRES
   175   89   90 1    
   176   89  210 1    
   177   90   91 1    
   178   90   92 1    
   179   90  211 1    
   180   91  212 1    
   181   91  213 1    
   182   91  214 1    
   183   92   93 2    
   184   92   94 am   BACKBONE|DICT|INTERRES
   185   94   95 1    
   186   94  215 1    
   187   95   96 1    
   188   95   97 1    
   189   95  216 1    
   190   96  217 1    
   191   96  218 1    
   192   96  219 1    
   193   97   98 2    
   194   97   99 am   BACKBONE|DICT|INTERRES
   195   99  100 1    
   196   99  220 1    
   197  100  101 1    
   198  100  102 1    
   199  100  221 1    
   200  101  222 1    
   201  101  223 1    
   202  101  224 1    
   203  102  103 2    
   204  102  104 am   BACKBONE|DICT|INTERRES
   205  104  105 1    
   206  104  225 1    
   207  105  106 1    
   208  105  107 1    
   209  105  226 1    
   210  106  227 1    
   211  106  228 1    
   212  106  229 1    
   213  107  108 2    
   214  107  109 am   BACKBONE|DICT|INTERRES
   215  109  110 1    
   216  109  230 1    
   217  110  111 1    
   218  110  112 1    
   219  110  231 1    
   220  111  232 1    
   221  111  233 1    
   222  111  234 1    
   223  112  113 2    
   224  112  114 am   BACKBONE|DICT|INTERRES
   225  114  115 1    
   226  114  235 1    
   227  115  116 1    
   228  115  117 1    
   229  115  236 1    
   230  116  237 1    
   231  116  238 1    
   232  116  239 1    
   233  117  118 2    
   234  117  119 am   BACKBONE|DICT|INTERRES
   235  119  120 1    
   236  119  240 1    
   237  120  121 1    
   238  120  124 1    
   239  120  241 1    
   240  121  122 am   BACKBONE|DICT|INTERRES
   241  121  123 2    
   242  122  242 1    
   243  122  243 1    
   244  124  125 1    
   245  124  244 1    
   246  124  245 1    
   247  125  126 1    
   248  126  246 1    
   249  126  247 1    
@<TRIPOS>SUBSTRUCTURE
     1 UNK         1 GROUP             0       ****    0 ROOT    
