@<TRIPOS>MOLECULE
3R540
247   249    1
SMALL
USER_CHARGES


@<TRIPOS>ATOM
      1 CA          4.1589  -13.9294  -43.6112 C.3       0 UNK        -0.1800 
      2 C           3.2300  -13.8059  -44.8088 C.2       0 UNK         0.5000 
      3 O           2.3890  -12.9101  -44.8471 O.2       0 UNK        -0.5000 
      4 N           3.3782  -14.6909  -45.8031 N.am      1 UNK        -0.5000 
      5 CA          2.5641  -14.7221  -47.0260 C.3       1 UNK         0.1400 
      6 C6          2.6930  -16.0551  -47.8007 C.3       23 UNK        -0.0398 
      7 S7          4.4150  -16.5728  -48.1238 S.3       23 UNK        -0.2404 
      8 C8          4.2923  -17.2168  -49.8226 C.3       23 UNK        -0.0205 
      9 C9          3.2970  -18.3641  -49.9305 C.ar      23 UNK        -0.0193 
     10 C10         2.0599  -18.1646  -50.5519 C.ar      23 UNK        -0.1150 
     11 C11         1.1421  -19.2126  -50.6592 C.ar      23 UNK        -0.0193 
     12 C12         1.4700  -20.4650  -50.1369 C.ar      23 UNK        -0.1150 
     13 C13         2.7014  -20.6812  -49.5151 C.ar      23 UNK        -0.0193 
     14 C14         3.6149  -19.6266  -49.4192 C.ar      23 UNK        -0.1150 
     15 C15         3.0492  -22.0709  -49.0011 C.3       23 UNK        -0.0205 
     16 S16         3.4705  -22.1087  -47.2315 S.3       23 UNK        -0.2404 
     17 C17         1.8537  -21.7877  -46.4534 C.3       23 UNK        -0.0398 
     18 CA          1.3316  -22.9912  -45.6132 C.3       11 UNK         0.1400 
     19 N           0.8383  -22.5221  -44.3122 N.am      11 UNK        -0.5000 
     20 C           0.8442  -23.2025  -43.1592 C.2       10 UNK         0.5000 
     21 O           1.2413  -24.3620  -43.0523 O.2       10 UNK        -0.5000 
     22 CA          0.2711  -22.4718  -41.9328 C.3       10 UNK         0.1400 
     23 CB          1.3495  -21.5990  -41.2718 C.3       10 UNK        -0.1800 
     24 N          -0.8688  -21.6316  -42.3044 N.am      10 UNK        -0.5000 
     25 C          -2.1432  -22.0460  -42.3264 C.2       9 UNK         0.5000 
     26 O          -2.5014  -23.1669  -41.9649 O.2       9 UNK        -0.5000 
     27 CA         -3.1990  -21.0480  -42.8462 C.3       9 UNK         0.1400 
     28 CB         -3.7687  -20.2150  -41.6885 C.3       9 UNK        -0.1800 
     29 N          -2.6881  -20.1431  -43.8781 N.am      9 UNK        -0.5000 
     30 C          -2.2998  -20.5274  -45.1022 C.2       8 UNK         0.5000 
     31 O          -2.4079  -21.6767  -45.5175 O.2       8 UNK        -0.5000 
     32 CA         -1.6329  -19.4706  -46.0037 C.3       8 UNK         0.1400 
     33 CB         -2.6548  -18.9053  -47.0016 C.3       8 UNK        -0.1800 
     34 N          -0.9736  -18.3772  -45.2737 N.am      8 UNK        -0.5000 
     35 C           0.0142  -18.5508  -44.3782 C.2       7 UNK         0.5000 
     36 O           0.4407  -19.6644  -44.0701 O.2       7 UNK        -0.5000 
     37 CA          0.6304  -17.3167  -43.6894 C.3       7 UNK         0.1400 
     38 CB          2.1522  -17.2843  -43.8958 C.3       7 UNK        -0.1800 
     39 N           0.0505  -16.0420  -44.1181 N.am      7 UNK        -0.5000 
     40 C          -1.0787  -15.5175  -43.6223 C.2       6 UNK         0.5000 
     41 O          -1.7466  -16.0540  -42.7378 O.2       6 UNK        -0.5000 
     42 CA         -1.5622  -14.1870  -44.2371 C.3       6 UNK         0.1400 
     43 CB         -1.0239  -12.9984  -43.4272 C.3       6 UNK        -0.1800 
     44 N          -1.2239  -14.0084  -45.6560 N.am      6 UNK        -0.5000 
     45 C          -1.6205  -14.8298  -46.6407 C.2       5 UNK         0.5000 
     46 O          -2.2600  -15.8593  -46.4305 O.2       5 UNK        -0.5000 
     47 CA         -1.2023  -14.4788  -48.0848 C.3       5 UNK         0.1400 
     48 CB         -2.1538  -15.0746  -49.1437 C.3       5 UNK        -0.1800 
     49 N          -0.9802  -13.0471  -48.3189 N.am      5 UNK        -0.5000 
     50 C          -1.8989  -12.0705  -48.2749 C.2       4 UNK         0.5000 
     51 O          -3.0776  -12.2508  -47.9638 O.2       4 UNK        -0.5000 
     52 CA         -1.4010  -10.6572  -48.6504 C.3       4 UNK         0.1400 
     53 CB         -2.4813   -9.5700  -48.4685 C.3       4 UNK        -0.1800 
     54 N          -0.1664  -10.2663  -47.9595 N.am      4 UNK        -0.5000 
     55 C           0.0336  -10.1900  -46.6360 C.2       3 UNK         0.5000 
     56 O          -0.8051  -10.5210  -45.7979 O.2       3 UNK        -0.5000 
     57 CA          1.4140   -9.6682  -46.1886 C.3       3 UNK         0.1400 
     58 CB          1.5552   -9.5864  -44.6575 C.3       3 UNK        -0.1800 
     59 N           2.4805  -10.5134  -46.7226 N.am      3 UNK        -0.5000 
     60 C           3.0522  -10.3674  -47.9274 C.2       2 UNK         0.5000 
     61 O           2.7612   -9.4599  -48.7074 O.2       2 UNK        -0.5000 
     62 CA          4.0824  -11.4328  -48.3587 C.3       2 UNK         0.1400 
     63 CB          5.5079  -10.9707  -48.0219 C.3       2 UNK        -0.1800 
     64 N           3.8471  -12.7408  -47.7456 N.am      2 UNK        -0.5000 
     65 C           2.7531  -13.4906  -47.9393 C.2       1 UNK         0.5000 
     66 O           1.8734  -13.2092  -48.7542 O.2       1 UNK        -0.5000 
     67 C           0.2836  -23.8432  -46.3785 C.2       11 UNK         0.5000 
     68 O           0.3961  -23.9940  -47.5953 O.2       11 UNK        -0.5000 
     69 N          -0.7271  -24.3553  -45.6590 N.am      12 UNK        -0.5000 
     70 CA         -2.0076  -24.8893  -46.1321 C.3       12 UNK         0.1400 
     71 CB         -2.7390  -25.5579  -44.9595 C.3       12 UNK        -0.1800 
     72 C          -1.9704  -25.8312  -47.3442 C.2       12 UNK         0.5000 
     73 O          -2.7865  -25.6618  -48.2510 O.2       12 UNK        -0.5000 
     74 N          -1.0419  -26.7957  -47.3428 N.am      13 UNK        -0.5000 
     75 CA         -0.9040  -27.8022  -48.3974 C.3       13 UNK         0.1400 
     76 CB          0.0993  -28.8773  -47.9523 C.3       13 UNK        -0.1800 
     77 C          -0.4958  -27.1953  -49.7514 C.2       13 UNK         0.5000 
     78 O          -1.1217  -27.4908  -50.7701 O.2       13 UNK        -0.5000 
     79 N           0.5249  -26.3296  -49.7277 N.am      14 UNK        -0.5000 
     80 CA          1.0222  -25.6098  -50.9008 C.3       14 UNK         0.1400 
     81 CB          2.4903  -25.2203  -50.6708 C.3       14 UNK        -0.1800 
     82 C           0.1405  -24.4004  -51.2717 C.2       14 UNK         0.5000 
     83 O           0.1051  -24.0167  -52.4396 O.2       14 UNK        -0.5000 
     84 N          -0.6006  -23.8645  -50.2923 N.am      15 UNK        -0.5000 
     85 CA         -1.6257  -22.8314  -50.4573 C.3       15 UNK         0.1400 
     86 CB         -1.8068  -22.0913  -49.1208 C.3       15 UNK        -0.1800 
     87 C          -2.9774  -23.3706  -50.9757 C.2       15 UNK         0.5000 
     88 O          -3.9541  -22.6235  -50.9611 O.2       15 UNK        -0.5000 
     89 N          -3.0283  -24.6408  -51.4065 N.am      16 UNK        -0.5000 
     90 CA         -4.1763  -25.3255  -52.0107 C.3       16 UNK         0.1400 
     91 CB         -4.5190  -24.7001  -53.3792 C.3       16 UNK        -0.1800 
     92 C          -5.3885  -25.3982  -51.0606 C.2       16 UNK         0.5000 
     93 O          -6.4811  -24.9443  -51.4047 O.2       16 UNK        -0.5000 
     94 N          -5.1470  -25.9630  -49.8700 N.am      17 UNK        -0.5000 
     95 CA         -6.0660  -26.0764  -48.7336 C.3       17 UNK         0.1400 
     96 CB         -7.3426  -26.8665  -49.0943 C.3       17 UNK        -0.1800 
     97 C          -6.3412  -24.7053  -48.0861 C.2       17 UNK         0.5000 
     98 O          -7.4872  -24.3832  -47.7675 O.2       17 UNK        -0.5000 
     99 N          -5.2568  -23.9407  -47.8903 N.am      18 UNK        -0.5000 
    100 CA        -5.1976  -22.6362  -47.2228 C.3       18 UNK         0.1400 
    101 CB        -5.5068  -22.7834  -45.7177 C.3       18 UNK        -0.1800 
    102 C         -6.0457  -21.5435  -47.9034 C.2       18 UNK         0.5000 
    103 O         -6.7056  -20.7583  -47.2191 O.2       18 UNK        -0.5000 
    104 N         -6.0106  -21.4969  -49.2402 N.am      19 UNK        -0.5000 
    105 CA        -6.6519  -20.4494  -50.0256 C.3       19 UNK         0.1400 
    106 CB        -6.9113  -20.9689  -51.4491 C.3       19 UNK        -0.1800 
    107 C         -5.7520  -19.2051  -50.0639 C.2       19 UNK         0.5000 
    108 O         -4.5591  -19.3250  -50.3499 O.2       19 UNK        -0.5000 
    109 N         -6.3425  -18.0217  -49.8505 N.am      20 UNK        -0.5000 
    110 CA        -5.6596  -16.7291  -49.9938 C.3       20 UNK         0.1400 
    111 CB        -6.5457  -15.6174  -49.4131 C.3       20 UNK        -0.1800 
    112 C         -5.2789  -16.4169  -51.4565 C.2       20 UNK         0.5000 
    113 O         -4.3221  -15.6825  -51.6991 O.2       20 UNK        -0.5000 
    114 N         -6.0145  -17.0187  -52.4021 N.am      21 UNK        -0.5000 
    115 CA        -5.7182  -17.0199  -53.8342 C.3       21 UNK         0.1400 
    116 CB        -6.9929  -17.4180  -54.5953 C.3       21 UNK        -0.1800 
    117 C         -4.5487  -17.9538  -54.2152 C.2       21 UNK         0.5000 
    118 O         -4.0646  -17.8674  -55.3440 O.2       21 UNK        -0.5000 
    119 N         -4.1177  -18.8250  -53.2886 N.am      22 UNK        -0.5000 
    120 CA        -3.0122  -19.7853  -53.4453 C.3       22 UNK         0.1400 
    121 C         -3.3140  -20.9848  -54.3986 C.2       22 UNK         0.5000 
    122 N         -4.5602  -21.2191  -54.7932 N.am      22 UNK        -0.7600 
    123 O         -2.4151  -21.7293  -54.7772 O.2       22 UNK        -0.5000 
    124 C124       -1.6665  -19.0658  -53.7550 C.3       23 UNK        -0.0398 
    125 S125       -0.2188  -19.8449  -52.9701 S.3       23 UNK        -0.2404 
    126 C126       -0.1921  -19.0015  -51.3571 C.3       23 UNK        -0.0205 
    127 H127        3.5764  -14.0541  -42.6984 H         1 UNK         0.0600 
    128 H128        4.7628  -13.0277  -43.5112 H         1 UNK         0.0600 
    129 H129        4.8305  -14.7829  -43.7064 H         1 UNK         0.0600 
    130 H130        4.1041  -15.3925  -45.7483 H         1 UNK         0.3000 
    131 H131        1.5280  -14.6628  -46.6912 H         1 UNK         0.0600 
    132 H132        2.2130  -16.8562  -47.2385 H         1 UNK         0.0800 
    133 H133        2.1392  -15.9970  -48.7387 H         1 UNK         0.0800 
    134 H134        4.0216  -16.4025  -50.4967 H         1 UNK         0.0800 
    135 H135        5.2765  -17.5623  -50.1419 H         1 UNK         0.0800 
    136 H136        1.8143  -17.1943  -50.9601 H         1 UNK         0.1150 
    137 H137        0.7755  -21.2829  -50.2466 H         1 UNK         0.1150 
    138 H138        4.5731  -19.7879  -48.9452 H         1 UNK         0.1150 
    139 H139        2.2115  -22.7470  -49.1662 H         1 UNK         0.0800 
    140 H140        3.8892  -22.4613  -49.5767 H         1 UNK         0.0800 
    141 H141        1.1270  -21.4573  -47.1974 H         1 UNK         0.0800 
    142 H142        2.0146  -20.9157  -45.8184 H         1 UNK         0.0800 
    143 H143        2.1684  -23.6633  -45.4128 H         1 UNK         0.0600 
    144 H144        0.5193  -21.5581  -44.2862 H         1 UNK         0.3000 
    145 H145       -0.0450  -23.2241  -41.2070 H         1 UNK         0.0600 
    146 H146        0.9624  -21.1031  -40.3816 H         1 UNK         0.0600 
    147 H147        2.2032  -22.2030  -40.9622 H         1 UNK         0.0600 
    148 H148        1.7213  -20.8289  -41.9487 H         1 UNK         0.0600 
    149 H149       -0.6467  -20.7149  -42.6729 H         1 UNK         0.3000 
    150 H150       -4.0134  -21.6318  -43.2778 H         1 UNK         0.0600 
    151 H151       -4.1773  -20.8584  -40.9081 H         1 UNK         0.0600 
    152 H152       -4.5762  -19.5668  -42.0294 H         1 UNK         0.0600 
    153 H153       -3.0039  -19.5868  -41.2299 H         1 UNK         0.0600 
    154 H154       -2.5696  -19.1745  -43.6192 H         1 UNK         0.3000 
    155 H155       -0.8610  -19.9882  -46.5764 H         1 UNK         0.0600 
    156 H156       -3.1712  -19.7030  -47.5365 H         1 UNK         0.0600 
    157 H157       -3.4168  -18.3070  -46.5011 H         1 UNK         0.0600 
    158 H158       -2.1698  -18.2797  -47.7505 H         1 UNK         0.0600 
    159 H159       -1.3045  -17.4404  -45.4781 H         1 UNK         0.3000 
    160 H160        0.4524  -17.4388  -42.6189 H         1 UNK         0.0600 
    161 H161        2.4167  -17.2056  -44.9487 H         1 UNK         0.0600 
    162 H162        2.6197  -18.1923  -43.5124 H         1 UNK         0.0600 
    163 H163        2.6030  -16.4474  -43.3640 H         1 UNK         0.0600 
    164 H164        0.5393  -15.5323  -44.8371 H         1 UNK         0.3000 
    165 H165       -2.6514  -14.1790  -44.1613 H         1 UNK         0.0600 
    166 H166       -1.4878  -12.0647  -43.7438 H         1 UNK         0.0600 
    167 H167       -1.2379  -13.1173  -42.3643 H         1 UNK         0.0600 
    168 H168        0.0555  -12.8915  -43.5347 H         1 UNK         0.0600 
    169 H169       -0.7359  -13.1570  -45.8983 H         1 UNK         0.3000 
    170 H170       -0.2366  -14.9591  -48.2363 H         1 UNK         0.0600 
    171 H171       -3.1761  -14.7167  -49.0192 H         1 UNK         0.0600 
    172 H172       -1.8317  -14.8207  -50.1536 H         1 UNK         0.0600 
    173 H173       -2.1814  -16.1628  -49.0816 H         1 UNK         0.0600 
    174 H174       -0.0259  -12.8022  -48.5694 H         1 UNK         0.3000 
    175 H175       -1.1563  -10.6978  -49.7127 H         1 UNK         0.0600 
    176 H176       -2.1146   -8.5933  -48.7839 H         1 UNK         0.0600 
    177 H177       -2.8027   -9.4880  -47.4297 H         1 UNK         0.0600 
    178 H178       -3.3650   -9.7922  -49.0679 H         1 UNK         0.0600 
    179 H179        0.6064   -9.9977  -48.5571 H         1 UNK         0.3000 
    180 H180        1.5205   -8.6543  -46.5800 H         1 UNK         0.0600 
    181 H181        1.4120  -10.5573  -44.1828 H         1 UNK         0.0600 
    182 H182        0.8159   -8.9051  -44.2348 H         1 UNK         0.0600 
    183 H183        2.5393   -9.2155  -44.3712 H         1 UNK         0.0600 
    184 H184        2.7134  -11.3255  -46.1615 H         1 UNK         0.3000 
    185 H185        4.0044  -11.5490  -49.4417 H         1 UNK         0.0600 
    186 H186        5.6507  -10.8570  -46.9464 H         1 UNK         0.0600 
    187 H187        6.2498  -11.6812  -48.3868 H         1 UNK         0.0600 
    188 H188        5.7260  -10.0078  -48.4858 H         1 UNK         0.0600 
    189 H189        4.5191  -13.0485  -47.0581 H         1 UNK         0.3000 
    190 H190       -0.6849  -24.1820  -44.6660 H         1 UNK         0.3000 
    191 H191       -2.6042  -24.0313  -46.4353 H         1 UNK         0.0600 
    192 H192       -2.9249  -24.8458  -44.1554 H         1 UNK         0.0600 
    193 H193       -3.7079  -25.9504  -45.2719 H         1 UNK         0.0600 
    194 H194       -2.1638  -26.3873  -44.5463 H         1 UNK         0.0600 
    195 H195       -0.3999  -26.8484  -46.5656 H         1 UNK         0.3000 
    196 H196       -1.8759  -28.2824  -48.5310 H         1 UNK         0.0600 
    197 H197        0.2143  -29.6450  -48.7186 H         1 UNK         0.0600 
    198 H198       -0.2361  -29.3759  -47.0427 H         1 UNK         0.0600 
    199 H199        1.0864  -28.4556  -47.7589 H         1 UNK         0.0600 
    200 H200        0.9330  -26.0850  -48.8360 H         1 UNK         0.3000 
    201 H201        0.9976  -26.2824  -51.7612 H         1 UNK         0.0600 
    202 H202        3.1407  -26.0850  -50.8026 H         1 UNK         0.0600 
    203 H203        2.6571  -24.8469  -49.6620 H         1 UNK         0.0600 
    204 H204        2.8214  -24.4565  -51.3759 H         1 UNK         0.0600 
    205 H205       -0.4516  -24.1970  -49.3443 H         1 UNK         0.3000 
    206 H206       -1.2767  -22.1100  -51.1977 H         1 UNK         0.0600 
    207 H207       -0.8728  -21.6636  -48.7612 H         1 UNK         0.0600 
    208 H208       -2.5192  -21.2715  -49.2178 H         1 UNK         0.0600 
    209 H209       -2.1738  -22.7627  -48.3477 H         1 UNK         0.0600 
    210 H210       -2.1864  -25.1933  -51.3250 H         1 UNK         0.3000 
    211 H211       -3.8604  -26.3542  -52.1903 H         1 UNK         0.0600 
    212 H212       -4.8933  -23.6812  -53.2757 H         1 UNK         0.0600 
    213 H213       -5.2882  -25.2794  -53.8909 H         1 UNK         0.0600 
    214 H214       -3.6453  -24.6697  -54.0303 H         1 UNK         0.0600 
    215 H215       -4.1865  -26.2105  -49.6561 H         1 UNK         0.3000 
    216 H216       -5.5338  -26.6591  -47.9803 H         1 UNK         0.0600 
    217 H217       -7.9284  -27.0822  -48.2002 H         1 UNK         0.0600 
    218 H218       -7.0977  -27.8212  -49.5596 H         1 UNK         0.0600 
    219 H219       -7.9889  -26.3147  -49.7770 H         1 UNK         0.0600 
    220 H220       -4.3713  -24.3179  -48.2083 H         1 UNK         0.3000 
    221 H221       -4.1688  -22.2945  -47.3125 H         1 UNK         0.0600 
    222 H222       -6.5307  -23.1136  -45.5421 H         1 UNK         0.0600 
    223 H223       -4.8357  -23.4981  -45.2435 H         1 UNK         0.0600 
    224 H224       -5.3786  -21.8321  -45.2010 H         1 UNK         0.0600 
    225 H225       -5.3797  -22.1081  -49.7525 H         1 UNK         0.3000 
    226 H226       -7.6136  -20.1936  -49.5756 H         1 UNK         0.0600 
    227 H227       -7.5217  -21.8722  -51.4330 H         1 UNK         0.0600 
    228 H228       -7.4415  -20.2268  -52.0468 H         1 UNK         0.0600 
    229 H229       -5.9831  -21.2072  -51.9698 H         1 UNK         0.0600 
    230 H230       -7.3230  -17.9919  -49.6094 H         1 UNK         0.3000 
    231 H231       -4.7353  -16.7679  -49.4132 H         1 UNK         0.0600 
    232 H232       -7.4940  -15.5372  -49.9459 H         1 UNK         0.0600 
    233 H233       -6.0479  -14.6488  -49.4791 H         1 UNK         0.0600 
    234 H234       -6.7640  -15.7970  -48.3602 H         1 UNK         0.0600 
    235 H235       -6.7965  -17.5827  -52.1053 H         1 UNK         0.3000 
    236 H236       -5.4405  -16.0073  -54.1340 H         1 UNK         0.0600 
    237 H237       -7.8107  -16.7292  -54.3824 H         1 UNK         0.0600 
    238 H238       -6.8280  -17.3988  -55.6735 H         1 UNK         0.0600 
    239 H239       -7.3228  -18.4237  -54.3317 H         1 UNK         0.0600 
    240 H240       -4.5434  -18.8209  -52.3697 H         1 UNK         0.3000 
    241 H241       -2.9252  -20.2420  -52.4586 H         1 UNK         0.0600 
    242 H242       -5.3134  -20.6219  -54.4965 H         1 UNK         0.3800 
    243 H243       -4.7450  -21.9962  -55.4067 H         1 UNK         0.3800 
    244 H244       -1.7005  -18.0277  -53.4220 H         1 UNK         0.0800 
    245 H245       -1.4951  -19.0121  -54.8314 H         1 UNK         0.0800 
    246 H246       -0.3800  -17.9353  -51.4922 H         1 UNK         0.0800 
    247 H247       -1.0019  -19.3824  -50.7325 H         1 UNK         0.0800 
@<TRIPOS>BOND
     1    1    2 1    
     2    1  127 1    
     3    1  128 1    
     4    1  129 1    
     5    2    3 2    
     6    2    4 am   BACKBONE|DICT|INTERRES
     7    4    5 1    
     8    4  130 1    
     9    5    6 1    
    10    5   65 1    
    11    5  131 1    
    12    6    7 1    
    13    6  132 1    
    14    6  133 1    
    15    7    8 1    
    16    8    9 1    
    17    8  134 1    
    18    8  135 1    
    19    9   10 ar   
    20    9   14 ar   
    21   10   11 ar   
    22   10  136 1    
    23   11   12 ar   
    24   11  126 1    
    25   12   13 ar   
    26   12  137 1    
    27   13   14 ar   
    28   13   15 1    
    29   14  138 1    
    30   15   16 1    
    31   15  139 1    
    32   15  140 1    
    33   16   17 1    
    34   17   18 1    
    35   17  141 1    
    36   17  142 1    
    37   18   19 1    
    38   18   67 1    
    39   18  143 1    
    40   19   20 am   BACKBONE|DICT|INTERRES
    41   19  144 1    
    42   20   21 2    
    43   20   22 1    
    44   22   23 1    
    45   22   24 1    
    46   22  145 1    
    47   23  146 1    
    48   23  147 1    
    49   23  148 1    
    50   24   25 am   BACKBONE|DICT|INTERRES
    51   24  149 1    
    52   25   26 2    
    53   25   27 1    
    54   27   28 1    
    55   27   29 1    
    56   27  150 1    
    57   28  151 1    
    58   28  152 1    
    59   28  153 1    
    60   29   30 am   BACKBONE|DICT|INTERRES
    61   29  154 1    
    62   30   31 2    
    63   30   32 1    
    64   32   33 1    
    65   32   34 1    
    66   32  155 1    
    67   33  156 1    
    68   33  157 1    
    69   33  158 1    
    70   34   35 am   BACKBONE|DICT|INTERRES
    71   34  159 1    
    72   35   36 2    
    73   35   37 1    
    74   37   38 1    
    75   37   39 1    
    76   37  160 1    
    77   38  161 1    
    78   38  162 1    
    79   38  163 1    
    80   39   40 am   BACKBONE|DICT|INTERRES
    81   39  164 1    
    82   40   41 2    
    83   40   42 1    
    84   42   43 1    
    85   42   44 1    
    86   42  165 1    
    87   43  166 1    
    88   43  167 1    
    89   43  168 1    
    90   44   45 am   BACKBONE|DICT|INTERRES
    91   44  169 1    
    92   45   46 2    
    93   45   47 1    
    94   47   48 1    
    95   47   49 1    
    96   47  170 1    
    97   48  171 1    
    98   48  172 1    
    99   48  173 1    
   100   49   50 am   BACKBONE|DICT|INTERRES
   101   49  174 1    
   102   50   51 2    
   103   50   52 1    
   104   52   53 1    
   105   52   54 1    
   106   52  175 1    
   107   53  176 1    
   108   53  177 1    
   109   53  178 1    
   110   54   55 am   BACKBONE|DICT|INTERRES
   111   54  179 1    
   112   55   56 2    
   113   55   57 1    
   114   57   58 1    
   115   57   59 1    
   116   57  180 1    
   117   58  181 1    
   118   58  182 1    
   119   58  183 1    
   120   59   60 am   BACKBONE|DICT|INTERRES
   121   59  184 1    
   122   60   61 2    
   123   60   62 1    
   124   62   63 1    
   125   62   64 1    
   126   62  185 1    
   127   63  186 1    
   128   63  187 1    
   129   63  188 1    
   130   64   65 am   BACKBONE|DICT|INTERRES
   131   64  189 1    
   132   65   66 2    
   133   67   68 2    
   134   67   69 am   BACKBONE|DICT|INTERRES
   135   69   70 1    
   136   69  190 1    
   137   70   71 1    
   138   70   72 1    
   139   70  191 1    
   140   71  192 1    
   141   71  193 1    
   142   71  194 1    
   143   72   73 2    
   144   72   74 am   BACKBONE|DICT|INTERRES
   145   74   75 1    
   146   74  195 1    
   147   75   76 1    
   148   75   77 1    
   149   75  196 1    
   150   76  197 1    
   151   76  198 1    
   152   76  199 1    
   153   77   78 2    
   154   77   79 am   BACKBONE|DICT|INTERRES
   155   79   80 1    
   156   79  200 1    
   157   80   81 1    
   158   80   82 1    
   159   80  201 1    
   160   81  202 1    
   161   81  203 1    
   162   81  204 1    
   163   82   83 2    
   164   82   84 am   BACKBONE|DICT|INTERRES
   165   84   85 1    
   166   84  205 1    
   167   85   86 1    
   168   85   87 1    
   169   85  206 1    
   170   86  207 1    
   171   86  208 1    
   172   86  209 1    
   173   87   88 2    
   174   87   89 am   BACKBONE|DICT|INTERRES
   175   89   90 1    
   176   89  210 1    
   177   90   91 1    
   178   90   92 1    
   179   90  211 1    
   180   91  212 1    
   181   91  213 1    
   182   91  214 1    
   183   92   93 2    
   184   92   94 am   BACKBONE|DICT|INTERRES
   185   94   95 1    
   186   94  215 1    
   187   95   96 1    
   188   95   97 1    
   189   95  216 1    
   190   96  217 1    
   191   96  218 1    
   192   96  219 1    
   193   97   98 2    
   194   97   99 am   BACKBONE|DICT|INTERRES
   195   99  100 1    
   196   99  220 1    
   197  100  101 1    
   198  100  102 1    
   199  100  221 1    
   200  101  222 1    
   201  101  223 1    
   202  101  224 1    
   203  102  103 2    
   204  102  104 am   BACKBONE|DICT|INTERRES
   205  104  105 1    
   206  104  225 1    
   207  105  106 1    
   208  105  107 1    
   209  105  226 1    
   210  106  227 1    
   211  106  228 1    
   212  106  229 1    
   213  107  108 2    
   214  107  109 am   BACKBONE|DICT|INTERRES
   215  109  110 1    
   216  109  230 1    
   217  110  111 1    
   218  110  112 1    
   219  110  231 1    
   220  111  232 1    
   221  111  233 1    
   222  111  234 1    
   223  112  113 2    
   224  112  114 am   BACKBONE|DICT|INTERRES
   225  114  115 1    
   226  114  235 1    
   227  115  116 1    
   228  115  117 1    
   229  115  236 1    
   230  116  237 1    
   231  116  238 1    
   232  116  239 1    
   233  117  118 2    
   234  117  119 am   BACKBONE|DICT|INTERRES
   235  119  120 1    
   236  119  240 1    
   237  120  121 1    
   238  120  124 1    
   239  120  241 1    
   240  121  122 am   BACKBONE|DICT|INTERRES
   241  121  123 2    
   242  122  242 1    
   243  122  243 1    
   244  124  125 1    
   245  124  244 1    
   246  124  245 1    
   247  125  126 1    
   248  126  246 1    
   249  126  247 1    
@<TRIPOS>SUBSTRUCTURE
     1 UNK         1 GROUP             0       ****    0 ROOT    
