@<TRIPOS>MOLECULE
3R540
247   249    1
SMALL
USER_CHARGES


@<TRIPOS>ATOM
      1 CA         -0.0846  -11.5279  -41.9017 C.3       0 UNK        -0.1800 
      2 C          -0.2564  -11.2716  -43.3925 C.2       0 UNK         0.5000 
      3 O           0.3279  -10.3289  -43.9269 O.2       0 UNK        -0.5000 
      4 N          -1.0574  -12.1051  -44.0676 N.am      1 UNK        -0.5000 
      5 CA         -1.2048  -12.1239  -45.5253 C.3       1 UNK         0.1400 
      6 C6         -2.4342  -12.9582  -45.9537 C.3       23 UNK        -0.0398 
      7 S7         -3.0956  -12.4366  -47.5718 S.3       23 UNK        -0.2404 
      8 C8         -3.6122  -14.0285  -48.2848 C.3       23 UNK        -0.0205 
      9 C9         -2.5687  -14.5960  -49.2349 C.ar      23 UNK        -0.0193 
     10 C10        -2.7753  -14.5310  -50.6164 C.ar      23 UNK        -0.1150 
     11 C11        -1.8555  -15.1017  -51.4998 C.ar      23 UNK        -0.0193 
     12 C12        -0.7078  -15.7179  -50.9950 C.ar      23 UNK        -0.1150 
     13 C13        -0.4893  -15.7890  -49.6169 C.ar      23 UNK        -0.0193 
     14 C14        -1.4213  -15.2239  -48.7409 C.ar      23 UNK        -0.1150 
     15 C15         0.7321  -16.5161  -49.0744 C.3       23 UNK        -0.0205 
     16 S16         0.6256  -18.3138  -49.3487 S.3       23 UNK        -0.2404 
     17 C17        -0.9754  -18.6852  -48.5574 C.3       23 UNK        -0.0398 
     18 CA         -1.0984  -20.1672  -48.1402 C.3       11 UNK         0.1400 
     19 N          -0.1830  -20.5082  -47.0505 N.am      11 UNK        -0.5000 
     20 C           0.2396  -21.7450  -46.7663 C.2       10 UNK         0.5000 
     21 O          -0.0788  -22.7420  -47.4131 O.2       10 UNK        -0.5000 
     22 CA          1.1372  -21.8997  -45.5245 C.3       10 UNK         0.1400 
     23 CB          2.6063  -21.6331  -45.8838 C.3       10 UNK        -0.1800 
     24 N           0.7384  -21.0390  -44.4060 N.am      10 UNK        -0.5000 
     25 C          -0.4491  -21.1029  -43.7860 C.2       9 UNK         0.5000 
     26 O          -1.3411  -21.8871  -44.1092 O.2       9 UNK        -0.5000 
     27 CA         -0.7029  -20.1027  -42.6443 C.3       9 UNK         0.1400 
     28 CB          0.0774  -20.4976  -41.3815 C.3       9 UNK        -0.1800 
     29 N          -0.3695  -18.7303  -43.0186 N.am      9 UNK        -0.5000 
     30 C          -1.0092  -18.0157  -43.9559 C.2       8 UNK         0.5000 
     31 O          -1.9971  -18.4145  -44.5714 O.2       8 UNK        -0.5000 
     32 CA         -0.4105  -16.6377  -44.2956 C.3       8 UNK         0.1400 
     33 CB         -0.8193  -15.5962  -43.2423 C.3       8 UNK        -0.1800 
     34 N           1.0485  -16.6702  -44.4165 N.am      8 UNK        -0.5000 
     35 C           1.7245  -17.4564  -45.2668 C.2       7 UNK         0.5000 
     36 O           1.1901  -18.2342  -46.0533 O.2       7 UNK        -0.5000 
     37 CA          3.2564  -17.4270  -45.1730 C.3       7 UNK         0.1400 
     38 CB          3.8332  -16.2041  -45.9025 C.3       7 UNK        -0.1800 
     39 N           3.7042  -17.4596  -43.7804 N.am      7 UNK        -0.5000 
     40 C           3.5599  -18.5226  -42.9732 C.2       6 UNK         0.5000 
     41 O           3.0931  -19.6013  -43.3383 O.2       6 UNK        -0.5000 
     42 CA          3.9579  -18.3345  -41.4982 C.3       6 UNK         0.1400 
     43 CB          5.4714  -18.5219  -41.3162 C.3       6 UNK        -0.1800 
     44 N           3.5643  -17.0252  -40.9786 N.am      6 UNK        -0.5000 
     45 C           2.2962  -16.6151  -40.8278 C.2       5 UNK         0.5000 
     46 O           1.3182  -17.3312  -41.0392 O.2       5 UNK        -0.5000 
     47 CA          2.0918  -15.1417  -40.4225 C.3       5 UNK         0.1400 
     48 CB          2.0188  -15.0039  -38.8951 C.3       5 UNK        -0.1800 
     49 N           3.1454  -14.2636  -40.9418 N.am      5 UNK        -0.5000 
     50 C           3.3402  -14.0184  -42.2438 C.2       4 UNK         0.5000 
     51 O           2.6205  -14.4718  -43.1348 O.2       4 UNK        -0.5000 
     52 CA          4.5943  -13.2124  -42.6101 C.3       4 UNK         0.1400 
     53 CB          5.7141  -14.1493  -43.0883 C.3       4 UNK        -0.1800 
     54 N           4.3035  -12.2439  -43.6618 N.am      4 UNK        -0.5000 
     55 C           3.8410  -11.0106  -43.4407 C.2       3 UNK         0.5000 
     56 O           3.6094  -10.5647  -42.3158 O.2       3 UNK        -0.5000 
     57 CA          3.6202  -10.1065  -44.6666 C.3       3 UNK         0.1400 
     58 CB          4.9541   -9.5514  -45.2025 C.3       3 UNK        -0.1800 
     59 N           2.8129  -10.7019  -45.7368 N.am      3 UNK        -0.5000 
     60 C           3.0995  -11.7064  -46.5782 C.2       2 UNK         0.5000 
     61 O           4.1442  -12.3591  -46.5415 O.2       2 UNK        -0.5000 
     62 CA          2.0200  -12.0025  -47.6456 C.3       2 UNK         0.1400 
     63 CB          2.2229  -13.3476  -48.3738 C.3       2 UNK        -0.1800 
     64 N           0.6594  -11.8656  -47.1063 N.am      2 UNK        -0.5000 
     65 C           0.1029  -12.6385  -46.1630 C.2       1 UNK         0.5000 
     66 O           0.5904  -13.6934  -45.7578 O.2       1 UNK        -0.5000 
     67 C          -2.5694  -20.5173  -47.8304 C.2       11 UNK         0.5000 
     68 O          -3.3777  -20.4953  -48.7566 O.2       11 UNK        -0.5000 
     69 N          -2.9076  -20.8224  -46.5698 N.am      12 UNK        -0.5000 
     70 CA         -4.2389  -21.2754  -46.1610 C.3       12 UNK         0.1400 
     71 CB         -4.5890  -20.6609  -44.7973 C.3       12 UNK        -0.1800 
     72 C          -4.3233  -22.8107  -46.0962 C.2       12 UNK         0.5000 
     73 O          -5.3856  -23.3699  -46.3763 O.2       12 UNK        -0.5000 
     74 N          -3.2112  -23.4628  -45.7288 N.am      13 UNK        -0.5000 
     75 CA         -3.0704  -24.9103  -45.5653 C.3       13 UNK         0.1400 
     76 CB         -1.6278  -25.2209  -45.1377 C.3       13 UNK        -0.1800 
     77 C          -3.4394  -25.7206  -46.8231 C.2       13 UNK         0.5000 
     78 O          -3.2218  -25.2578  -47.9457 O.2       13 UNK        -0.5000 
     79 N          -3.9863  -26.9248  -46.5976 N.am      14 UNK        -0.5000 
     80 CA         -4.4334  -27.8940  -47.6070 C.3       14 UNK         0.1400 
     81 CB         -3.2213  -28.4997  -48.3458 C.3       14 UNK        -0.1800 
     82 C          -5.4959  -27.3142  -48.5652 C.2       14 UNK         0.5000 
     83 O          -5.4185  -27.5284  -49.7759 O.2       14 UNK        -0.5000 
     84 N          -6.4466  -26.5532  -47.9989 N.am      15 UNK        -0.5000 
     85 CA         -7.4962  -25.7955  -48.6925 C.3       15 UNK         0.1400 
     86 CB         -8.5233  -26.7491  -49.3389 C.3       15 UNK        -0.1800 
     87 C          -6.8990  -24.7846  -49.6924 C.2       15 UNK         0.5000 
     88 O          -7.2683  -24.7760  -50.8671 O.2       15 UNK        -0.5000 
     89 N          -5.9358  -23.9917  -49.2044 N.am      16 UNK        -0.5000 
     90 CA         -5.0991  -23.0515  -49.9528 C.3       16 UNK         0.1400 
     91 CB         -5.9237  -21.8328  -50.4139 C.3       16 UNK        -0.1800 
     92 C          -4.3202  -23.7298  -51.0962 C.2       16 UNK         0.5000 
     93 O          -4.3527  -23.2600  -52.2366 O.2       16 UNK        -0.5000 
     94 N          -3.6601  -24.8482  -50.7615 N.am      17 UNK        -0.5000 
     95 CA         -2.9240  -25.7482  -51.6551 C.3       17 UNK         0.1400 
     96 CB         -1.6171  -25.0793  -52.1272 C.3       17 UNK        -0.1800 
     97 C          -3.7968  -26.2596  -52.8213 C.2       17 UNK         0.5000 
     98 O          -3.3840  -26.1886  -53.9790 O.2       17 UNK        -0.5000 
     99 N          -5.0079  -26.7266  -52.4835 N.am      18 UNK        -0.5000 
    100 CA        -6.0971  -27.1097  -53.3880 C.3       18 UNK         0.1400 
    101 CB        -5.7334  -28.3846  -54.1773 C.3       18 UNK        -0.1800 
    102 C         -6.5498  -25.9385  -54.2886 C.2       18 UNK         0.5000 
    103 O         -6.7050  -26.1070  -55.4998 O.2       18 UNK        -0.5000 
    104 N         -6.7437  -24.7701  -53.6593 N.am      19 UNK        -0.5000 
    105 CA        -7.1296  -23.4806  -54.2385 C.3       19 UNK         0.1400 
    106 CB        -8.6015  -23.5216  -54.6978 C.3       19 UNK        -0.1800 
    107 C         -6.1619  -22.9923  -55.3381 C.2       19 UNK         0.5000 
    108 O         -6.6072  -22.5578  -56.4029 O.2       19 UNK        -0.5000 
    109 N         -4.8536  -23.0857  -55.0674 N.am      20 UNK        -0.5000 
    110 CA        -3.7908  -22.7758  -56.0259 C.3       20 UNK         0.1400 
    111 CB        -3.4269  -24.0447  -56.8183 C.3       20 UNK        -0.1800 
    112 C         -2.5478  -22.1258  -55.3905 C.2       20 UNK         0.5000 
    113 O         -1.5797  -21.8846  -56.1143 O.2       20 UNK        -0.5000 
    114 N         -2.5733  -21.8216  -54.0819 N.am      21 UNK        -0.5000 
    115 CA        -1.4517  -21.2322  -53.3329 C.3       21 UNK         0.1400 
    116 CB        -1.8462  -21.0586  -51.8582 C.3       21 UNK        -0.1800 
    117 C         -0.9186  -19.8976  -53.8941 C.2       21 UNK         0.5000 
    118 O          0.2774  -19.6278  -53.7767 O.2       21 UNK        -0.5000 
    119 N         -1.8045  -19.1055  -54.5088 N.am      22 UNK        -0.5000 
    120 CA        -1.4686  -17.8448  -55.1912 C.3       22 UNK         0.1400 
    121 C         -0.9264  -18.0281  -56.6409 C.2       22 UNK         0.5000 
    122 N         -0.8345  -19.2372  -57.1834 N.am      22 UNK        -0.7600 
    123 O         -0.5679  -17.0483  -57.2887 O.2       22 UNK        -0.5000 
    124 C124       -2.6439  -16.8325  -55.1518 C.3       23 UNK        -0.0398 
    125 S125       -3.2040  -16.4848  -53.4507 S.3       23 UNK        -0.2404 
    126 C126       -2.1208  -15.0948  -52.9955 C.3       23 UNK        -0.0205 
    127 H127       -0.6707  -12.3839  -41.5664 H         1 UNK         0.0600 
    128 H128       -0.3975  -10.6539  -41.3307 H         1 UNK         0.0600 
    129 H129        0.9635  -11.7270  -41.6768 H         1 UNK         0.0600 
    130 H130       -1.4987  -12.8660  -43.5740 H         1 UNK         0.3000 
    131 H131       -1.3668  -11.0895  -45.8373 H         1 UNK         0.0600 
    132 H132       -2.2111  -14.0261  -45.9429 H         1 UNK         0.0800 
    133 H133       -3.2449  -12.8208  -45.2366 H         1 UNK         0.0800 
    134 H134       -3.8329  -14.7507  -47.4975 H         1 UNK         0.0800 
    135 H135       -4.5536  -13.8740  -48.8142 H         1 UNK         0.0800 
    136 H136       -3.6682  -14.0630  -51.0069 H         1 UNK         0.1150 
    137 H137        0.0002  -16.1759  -51.6718 H         1 UNK         0.1150 
    138 H138       -1.2598  -15.2894  -47.6747 H         1 UNK         0.1150 
    139 H139        1.6295  -16.1347  -49.5627 H         1 UNK         0.0800 
    140 H140        0.8548  -16.3208  -48.0082 H         1 UNK         0.0800 
    141 H141       -1.7524  -18.4130  -49.2750 H         1 UNK         0.0800 
    142 H142       -1.1153  -18.0377  -47.6897 H         1 UNK         0.0800 
    143 H143       -0.8238  -20.7782  -49.0017 H         1 UNK         0.0600 
    144 H144        0.1941  -19.7250  -46.5195 H         1 UNK         0.3000 
    145 H145        1.0534  -22.9348  -45.1871 H         1 UNK         0.0600 
    146 H146        2.9319  -22.2762  -46.7023 H         1 UNK         0.0600 
    147 H147        2.7614  -20.6000  -46.1957 H         1 UNK         0.0600 
    148 H148        3.2619  -21.8295  -45.0354 H         1 UNK         0.0600 
    149 H149        1.4338  -20.3755  -44.0769 H         1 UNK         0.3000 
    150 H150       -1.7682  -20.1346  -42.4065 H         1 UNK         0.0600 
    151 H151       -0.1651  -21.5157  -41.0745 H         1 UNK         0.0600 
    152 H152       -0.1660  -19.8389  -40.5476 H         1 UNK         0.0600 
    153 H153        1.1551  -20.4489  -41.5395 H         1 UNK         0.0600 
    154 H154        0.4044  -18.2976  -42.5239 H         1 UNK         0.3000 
    155 H155       -0.8049  -16.3222  -45.2636 H         1 UNK         0.0600 
    156 H156       -0.2885  -14.6572  -43.3893 H         1 UNK         0.0600 
    157 H157       -0.6069  -15.9363  -42.2292 H         1 UNK         0.0600 
    158 H158       -1.8882  -15.3886  -43.2987 H         1 UNK         0.0600 
    159 H159        1.5692  -16.0047  -43.8535 H         1 UNK         0.3000 
    160 H160        3.6392  -18.3206  -45.6703 H         1 UNK         0.0600 
    161 H161        3.4679  -15.2653  -45.4854 H         1 UNK         0.0600 
    162 H162        3.5517  -16.2184  -46.9561 H         1 UNK         0.0600 
    163 H163        4.9220  -16.1945  -45.8601 H         1 UNK         0.0600 
    164 H164        4.0371  -16.5916  -43.3903 H         1 UNK         0.3000 
    165 H165        3.4443  -19.1006  -40.9134 H         1 UNK         0.0600 
    166 H166        5.7522  -18.4630  -40.2645 H         1 UNK         0.0600 
    167 H167        5.7894  -19.4992  -41.6819 H         1 UNK         0.0600 
    168 H168        6.0412  -17.7669  -41.8593 H         1 UNK         0.0600 
    169 H169        4.3070  -16.3767  -40.7655 H         1 UNK         0.3000 
    170 H170        1.1389  -14.8112  -40.8410 H         1 UNK         0.0600 
    171 H171        1.2267  -15.6318  -38.4848 H         1 UNK         0.0600 
    172 H172        2.9535  -15.3004  -38.4175 H         1 UNK         0.0600 
    173 H173        1.8018  -13.9765  -38.6020 H         1 UNK         0.0600 
    174 H174        3.7748  -13.8612  -40.2620 H         1 UNK         0.3000 
    175 H175        4.9522  -12.6876  -41.7215 H         1 UNK         0.0600 
    176 H176        6.6297  -13.5929  -43.2896 H         1 UNK         0.0600 
    177 H177        5.9510  -14.8999  -42.3332 H         1 UNK         0.0600 
    178 H178        5.4389  -14.6742  -44.0024 H         1 UNK         0.0600 
    179 H179        4.4023  -12.5504  -44.6253 H         1 UNK         0.3000 
    180 H180        3.0381   -9.2530  -44.3148 H         1 UNK         0.0600 
    181 H181        5.6101  -10.3416  -45.5685 H         1 UNK         0.0600 
    182 H182        5.4948   -9.0193  -44.4189 H         1 UNK         0.0600 
    183 H183        4.7889   -8.8476  -46.0182 H         1 UNK         0.0600 
    184 H184        1.8838  -10.3088  -45.8040 H         1 UNK         0.3000 
    185 H185        2.1237  -11.2170  -48.3955 H         1 UNK         0.0600 
    186 H186        3.1743  -13.3618  -48.9063 H         1 UNK         0.0600 
    187 H187        2.2285  -14.1898  -47.6828 H         1 UNK         0.0600 
    188 H188        1.4365  -13.5175  -49.1089 H         1 UNK         0.0600 
    189 H189        0.1631  -11.0342  -47.3961 H         1 UNK         0.3000 
    190 H190       -2.1961  -20.7956  -45.8504 H         1 UNK         0.3000 
    191 H191       -4.9883  -20.9346  -46.8786 H         1 UNK         0.0600 
    192 H192       -4.5875  -19.5719  -44.8464 H         1 UNK         0.0600 
    193 H193       -5.5831  -20.9707  -44.4729 H         1 UNK         0.0600 
    194 H194       -3.8824  -20.9600  -44.0229 H         1 UNK         0.0600 
    195 H195       -2.4021  -22.9108  -45.4678 H         1 UNK         0.3000 
    196 H196       -3.7420  -25.2054  -44.7569 H         1 UNK         0.0600 
    197 H197       -1.4883  -26.2893  -44.9682 H         1 UNK         0.0600 
    198 H198       -1.3706  -24.7094  -44.2099 H         1 UNK         0.0600 
    199 H199       -0.9107  -24.9133  -45.8997 H         1 UNK         0.0600 
    200 H200       -4.1230  -27.2125  -45.6384 H         1 UNK         0.3000 
    201 H201       -4.9257  -28.7034  -47.0661 H         1 UNK         0.0600 
    202 H202       -2.5181  -28.9479  -47.6440 H         1 UNK         0.0600 
    203 H203       -2.6818  -27.7499  -48.9241 H         1 UNK         0.0600 
    204 H204       -3.5332  -29.2845  -49.0359 H         1 UNK         0.0600 
    205 H205       -6.4005  -26.4160  -46.9989 H         1 UNK         0.3000 
    206 H206       -8.0171  -25.2103  -47.9333 H         1 UNK         0.0600 
    207 H207       -8.9399  -27.4365  -48.6028 H         1 UNK         0.0600 
    208 H208       -9.3553  -26.1904  -49.7688 H         1 UNK         0.0600 
    209 H209       -8.0820  -27.3430  -50.1399 H         1 UNK         0.0600 
    210 H210       -5.7072  -24.0712  -48.2181 H         1 UNK         0.3000 
    211 H211       -4.3450  -22.7120  -49.2469 H         1 UNK         0.0600 
    212 H212       -6.7091  -22.1129  -51.1153 H         1 UNK         0.0600 
    213 H213       -5.2877  -21.0968  -50.9072 H         1 UNK         0.0600 
    214 H214       -6.3921  -21.3353  -49.5649 H         1 UNK         0.0600 
    215 H215       -3.6646  -25.1181  -49.7800 H         1 UNK         0.3000 
    216 H216       -2.6555  -26.6231  -51.0625 H         1 UNK         0.0600 
    217 H217       -0.9985  -25.7830  -52.6851 H         1 UNK         0.0600 
    218 H218       -1.0268  -24.7255  -51.2820 H         1 UNK         0.0600 
    219 H219       -1.8120  -24.2291  -52.7798 H         1 UNK         0.0600 
    220 H220       -5.2280  -26.7916  -51.4916 H         1 UNK         0.3000 
    221 H221       -6.9487  -27.3499  -52.7497 H         1 UNK         0.0600 
    222 H222       -4.9144  -28.2114  -54.8759 H         1 UNK         0.0600 
    223 H223       -5.4377  -29.1913  -53.5066 H         1 UNK         0.0600 
    224 H224       -6.5863  -28.7403  -54.7564 H         1 UNK         0.0600 
    225 H225       -6.6384  -24.7628  -52.6474 H         1 UNK         0.3000 
    226 H226       -7.0586  -22.7523  -53.4302 H         1 UNK         0.0600 
    227 H227       -9.2578  -23.8321  -53.8847 H         1 UNK         0.0600 
    228 H228       -8.9371  -22.5373  -55.0262 H         1 UNK         0.0600 
    229 H229       -8.7469  -24.2125  -55.5289 H         1 UNK         0.0600 
    230 H230       -4.5719  -23.4371  -54.1558 H         1 UNK         0.3000 
    231 H231       -4.1594  -22.0340  -56.7371 H         1 UNK         0.0600 
    232 H232       -2.9853  -24.8045  -56.1742 H         1 UNK         0.0600 
    233 H233       -2.7063  -23.8249  -57.6068 H         1 UNK         0.0600 
    234 H234       -4.3049  -24.4802  -57.2957 H         1 UNK         0.0600 
    235 H235       -3.3849  -22.0815  -53.5319 H         1 UNK         0.3000 
    236 H236       -0.6250  -21.9440  -53.3776 H         1 UNK         0.0600 
    237 H237       -1.9689  -22.0214  -51.3644 H         1 UNK         0.0600 
    238 H238       -1.0749  -20.5161  -51.3108 H         1 UNK         0.0600 
    239 H239       -2.7766  -20.4998  -51.7501 H         1 UNK         0.0600 
    240 H240       -2.7672  -19.4028  -54.5584 H         1 UNK         0.3000 
    241 H241       -0.6446  -17.3846  -54.6427 H         1 UNK         0.0600 
    242 H242       -0.4749  -19.3279  -58.1202 H         1 UNK         0.3800 
    243 H243       -1.0985  -20.0730  -56.6708 H         1 UNK         0.3800 
    244 H244       -2.3671  -15.8902  -55.6284 H         1 UNK         0.0800 
    245 H245       -3.4931  -17.2191  -55.7173 H         1 UNK         0.0800 
    246 H246       -2.5867  -14.1550  -53.2955 H         1 UNK         0.0800 
    247 H247       -1.1761  -15.1594  -53.5374 H         1 UNK         0.0800 
@<TRIPOS>BOND
     1    1    2 1    
     2    1  127 1    
     3    1  128 1    
     4    1  129 1    
     5    2    3 2    
     6    2    4 am   BACKBONE|DICT|INTERRES
     7    4    5 1    
     8    4  130 1    
     9    5    6 1    
    10    5   65 1    
    11    5  131 1    
    12    6    7 1    
    13    6  132 1    
    14    6  133 1    
    15    7    8 1    
    16    8    9 1    
    17    8  134 1    
    18    8  135 1    
    19    9   10 ar   
    20    9   14 ar   
    21   10   11 ar   
    22   10  136 1    
    23   11   12 ar   
    24   11  126 1    
    25   12   13 ar   
    26   12  137 1    
    27   13   14 ar   
    28   13   15 1    
    29   14  138 1    
    30   15   16 1    
    31   15  139 1    
    32   15  140 1    
    33   16   17 1    
    34   17   18 1    
    35   17  141 1    
    36   17  142 1    
    37   18   19 1    
    38   18   67 1    
    39   18  143 1    
    40   19   20 am   BACKBONE|DICT|INTERRES
    41   19  144 1    
    42   20   21 2    
    43   20   22 1    
    44   22   23 1    
    45   22   24 1    
    46   22  145 1    
    47   23  146 1    
    48   23  147 1    
    49   23  148 1    
    50   24   25 am   BACKBONE|DICT|INTERRES
    51   24  149 1    
    52   25   26 2    
    53   25   27 1    
    54   27   28 1    
    55   27   29 1    
    56   27  150 1    
    57   28  151 1    
    58   28  152 1    
    59   28  153 1    
    60   29   30 am   BACKBONE|DICT|INTERRES
    61   29  154 1    
    62   30   31 2    
    63   30   32 1    
    64   32   33 1    
    65   32   34 1    
    66   32  155 1    
    67   33  156 1    
    68   33  157 1    
    69   33  158 1    
    70   34   35 am   BACKBONE|DICT|INTERRES
    71   34  159 1    
    72   35   36 2    
    73   35   37 1    
    74   37   38 1    
    75   37   39 1    
    76   37  160 1    
    77   38  161 1    
    78   38  162 1    
    79   38  163 1    
    80   39   40 am   BACKBONE|DICT|INTERRES
    81   39  164 1    
    82   40   41 2    
    83   40   42 1    
    84   42   43 1    
    85   42   44 1    
    86   42  165 1    
    87   43  166 1    
    88   43  167 1    
    89   43  168 1    
    90   44   45 am   BACKBONE|DICT|INTERRES
    91   44  169 1    
    92   45   46 2    
    93   45   47 1    
    94   47   48 1    
    95   47   49 1    
    96   47  170 1    
    97   48  171 1    
    98   48  172 1    
    99   48  173 1    
   100   49   50 am   BACKBONE|DICT|INTERRES
   101   49  174 1    
   102   50   51 2    
   103   50   52 1    
   104   52   53 1    
   105   52   54 1    
   106   52  175 1    
   107   53  176 1    
   108   53  177 1    
   109   53  178 1    
   110   54   55 am   BACKBONE|DICT|INTERRES
   111   54  179 1    
   112   55   56 2    
   113   55   57 1    
   114   57   58 1    
   115   57   59 1    
   116   57  180 1    
   117   58  181 1    
   118   58  182 1    
   119   58  183 1    
   120   59   60 am   BACKBONE|DICT|INTERRES
   121   59  184 1    
   122   60   61 2    
   123   60   62 1    
   124   62   63 1    
   125   62   64 1    
   126   62  185 1    
   127   63  186 1    
   128   63  187 1    
   129   63  188 1    
   130   64   65 am   BACKBONE|DICT|INTERRES
   131   64  189 1    
   132   65   66 2    
   133   67   68 2    
   134   67   69 am   BACKBONE|DICT|INTERRES
   135   69   70 1    
   136   69  190 1    
   137   70   71 1    
   138   70   72 1    
   139   70  191 1    
   140   71  192 1    
   141   71  193 1    
   142   71  194 1    
   143   72   73 2    
   144   72   74 am   BACKBONE|DICT|INTERRES
   145   74   75 1    
   146   74  195 1    
   147   75   76 1    
   148   75   77 1    
   149   75  196 1    
   150   76  197 1    
   151   76  198 1    
   152   76  199 1    
   153   77   78 2    
   154   77   79 am   BACKBONE|DICT|INTERRES
   155   79   80 1    
   156   79  200 1    
   157   80   81 1    
   158   80   82 1    
   159   80  201 1    
   160   81  202 1    
   161   81  203 1    
   162   81  204 1    
   163   82   83 2    
   164   82   84 am   BACKBONE|DICT|INTERRES
   165   84   85 1    
   166   84  205 1    
   167   85   86 1    
   168   85   87 1    
   169   85  206 1    
   170   86  207 1    
   171   86  208 1    
   172   86  209 1    
   173   87   88 2    
   174   87   89 am   BACKBONE|DICT|INTERRES
   175   89   90 1    
   176   89  210 1    
   177   90   91 1    
   178   90   92 1    
   179   90  211 1    
   180   91  212 1    
   181   91  213 1    
   182   91  214 1    
   183   92   93 2    
   184   92   94 am   BACKBONE|DICT|INTERRES
   185   94   95 1    
   186   94  215 1    
   187   95   96 1    
   188   95   97 1    
   189   95  216 1    
   190   96  217 1    
   191   96  218 1    
   192   96  219 1    
   193   97   98 2    
   194   97   99 am   BACKBONE|DICT|INTERRES
   195   99  100 1    
   196   99  220 1    
   197  100  101 1    
   198  100  102 1    
   199  100  221 1    
   200  101  222 1    
   201  101  223 1    
   202  101  224 1    
   203  102  103 2    
   204  102  104 am   BACKBONE|DICT|INTERRES
   205  104  105 1    
   206  104  225 1    
   207  105  106 1    
   208  105  107 1    
   209  105  226 1    
   210  106  227 1    
   211  106  228 1    
   212  106  229 1    
   213  107  108 2    
   214  107  109 am   BACKBONE|DICT|INTERRES
   215  109  110 1    
   216  109  230 1    
   217  110  111 1    
   218  110  112 1    
   219  110  231 1    
   220  111  232 1    
   221  111  233 1    
   222  111  234 1    
   223  112  113 2    
   224  112  114 am   BACKBONE|DICT|INTERRES
   225  114  115 1    
   226  114  235 1    
   227  115  116 1    
   228  115  117 1    
   229  115  236 1    
   230  116  237 1    
   231  116  238 1    
   232  116  239 1    
   233  117  118 2    
   234  117  119 am   BACKBONE|DICT|INTERRES
   235  119  120 1    
   236  119  240 1    
   237  120  121 1    
   238  120  124 1    
   239  120  241 1    
   240  121  122 am   BACKBONE|DICT|INTERRES
   241  121  123 2    
   242  122  242 1    
   243  122  243 1    
   244  124  125 1    
   245  124  244 1    
   246  124  245 1    
   247  125  126 1    
   248  126  246 1    
   249  126  247 1    
@<TRIPOS>SUBSTRUCTURE
     1 UNK         1 GROUP             0       ****    0 ROOT    
