@<TRIPOS>MOLECULE
3R540
247   249    1
SMALL
USER_CHARGES


@<TRIPOS>ATOM
      1 CA         -1.8152  -11.8983  -47.5320 C.3       0 UNK        -0.1800 
      2 C          -0.3153  -11.9721  -47.2902 C.2       0 UNK         0.5000 
      3 O           0.1115  -12.5358  -46.2830 O.2       0 UNK        -0.5000 
      4 N           0.4833  -11.4148  -48.2110 N.am      1 UNK        -0.5000 
      5 CA          1.9513  -11.3496  -48.1869 C.3       1 UNK         0.1400 
      6 C6          2.6493  -12.7387  -48.2324 C.3       23 UNK        -0.0398 
      7 S7          2.1949  -13.7514  -49.6814 S.3       23 UNK        -0.2404 
      8 C8          0.9159  -14.8348  -48.9673 C.3       23 UNK        -0.0205 
      9 C9          0.9824  -16.2393  -49.5398 C.ar      23 UNK        -0.0193 
     10 C10         0.1091  -16.6316  -50.5592 C.ar      23 UNK        -0.1150 
     11 C11         0.1273  -17.9440  -51.0411 C.ar      23 UNK        -0.0193 
     12 C12         1.0442  -18.8552  -50.5109 C.ar      23 UNK        -0.1150 
     13 C13         1.9174  -18.4770  -49.4863 C.ar      23 UNK        -0.0193 
     14 C14         1.8866  -17.1645  -49.0090 C.ar      23 UNK        -0.1150 
     15 C15         2.8552  -19.5043  -48.8641 C.3       23 UNK        -0.0205 
     16 S16         2.2846  -20.0598  -47.2204 S.3       23 UNK        -0.2404 
     17 C17         0.5323  -20.4472  -47.5449 C.3       23 UNK        -0.0398 
     18 CA          0.0014  -21.7016  -46.8211 C.3       11 UNK         0.1400 
     19 N           0.1356  -21.6490  -45.3629 N.am      11 UNK        -0.5000 
     20 C          -0.1772  -22.6624  -44.5405 C.2       10 UNK         0.5000 
     21 O          -0.5323  -23.7755  -44.9288 O.2       10 UNK        -0.5000 
     22 CA         -0.1567  -22.3634  -43.0332 C.3       10 UNK         0.1400 
     23 CB          1.2550  -22.5346  -42.4523 C.3       10 UNK        -0.1800 
     24 N          -0.6589  -21.0182  -42.7524 N.am      10 UNK        -0.5000 
     25 C          -1.9504  -20.6677  -42.8412 C.2       9 UNK         0.5000 
     26 O          -2.8531  -21.4595  -43.1149 O.2       9 UNK        -0.5000 
     27 CA         -2.2849  -19.1783  -42.6284 C.3       9 UNK         0.1400 
     28 CB         -2.4502  -18.8690  -41.1332 C.3       9 UNK        -0.1800 
     29 N          -1.2767  -18.2825  -43.1980 N.am      9 UNK        -0.5000 
     30 C          -1.0323  -18.1526  -44.5095 C.2       8 UNK         0.5000 
     31 O          -1.6752  -18.7360  -45.3807 O.2       8 UNK        -0.5000 
     32 CA          0.1590  -17.2636  -44.9159 C.3       8 UNK         0.1400 
     33 CB         -0.3058  -15.8247  -45.1787 C.3       8 UNK        -0.1800 
     34 N           1.2531  -17.2463  -43.9403 N.am      8 UNK        -0.5000 
     35 C           1.9499  -18.3226  -43.5432 C.2       7 UNK         0.5000 
     36 O           1.6574  -19.4738  -43.8683 O.2       7 UNK        -0.5000 
     37 CA          3.1570  -18.0615  -42.6178 C.3       7 UNK         0.1400 
     38 CB          4.1338  -19.2530  -42.5456 C.3       7 UNK        -0.1800 
     39 N           3.8581  -16.8199  -42.9564 N.am      7 UNK        -0.5000 
     40 C           4.4724  -16.5109  -44.1095 C.2       6 UNK         0.5000 
     41 O           4.6470  -17.3062  -45.0326 O.2       6 UNK        -0.5000 
     42 CA          4.9429  -15.0529  -44.2801 C.3       6 UNK         0.1400 
     43 CB          4.1230  -14.3599  -45.3790 C.3       6 UNK        -0.1800 
     44 N           4.8143  -14.2782  -43.0438 N.am      6 UNK        -0.5000 
     45 C           5.7834  -14.1316  -42.1299 C.2       5 UNK         0.5000 
     46 O           6.9309  -14.5532  -42.2762 O.2       5 UNK        -0.5000 
     47 CA          5.4016  -13.4212  -40.8161 C.3       5 UNK         0.1400 
     48 CB          5.8080  -11.9409  -40.8563 C.3       5 UNK        -0.1800 
     49 N           3.9732  -13.5313  -40.5031 N.am      5 UNK        -0.5000 
     50 C           3.3876  -14.6597  -40.0735 C.2       4 UNK         0.5000 
     51 O           3.9986  -15.7113  -39.8859 O.2       4 UNK        -0.5000 
     52 CA          1.8620  -14.6374  -39.8599 C.3       4 UNK         0.1400 
     53 CB          1.5291  -14.3172  -38.3952 C.3       4 UNK        -0.1800 
     54 N           1.1527  -13.6972  -40.7281 N.am      4 UNK        -0.5000 
     55 C           1.1160  -13.7517  -42.0656 C.2       3 UNK         0.5000 
     56 O           1.7004  -14.6135  -42.7269 O.2       3 UNK        -0.5000 
     57 CA          0.3198  -12.6520  -42.7970 C.3       3 UNK         0.1400 
     58 CB         -0.4568  -11.6955  -41.8642 C.3       3 UNK        -0.1800 
     59 N           1.1697  -11.8906  -43.7136 N.am      3 UNK        -0.5000 
     60 C           2.2826  -11.2022  -43.4099 C.2       2 UNK         0.5000 
     61 O           2.7479  -11.1359  -42.2710 O.2       2 UNK        -0.5000 
     62 CA          3.0009  -10.4840  -44.5708 C.3       2 UNK         0.1400 
     63 CB          4.5296  -10.4442  -44.3895 C.3       2 UNK        -0.1800 
     64 N           2.6710  -11.1130  -45.8485 N.am      2 UNK        -0.5000 
     65 C           2.4291  -10.4788  -47.0019 C.2       1 UNK         0.5000 
     66 O           2.5353   -9.2604  -47.1505 O.2       1 UNK        -0.5000 
     67 C          -1.4603  -21.9445  -47.2442 C.2       11 UNK         0.5000 
     68 O          -1.7044  -22.8088  -48.0822 O.2       11 UNK        -0.5000 
     69 N          -2.4035  -21.2055  -46.6413 N.am      12 UNK        -0.5000 
     70 CA         -3.8421  -21.3381  -46.8756 C.3       12 UNK         0.1400 
     71 CB         -4.5947  -20.2331  -46.1201 C.3       12 UNK        -0.1800 
     72 C          -4.3836  -22.7276  -46.4965 C.2       12 UNK         0.5000 
     73 O          -5.1753  -23.2939  -47.2508 O.2       12 UNK        -0.5000 
     74 N          -3.9134  -23.2701  -45.3643 N.am      13 UNK        -0.5000 
     75 CA         -4.2278  -24.6235  -44.9052 C.3       13 UNK         0.1400 
     76 CB         -3.6872  -24.8227  -43.4812 C.3       13 UNK        -0.1800 
     77 C          -3.6972  -25.7157  -45.8541 C.2       13 UNK         0.5000 
     78 O          -4.4054  -26.6907  -46.1068 O.2       13 UNK        -0.5000 
     79 N          -2.4785  -25.5233  -46.3787 N.am      14 UNK        -0.5000 
     80 CA         -1.8529  -26.4054  -47.3650 C.3       14 UNK         0.1400 
     81 CB         -0.3542  -26.0813  -47.4646 C.3       14 UNK        -0.1800 
     82 C          -2.5267  -26.3228  -48.7483 C.2       14 UNK         0.5000 
     83 O          -2.7332  -27.3572  -49.3841 O.2       14 UNK        -0.5000 
     84 N          -2.8614  -25.0997  -49.1833 N.am      15 UNK        -0.5000 
     85 CA         -3.5533  -24.8060  -50.4390 C.3       15 UNK         0.1400 
     86 CB         -3.5497  -23.2879  -50.6819 C.3       15 UNK        -0.1800 
     87 C          -4.9941  -25.3392  -50.4694 C.2       15 UNK         0.5000 
     88 O          -5.4480  -25.7869  -51.5237 O.2       15 UNK        -0.5000 
     89 N          -5.6869  -25.2511  -49.3224 N.am      16 UNK        -0.5000 
     90 CA         -7.0352  -25.7608  -49.0377 C.3       16 UNK         0.1400 
     91 CB         -7.0119  -27.3025  -49.0041 C.3       16 UNK        -0.1800 
     92 C          -8.1335  -25.2125  -49.9768 C.2       16 UNK         0.5000 
     93 O          -9.1590  -25.8671  -50.1688 O.2       16 UNK        -0.5000 
     94 N          -7.8725  -24.0407  -50.5776 N.am      17 UNK        -0.5000 
     95 CA         -8.6245  -23.3840  -51.6557 C.3       17 UNK         0.1400 
     96 CB        -10.0493  -23.0128  -51.1956 C.3       17 UNK        -0.1800 
     97 C          -8.6272  -24.1565  -52.9973 C.2       17 UNK         0.5000 
     98 O          -9.3064  -23.7306  -53.9326 O.2       17 UNK        -0.5000 
     99 N          -7.8612  -25.2529  -53.0915 N.am      18 UNK        -0.5000 
    100 CA        -7.6926  -26.0561  -54.3003 C.3       18 UNK         0.1400 
    101 CB        -7.3443  -27.5010  -53.9110 C.3       18 UNK        -0.1800 
    102 C         -6.6088  -25.4550  -55.2072 C.2       18 UNK         0.5000 
    103 O         -6.7979  -25.3883  -56.4225 O.2       18 UNK        -0.5000 
    104 N         -5.5141  -24.9714  -54.6014 N.am      19 UNK        -0.5000 
    105 CA        -4.4198  -24.2627  -55.2719 C.3       19 UNK         0.1400 
    106 CB        -3.1300  -24.4303  -54.4504 C.3       19 UNK        -0.1800 
    107 C         -4.7800  -22.7828  -55.5293 C.2       19 UNK         0.5000 
    108 O         -4.0515  -21.8767  -55.1186 O.2       19 UNK        -0.5000 
    109 N         -5.9160  -22.5664  -56.2064 N.am      20 UNK        -0.5000 
    110 CA        -6.5249  -21.2639  -56.4922 C.3       20 UNK         0.1400 
    111 CB        -7.8929  -21.4913  -57.1519 C.3       20 UNK        -0.1800 
    112 C         -5.6546  -20.3286  -57.3539 C.2       20 UNK         0.5000 
    113 O         -5.8183  -19.1103  -57.2771 O.2       20 UNK        -0.5000 
    114 N         -4.7123  -20.9034  -58.1158 N.am      21 UNK        -0.5000 
    115 CA        -3.6996  -20.1969  -58.9061 C.3       21 UNK         0.1400 
    116 CB        -2.8848  -21.2283  -59.7016 C.3       21 UNK        -0.1800 
    117 C         -2.7628  -19.2979  -58.0699 C.2       21 UNK         0.5000 
    118 O         -2.1917  -18.3530  -58.6159 O.2       21 UNK        -0.5000 
    119 N         -2.6401  -19.5868  -56.7667 N.am      22 UNK        -0.5000 
    120 CA        -1.9619  -18.7351  -55.7785 C.3       22 UNK         0.1400 
    121 C         -2.7582  -17.4469  -55.3953 C.2       22 UNK         0.5000 
    122 N         -4.0314  -17.3085  -55.7499 N.am      22 UNK        -0.7600 
    123 O         -2.2070  -16.5377  -54.7824 O.2       22 UNK        -0.5000 
    124 C124       -1.5596  -19.5695  -54.5339 C.3       23 UNK        -0.0398 
    125 S125       -0.1082  -18.9099  -53.6416 S.3       23 UNK        -0.2404 
    126 C126       -0.8883  -18.4043  -52.0770 C.3       23 UNK        -0.0205 
    127 H127       -2.0517  -11.3848  -48.4641 H         1 UNK         0.0600 
    128 H128       -2.2998  -11.3642  -46.7148 H         1 UNK         0.0600 
    129 H129       -2.2345  -12.9032  -47.5802 H         1 UNK         0.0600 
    130 H130        0.0570  -10.9551  -49.0032 H         1 UNK         0.3000 
    131 H131        2.2411  -10.8156  -49.0934 H         1 UNK         0.0600 
    132 H132        3.7321  -12.6057  -48.2626 H         1 UNK         0.0800 
    133 H133        2.4479  -13.3122  -47.3300 H         1 UNK         0.0800 
    134 H134        1.0168  -14.8984  -47.8838 H         1 UNK         0.0800 
    135 H135       -0.0647  -14.3940  -49.1515 H         1 UNK         0.0800 
    136 H136       -0.6037  -15.9226  -50.9566 H         1 UNK         0.1150 
    137 H137        1.0509  -19.8728  -50.8760 H         1 UNK         0.1150 
    138 H138        2.5494  -16.8711  -48.2064 H         1 UNK         0.1150 
    139 H139        2.9586  -20.3728  -49.5163 H         1 UNK         0.0800 
    140 H140        3.8532  -19.0746  -48.7665 H         1 UNK         0.0800 
    141 H141       -0.0583  -19.5647  -47.2973 H         1 UNK         0.0800 
    142 H142        0.4079  -20.6033  -48.6159 H         1 UNK         0.0800 
    143 H143        0.5866  -22.5572  -47.1649 H         1 UNK         0.0600 
    144 H144        0.4825  -20.7837  -44.9627 H         1 UNK         0.3000 
    145 H145       -0.8116  -23.0840  -42.5387 H         1 UNK         0.0600 
    146 H146        1.2743  -22.3101  -41.3858 H         1 UNK         0.0600 
    147 H147        1.5998  -23.5619  -42.5750 H         1 UNK         0.0600 
    148 H148        1.9813  -21.8892  -42.9456 H         1 UNK         0.0600 
    149 H149        0.0380  -20.2975  -42.6209 H         1 UNK         0.3000 
    150 H150       -3.2362  -18.9776  -43.1256 H         1 UNK         0.0600 
    151 H151       -3.2111  -19.5092  -40.6847 H         1 UNK         0.0600 
    152 H152       -2.7624  -17.8364  -40.9763 H         1 UNK         0.0600 
    153 H153       -1.5219  -19.0272  -40.5827 H         1 UNK         0.0600 
    154 H154       -0.6986  -17.7686  -42.5500 H         1 UNK         0.3000 
    155 H155        0.5660  -17.6628  -45.8468 H         1 UNK         0.0600 
    156 H156        0.5281  -15.1851  -45.4681 H         1 UNK         0.0600 
    157 H157       -0.7707  -15.3878  -44.2949 H         1 UNK         0.0600 
    158 H158       -1.0379  -15.7908  -45.9866 H         1 UNK         0.0600 
    159 H159        1.5337  -16.3326  -43.5943 H         1 UNK         0.3000 
    160 H160        2.7458  -17.9132  -41.6185 H         1 UNK         0.0600 
    161 H161        4.5193  -19.5226  -43.5292 H         1 UNK         0.0600 
    162 H162        3.6415  -20.1357  -42.1364 H         1 UNK         0.0600 
    163 H163        4.9832  -19.0281  -41.9006 H         1 UNK         0.0600 
    164 H164        3.7813  -16.0849  -42.2680 H         1 UNK         0.3000 
    165 H165        5.9865  -15.0803  -44.6004 H         1 UNK         0.0600 
    166 H166        3.0732  -14.2671  -45.0986 H         1 UNK         0.0600 
    167 H167        4.5126  -13.3648  -45.5881 H         1 UNK         0.0600 
    168 H168        4.1646  -14.9216  -46.3134 H         1 UNK         0.0600 
    169 H169        3.8896  -13.9286  -42.8288 H         1 UNK         0.3000 
    170 H170        5.9648  -13.8988  -40.0113 H         1 UNK         0.0600 
    171 H171        6.8804  -11.8360  -41.0249 H         1 UNK         0.0600 
    172 H172        5.2990  -11.4040  -41.6552 H         1 UNK         0.0600 
    173 H173        5.5764  -11.4416  -39.9154 H         1 UNK         0.0600 
    174 H174        3.4027  -12.7135  -40.6814 H         1 UNK         0.3000 
    175 H175        1.4879  -15.6386  -40.0838 H         1 UNK         0.0600 
    176 H176        1.8526  -13.3127  -38.1195 H         1 UNK         0.0600 
    177 H177        0.4573  -14.3886  -38.2091 H         1 UNK         0.0600 
    178 H178        2.0218  -15.0180  -37.7198 H         1 UNK         0.0600 
    179 H179        0.6672  -12.9404  -40.2688 H         1 UNK         0.3000 
    180 H180       -0.4118  -13.1693  -43.4181 H         1 UNK         0.0600 
    181 H181        0.2046  -11.1229  -41.2131 H         1 UNK         0.0600 
    182 H182       -1.1602  -12.2414  -41.2340 H         1 UNK         0.0600 
    183 H183       -1.0409  -10.9814  -42.4448 H         1 UNK         0.0600 
    184 H184        0.8643  -11.9267  -44.6832 H         1 UNK         0.3000 
    185 H185        2.6278   -9.4579  -44.5659 H         1 UNK         0.0600 
    186 H186        5.0172   -9.9713  -45.2420 H         1 UNK         0.0600 
    187 H187        4.9499  -11.4431  -44.2735 H         1 UNK         0.0600 
    188 H188        4.8017   -9.8682  -43.5046 H         1 UNK         0.0600 
    189 H189        2.4893  -12.1055  -45.8065 H         1 UNK         0.3000 
    190 H190       -2.1163  -20.4642  -46.0072 H         1 UNK         0.3000 
    191 H191       -4.0164  -21.1945  -47.9435 H         1 UNK         0.0600 
    192 H192       -4.2714  -19.2439  -46.4449 H         1 UNK         0.0600 
    193 H193       -5.6686  -20.2993  -46.2989 H         1 UNK         0.0600 
    194 H194       -4.4358  -20.2996  -45.0438 H         1 UNK         0.0600 
    195 H195       -3.2980  -22.7189  -44.7768 H         1 UNK         0.3000 
    196 H196       -5.3153  -24.7168  -44.8694 H         1 UNK         0.0600 
    197 H197       -3.9443  -25.8122  -43.1015 H         1 UNK         0.0600 
    198 H198       -4.1094  -24.0899  -42.7933 H         1 UNK         0.0600 
    199 H199       -2.6020  -24.7289  -43.4441 H         1 UNK         0.0600 
    200 H200       -1.9375  -24.7191  -46.0780 H         1 UNK         0.3000 
    201 H201       -1.9506  -27.4332  -47.0091 H         1 UNK         0.0600 
    202 H202        0.1401  -26.2067  -46.5010 H         1 UNK         0.0600 
    203 H203       -0.1827  -25.0568  -47.7954 H         1 UNK         0.0600 
    204 H204        0.1423  -26.7437  -48.1746 H         1 UNK         0.0600 
    205 H205       -2.5783  -24.2943  -48.6281 H         1 UNK         0.3000 
    206 H206       -3.0043  -25.2882  -51.2503 H         1 UNK         0.0600 
    207 H207       -2.5348  -22.9144  -50.8198 H         1 UNK         0.0600 
    208 H208       -4.1196  -23.0229  -51.5730 H         1 UNK         0.0600 
    209 H209       -3.9926  -22.7480  -49.8451 H         1 UNK         0.0600 
    210 H210       -5.2460  -24.7688  -48.5439 H         1 UNK         0.3000 
    211 H211       -7.2872  -25.4088  -48.0365 H         1 UNK         0.0600 
    212 H212       -6.8201  -27.7239  -49.9916 H         1 UNK         0.0600 
    213 H213       -7.9630  -27.7047  -48.6536 H         1 UNK         0.0600 
    214 H214       -6.2384  -27.6681  -48.3282 H         1 UNK         0.0600 
    215 H215       -6.9989  -23.5968  -50.3322 H         1 UNK         0.3000 
    216 H216       -8.0952  -22.4515  -51.8563 H         1 UNK         0.0600 
    217 H217      -10.0298  -22.4633  -50.2545 H         1 UNK         0.0600 
    218 H218      -10.6760  -23.8941  -51.0582 H         1 UNK         0.0600 
    219 H219      -10.5435  -22.3764  -51.9306 H         1 UNK         0.0600 
    220 H220       -7.2821  -25.5118  -52.3001 H         1 UNK         0.3000 
    221 H221       -8.6322  -26.0733  -54.8568 H         1 UNK         0.0600 
    222 H222       -6.4041  -27.5596  -53.3617 H         1 UNK         0.0600 
    223 H223       -8.1234  -27.9379  -53.2860 H         1 UNK         0.0600 
    224 H224       -7.2463  -28.1297  -54.7969 H         1 UNK         0.0600 
    225 H225       -5.4463  -25.0662  -53.5954 H         1 UNK         0.3000 
    226 H226       -4.2462  -24.7236  -56.2465 H         1 UNK         0.0600 
    227 H227       -2.8951  -25.4832  -54.2935 H         1 UNK         0.0600 
    228 H228       -2.2793  -23.9810  -54.9643 H         1 UNK         0.0600 
    229 H229       -3.2083  -23.9555  -53.4744 H         1 UNK         0.0600 
    230 H230       -6.4380  -23.3840  -56.5035 H         1 UNK         0.3000 
    231 H231       -6.6860  -20.7618  -55.5361 H         1 UNK         0.0600 
    232 H232       -8.3941  -20.5434  -57.3527 H         1 UNK         0.0600 
    233 H233       -8.5497  -22.0742  -56.5053 H         1 UNK         0.0600 
    234 H234       -7.7982  -22.0214  -58.1004 H         1 UNK         0.0600 
    235 H235       -4.6562  -21.9110  -58.1113 H         1 UNK         0.3000 
    236 H236       -4.2234  -19.5511  -59.6137 H         1 UNK         0.0600 
    237 H237       -3.5250  -21.8137  -60.3620 H         1 UNK         0.0600 
    238 H238       -2.1375  -20.7383  -60.3272 H         1 UNK         0.0600 
    239 H239       -2.3587  -21.9196  -59.0420 H         1 UNK         0.0600 
    240 H240       -3.1520  -20.3770  -56.3917 H         1 UNK         0.3000 
    241 H241       -1.0412  -18.3869  -56.2508 H         1 UNK         0.0600 
    242 H242       -4.5176  -16.4623  -55.4996 H         1 UNK         0.3800 
    243 H243       -4.5197  -18.0203  -56.2832 H         1 UNK         0.3800 
    244 H244       -2.4086  -19.6969  -53.8599 H         1 UNK         0.0800 
    245 H245       -1.2853  -20.5800  -54.8412 H         1 UNK         0.0800 
    246 H246       -1.4479  -19.2448  -51.6636 H         1 UNK         0.0800 
    247 H247       -1.6162  -17.6172  -52.2797 H         1 UNK         0.0800 
@<TRIPOS>BOND
     1    1    2 1    
     2    1  127 1    
     3    1  128 1    
     4    1  129 1    
     5    2    3 2    
     6    2    4 am   BACKBONE|DICT|INTERRES
     7    4    5 1    
     8    4  130 1    
     9    5    6 1    
    10    5   65 1    
    11    5  131 1    
    12    6    7 1    
    13    6  132 1    
    14    6  133 1    
    15    7    8 1    
    16    8    9 1    
    17    8  134 1    
    18    8  135 1    
    19    9   10 ar   
    20    9   14 ar   
    21   10   11 ar   
    22   10  136 1    
    23   11   12 ar   
    24   11  126 1    
    25   12   13 ar   
    26   12  137 1    
    27   13   14 ar   
    28   13   15 1    
    29   14  138 1    
    30   15   16 1    
    31   15  139 1    
    32   15  140 1    
    33   16   17 1    
    34   17   18 1    
    35   17  141 1    
    36   17  142 1    
    37   18   19 1    
    38   18   67 1    
    39   18  143 1    
    40   19   20 am   BACKBONE|DICT|INTERRES
    41   19  144 1    
    42   20   21 2    
    43   20   22 1    
    44   22   23 1    
    45   22   24 1    
    46   22  145 1    
    47   23  146 1    
    48   23  147 1    
    49   23  148 1    
    50   24   25 am   BACKBONE|DICT|INTERRES
    51   24  149 1    
    52   25   26 2    
    53   25   27 1    
    54   27   28 1    
    55   27   29 1    
    56   27  150 1    
    57   28  151 1    
    58   28  152 1    
    59   28  153 1    
    60   29   30 am   BACKBONE|DICT|INTERRES
    61   29  154 1    
    62   30   31 2    
    63   30   32 1    
    64   32   33 1    
    65   32   34 1    
    66   32  155 1    
    67   33  156 1    
    68   33  157 1    
    69   33  158 1    
    70   34   35 am   BACKBONE|DICT|INTERRES
    71   34  159 1    
    72   35   36 2    
    73   35   37 1    
    74   37   38 1    
    75   37   39 1    
    76   37  160 1    
    77   38  161 1    
    78   38  162 1    
    79   38  163 1    
    80   39   40 am   BACKBONE|DICT|INTERRES
    81   39  164 1    
    82   40   41 2    
    83   40   42 1    
    84   42   43 1    
    85   42   44 1    
    86   42  165 1    
    87   43  166 1    
    88   43  167 1    
    89   43  168 1    
    90   44   45 am   BACKBONE|DICT|INTERRES
    91   44  169 1    
    92   45   46 2    
    93   45   47 1    
    94   47   48 1    
    95   47   49 1    
    96   47  170 1    
    97   48  171 1    
    98   48  172 1    
    99   48  173 1    
   100   49   50 am   BACKBONE|DICT|INTERRES
   101   49  174 1    
   102   50   51 2    
   103   50   52 1    
   104   52   53 1    
   105   52   54 1    
   106   52  175 1    
   107   53  176 1    
   108   53  177 1    
   109   53  178 1    
   110   54   55 am   BACKBONE|DICT|INTERRES
   111   54  179 1    
   112   55   56 2    
   113   55   57 1    
   114   57   58 1    
   115   57   59 1    
   116   57  180 1    
   117   58  181 1    
   118   58  182 1    
   119   58  183 1    
   120   59   60 am   BACKBONE|DICT|INTERRES
   121   59  184 1    
   122   60   61 2    
   123   60   62 1    
   124   62   63 1    
   125   62   64 1    
   126   62  185 1    
   127   63  186 1    
   128   63  187 1    
   129   63  188 1    
   130   64   65 am   BACKBONE|DICT|INTERRES
   131   64  189 1    
   132   65   66 2    
   133   67   68 2    
   134   67   69 am   BACKBONE|DICT|INTERRES
   135   69   70 1    
   136   69  190 1    
   137   70   71 1    
   138   70   72 1    
   139   70  191 1    
   140   71  192 1    
   141   71  193 1    
   142   71  194 1    
   143   72   73 2    
   144   72   74 am   BACKBONE|DICT|INTERRES
   145   74   75 1    
   146   74  195 1    
   147   75   76 1    
   148   75   77 1    
   149   75  196 1    
   150   76  197 1    
   151   76  198 1    
   152   76  199 1    
   153   77   78 2    
   154   77   79 am   BACKBONE|DICT|INTERRES
   155   79   80 1    
   156   79  200 1    
   157   80   81 1    
   158   80   82 1    
   159   80  201 1    
   160   81  202 1    
   161   81  203 1    
   162   81  204 1    
   163   82   83 2    
   164   82   84 am   BACKBONE|DICT|INTERRES
   165   84   85 1    
   166   84  205 1    
   167   85   86 1    
   168   85   87 1    
   169   85  206 1    
   170   86  207 1    
   171   86  208 1    
   172   86  209 1    
   173   87   88 2    
   174   87   89 am   BACKBONE|DICT|INTERRES
   175   89   90 1    
   176   89  210 1    
   177   90   91 1    
   178   90   92 1    
   179   90  211 1    
   180   91  212 1    
   181   91  213 1    
   182   91  214 1    
   183   92   93 2    
   184   92   94 am   BACKBONE|DICT|INTERRES
   185   94   95 1    
   186   94  215 1    
   187   95   96 1    
   188   95   97 1    
   189   95  216 1    
   190   96  217 1    
   191   96  218 1    
   192   96  219 1    
   193   97   98 2    
   194   97   99 am   BACKBONE|DICT|INTERRES
   195   99  100 1    
   196   99  220 1    
   197  100  101 1    
   198  100  102 1    
   199  100  221 1    
   200  101  222 1    
   201  101  223 1    
   202  101  224 1    
   203  102  103 2    
   204  102  104 am   BACKBONE|DICT|INTERRES
   205  104  105 1    
   206  104  225 1    
   207  105  106 1    
   208  105  107 1    
   209  105  226 1    
   210  106  227 1    
   211  106  228 1    
   212  106  229 1    
   213  107  108 2    
   214  107  109 am   BACKBONE|DICT|INTERRES
   215  109  110 1    
   216  109  230 1    
   217  110  111 1    
   218  110  112 1    
   219  110  231 1    
   220  111  232 1    
   221  111  233 1    
   222  111  234 1    
   223  112  113 2    
   224  112  114 am   BACKBONE|DICT|INTERRES
   225  114  115 1    
   226  114  235 1    
   227  115  116 1    
   228  115  117 1    
   229  115  236 1    
   230  116  237 1    
   231  116  238 1    
   232  116  239 1    
   233  117  118 2    
   234  117  119 am   BACKBONE|DICT|INTERRES
   235  119  120 1    
   236  119  240 1    
   237  120  121 1    
   238  120  124 1    
   239  120  241 1    
   240  121  122 am   BACKBONE|DICT|INTERRES
   241  121  123 2    
   242  122  242 1    
   243  122  243 1    
   244  124  125 1    
   245  124  244 1    
   246  124  245 1    
   247  125  126 1    
   248  126  246 1    
   249  126  247 1    
@<TRIPOS>SUBSTRUCTURE
     1 UNK         1 GROUP             0       ****    0 ROOT    
