@<TRIPOS>MOLECULE
3R540
247   249    1
SMALL
USER_CHARGES


@<TRIPOS>ATOM
      1 CA         -4.2792  -15.7818  -50.2972 C.3       0 UNK        -0.1800 
      2 C          -3.1931  -15.6916  -49.2389 C.2       0 UNK         0.5000 
      3 O          -2.0449  -15.3795  -49.5523 O.2       0 UNK        -0.5000 
      4 N          -3.5562  -15.9346  -47.9741 N.am      1 UNK        -0.5000 
      5 CA         -2.6364  -15.9169  -46.8284 C.3       1 UNK         0.1400 
      6 C6         -3.2707  -16.4819  -45.5327 C.3       23 UNK        -0.0398 
      7 S7         -4.1951  -18.0370  -45.7682 S.3       23 UNK        -0.2404 
      8 C8         -2.8851  -19.2966  -45.6383 C.3       23 UNK        -0.0205 
      9 C9         -1.9807  -19.3638  -46.8643 C.ar      23 UNK        -0.0193 
     10 C10        -2.5324  -19.4435  -48.1474 C.ar      23 UNK        -0.1150 
     11 C11        -1.7205  -19.5141  -49.2826 C.ar      23 UNK        -0.0193 
     12 C12        -0.3304  -19.5385  -49.1119 C.ar      23 UNK        -0.1150 
     13 C13         0.2392  -19.4571  -47.8388 C.ar      23 UNK        -0.0193 
     14 C14        -0.5903  -19.3711  -46.7167 C.ar      23 UNK        -0.1150 
     15 C15         1.7537  -19.4259  -47.6971 C.3       23 UNK        -0.0205 
     16 S16         2.4941  -21.0844  -47.7762 S.3       23 UNK        -0.2404 
     17 C17         2.2805  -21.6611  -46.0624 C.3       23 UNK        -0.0398 
     18 CA          1.7388  -23.1067  -45.9820 C.3       11 UNK         0.1400 
     19 N           2.0668  -23.7277  -44.6987 N.am      11 UNK        -0.5000 
     20 C           1.9835  -25.0386  -44.4365 C.2       10 UNK         0.5000 
     21 O           1.6605  -25.8854  -45.2687 O.2       10 UNK        -0.5000 
     22 CA          2.2669  -25.4610  -42.9832 C.3       10 UNK         0.1400 
     23 CB          3.7743  -25.6496  -42.7576 C.3       10 UNK        -0.1800 
     24 N           1.7470  -24.4940  -42.0131 N.am      10 UNK        -0.5000 
     25 C           0.4421  -24.2660  -41.8082 C.2       9 UNK         0.5000 
     26 O          -0.4543  -24.8838  -42.3808 O.2       9 UNK        -0.5000 
     27 CA          0.0783  -23.1269  -40.8384 C.3       9 UNK         0.1400 
     28 CB          0.0441  -23.6410  -39.3916 C.3       9 UNK        -0.1800 
     29 N           0.9766  -21.9710  -40.9237 N.am      9 UNK        -0.5000 
     30 C           1.1371  -21.2063  -42.0117 C.2       8 UNK         0.5000 
     31 O           0.6008  -21.4363  -43.0974 O.2       8 UNK        -0.5000 
     32 CA          2.1021  -20.0159  -41.8786 C.3       8 UNK         0.1400 
     33 CB          3.5183  -20.4262  -42.3096 C.3       8 UNK        -0.1800 
     34 N           1.6806  -18.8650  -42.6778 N.am      8 UNK        -0.5000 
     35 C           0.5875  -18.1253  -42.4427 C.2       7 UNK         0.5000 
     36 O          -0.2074  -18.3608  -41.5306 O.2       7 UNK        -0.5000 
     37 CA          0.3615  -16.9070  -43.3701 C.3       7 UNK         0.1400 
     38 CB         -0.5570  -15.8412  -42.7372 C.3       7 UNK        -0.1800 
     39 N           1.5958  -16.2735  -43.8555 N.am      7 UNK        -0.5000 
     40 C           2.6127  -15.7941  -43.1189 C.2       6 UNK         0.5000 
     41 O           2.6864  -15.8743  -41.8924 O.2       6 UNK        -0.5000 
     42 CA          3.7355  -15.0867  -43.8992 C.3       6 UNK         0.1400 
     43 CB          4.6747  -16.1148  -44.5496 C.3       6 UNK        -0.1800 
     44 N           3.2186  -14.1843  -44.9285 N.am      6 UNK        -0.5000 
     45 C           2.5125  -13.0702  -44.6950 C.2       5 UNK         0.5000 
     46 O           2.2628  -12.6494  -43.5648 O.2       5 UNK        -0.5000 
     47 CA          1.9768  -12.2933  -45.9129 C.3       5 UNK         0.1400 
     48 CB          2.9289  -11.1519  -46.3159 C.3       5 UNK        -0.1800 
     49 N           1.6186  -13.1267  -47.0663 N.am      5 UNK        -0.5000 
     50 C           2.4011  -13.8120  -47.9109 C.2       4 UNK         0.5000 
     51 O           3.6236  -13.9019  -47.7992 O.2       4 UNK        -0.5000 
     52 CA          1.6853  -14.5486  -49.0590 C.3       4 UNK         0.1400 
     53 CB          1.3547  -15.9837  -48.6285 C.3       4 UNK        -0.1800 
     54 N           0.4577  -13.8758  -49.4893 N.am      4 UNK        -0.5000 
     55 C           0.4173  -12.6840  -50.1044 C.2       3 UNK         0.5000 
     56 O           1.4174  -12.0779  -50.4913 O.2       3 UNK        -0.5000 
     57 CA         -0.9683  -12.0272  -50.2467 C.3       3 UNK         0.1400 
     58 CB         -1.7105  -12.5284  -51.4950 C.3       3 UNK        -0.1800 
     59 N          -1.7914  -12.2535  -49.0575 N.am      3 UNK        -0.5000 
     60 C          -1.6258  -11.6147  -47.8897 C.2       2 UNK         0.5000 
     61 O          -0.8061  -10.7138  -47.7137 O.2       2 UNK        -0.5000 
     62 CA         -2.5078  -12.0679  -46.7108 C.3       2 UNK         0.1400 
     63 CB         -3.7780  -11.2084  -46.6276 C.3       2 UNK        -0.1800 
     64 N          -2.8891  -13.4776  -46.7988 N.am      2 UNK        -0.5000 
     65 C          -2.0627  -14.5084  -46.5700 C.2       1 UNK         0.5000 
     66 O          -0.8933  -14.3794  -46.2105 O.2       1 UNK        -0.5000 
     67 C           0.2247  -23.1846  -46.2576 C.2       11 UNK         0.5000 
     68 O          -0.1724  -23.5743  -47.3540 O.2       11 UNK        -0.5000 
     69 N          -0.5860  -22.8868  -45.2322 N.am      12 UNK        -0.5000 
     70 CA         -2.0438  -22.9986  -45.2524 C.3       12 UNK         0.1400 
     71 CB         -2.6107  -22.4529  -43.9320 C.3       12 UNK        -0.1800 
     72 C          -2.5384  -24.4363  -45.4936 C.2       12 UNK         0.5000 
     73 O          -3.5261  -24.6223  -46.2015 O.2       12 UNK        -0.5000 
     74 N          -1.8423  -25.4243  -44.9148 N.am      13 UNK        -0.5000 
     75 CA         -2.1044  -26.8476  -45.1215 C.3       13 UNK         0.1400 
     76 CB         -1.3553  -27.6668  -44.0596 C.3       13 UNK        -0.1800 
     77 C          -1.7296  -27.3180  -46.5390 C.2       13 UNK         0.5000 
     78 O          -2.4667  -28.1107  -47.1258 O.2       13 UNK        -0.5000 
     79 N          -0.5970  -26.8277  -47.0620 N.am      14 UNK        -0.5000 
     80 CA         -0.1029  -27.1383  -48.4030 C.3       14 UNK         0.1400 
     81 CB          1.3647  -26.6987  -48.5263 C.3       14 UNK        -0.1800 
     82 C          -0.9644  -26.5011  -49.5074 C.2       14 UNK         0.5000 
     83 O          -1.4083  -27.2015  -50.4179 O.2       14 UNK        -0.5000 
     84 N          -1.2043  -25.1900  -49.3964 N.am      15 UNK        -0.5000 
     85 CA         -1.9834  -24.3863  -50.3348 C.3       15 UNK         0.1400 
     86 CB         -1.2633  -23.0448  -50.5492 C.3       15 UNK        -0.1800 
     87 C          -3.4255  -24.2187  -49.8216 C.2       15 UNK         0.5000 
     88 O          -3.9188  -23.0958  -49.6934 O.2       15 UNK        -0.5000 
     89 N          -4.0813  -25.3563  -49.5496 N.am      16 UNK        -0.5000 
     90 CA         -5.4119  -25.4772  -48.9404 C.3       16 UNK         0.1400 
     91 CB         -5.7213  -26.9671  -48.7282 C.3       16 UNK        -0.1800 
     92 C          -6.5615  -24.7919  -49.7061 C.2       16 UNK         0.5000 
     93 O          -7.6074  -24.5278  -49.1114 O.2       16 UNK        -0.5000 
     94 N          -6.3516  -24.5006  -50.9968 N.am      17 UNK        -0.5000 
     95 CA         -7.2587  -23.7171  -51.8353 C.3       17 UNK         0.1400 
     96 CB         -6.7953  -23.8198  -53.2970 C.3       17 UNK        -0.1800 
     97 C          -7.3623  -22.2365  -51.4126 C.2       17 UNK         0.5000 
     98 O          -8.3800  -21.6076  -51.7049 O.2       17 UNK        -0.5000 
     99 N          -6.3153  -21.7100  -50.7517 N.am      18 UNK        -0.5000 
    100 CA        -6.1687  -20.3263  -50.2799 C.3       18 UNK         0.1400 
    101 CB        -7.1167  -20.0542  -49.0947 C.3       18 UNK        -0.1800 
    102 C         -6.2968  -19.2836  -51.4139 C.2       18 UNK         0.5000 
    103 O         -6.9145  -18.2331  -51.2300 O.2       18 UNK        -0.5000 
    104 N         -5.7380  -19.6222  -52.5833 N.am      19 UNK        -0.5000 
    105 CA        -5.8254  -18.8442  -53.8163 C.3       19 UNK         0.1400 
    106 CB        -5.3060  -19.7088  -54.9761 C.3       19 UNK        -0.1800 
    107 C         -5.0388  -17.5242  -53.7491 C.2       19 UNK         0.5000 
    108 O         -3.9772  -17.4666  -53.1278 O.2       19 UNK        -0.5000 
    109 N         -5.5312  -16.5077  -54.4689 N.am      20 UNK        -0.5000 
    110 CA        -4.9077  -15.1848  -54.6040 C.3       20 UNK         0.1400 
    111 CB        -5.9040  -14.2390  -55.2933 C.3       20 UNK        -0.1800 
    112 C         -3.5567  -15.1921  -55.3536 C.2       20 UNK         0.5000 
    113 O         -2.8413  -14.1910  -55.3214 O.2       20 UNK        -0.5000 
    114 N         -3.2298  -16.3160  -56.0068 N.am      21 UNK        -0.5000 
    115 CA        -1.9448  -16.5877  -56.6497 C.3       21 UNK         0.1400 
    116 CB        -2.0989  -17.8292  -57.5426 C.3       21 UNK        -0.1800 
    117 C         -0.7818  -16.7813  -55.6526 C.2       21 UNK         0.5000 
    118 O          0.3753  -16.6817  -56.0642 O.2       21 UNK        -0.5000 
    119 N         -1.0936  -17.0638  -54.3793 N.am      22 UNK        -0.5000 
    120 CA        -0.1255  -17.1626  -53.2766 C.3       22 UNK         0.1400 
    121 C          0.6350  -15.8330  -53.0011 C.2       22 UNK         0.5000 
    122 N          1.8763  -15.9099  -52.5395 N.am      22 UNK        -0.7600 
    123 O          0.1099  -14.7374  -53.1760 O.2       22 UNK        -0.5000 
    124 C124       -0.8021  -17.6746  -51.9830 C.3       23 UNK        -0.0398 
    125 S125       -1.3159  -19.4197  -52.1153 S.3       23 UNK        -0.2404 
    126 C126       -2.4009  -19.5731  -50.6539 C.3       23 UNK        -0.0205 
    127 H127       -5.1841  -15.2674  -49.9742 H         1 UNK         0.0600 
    128 H128       -4.5265  -16.8237  -50.4948 H         1 UNK         0.0600 
    129 H129       -3.9440  -15.3284  -51.2301 H         1 UNK         0.0600 
    130 H130       -4.5063  -16.2091  -47.7681 H         1 UNK         0.3000 
    131 H131       -1.7910  -16.5559  -47.0909 H         1 UNK         0.0600 
    132 H132       -3.9729  -15.7622  -45.1075 H         1 UNK         0.0800 
    133 H133       -2.5058  -16.6385  -44.7722 H         1 UNK         0.0800 
    134 H134       -2.3080  -19.1308  -44.7273 H         1 UNK         0.0800 
    135 H135       -3.3746  -20.2627  -45.5265 H         1 UNK         0.0800 
    136 H136       -3.6067  -19.4412  -48.2609 H         1 UNK         0.1150 
    137 H137        0.3265  -19.6174  -49.9647 H         1 UNK         0.1150 
    138 H138       -0.1536  -19.3160  -45.7300 H         1 UNK         0.1150 
    139 H139        2.1749  -18.8369  -48.5121 H         1 UNK         0.0800 
    140 H140        2.0506  -18.9221  -46.7760 H         1 UNK         0.0800 
    141 H141        1.6542  -20.9707  -45.4965 H         1 UNK         0.0800 
    142 H142        3.2681  -21.6122  -45.6026 H         1 UNK         0.0800 
    143 H143        2.2405  -23.6978  -46.7518 H         1 UNK         0.0600 
    144 H144        2.2764  -23.1011  -43.9366 H         1 UNK         0.3000 
    145 H145        1.7722  -26.4195  -42.8115 H         1 UNK         0.0600 
    146 H146        3.9792  -26.0170  -41.7519 H         1 UNK         0.0600 
    147 H147        4.1849  -26.3778  -43.4584 H         1 UNK         0.0600 
    148 H148        4.3237  -24.7171  -42.8934 H         1 UNK         0.0600 
    149 H149        2.4217  -23.9498  -41.4962 H         1 UNK         0.3000 
    150 H150       -0.9248  -22.7835  -41.0990 H         1 UNK         0.0600 
    151 H151        1.0292  -23.9670  -39.0554 H         1 UNK         0.0600 
    152 H152       -0.6336  -24.4904  -39.2951 H         1 UNK         0.0600 
    153 H153       -0.3066  -22.8688  -38.7066 H         1 UNK         0.0600 
    154 H154        1.4664  -21.7233  -40.0759 H         1 UNK         0.3000 
    155 H155        2.1326  -19.7053  -40.8321 H         1 UNK         0.0600 
    156 H156        3.5532  -20.7152  -43.3599 H         1 UNK         0.0600 
    157 H157        3.8788  -21.2725  -41.7234 H         1 UNK         0.0600 
    158 H158        4.2255  -19.6091  -42.1646 H         1 UNK         0.0600 
    159 H159        2.2769  -18.6062  -43.4482 H         1 UNK         0.3000 
    160 H160       -0.1469  -17.2951  -44.2533 H         1 UNK         0.0600 
    161 H161       -0.1242  -15.4291  -41.8251 H         1 UNK         0.0600 
    162 H162       -1.5304  -16.2592  -42.4783 H         1 UNK         0.0600 
    163 H163       -0.7327  -15.0143  -43.4256 H         1 UNK         0.0600 
    164 H164        1.6430  -16.1267  -44.8533 H         1 UNK         0.3000 
    165 H165        4.3155  -14.4934  -43.1892 H         1 UNK         0.0600 
    166 H166        5.5199  -15.6241  -45.0325 H         1 UNK         0.0600 
    167 H167        5.0803  -16.8002  -43.8041 H         1 UNK         0.0600 
    168 H168        4.1616  -16.7138  -45.3031 H         1 UNK         0.0600 
    169 H169        3.4326  -14.4042  -45.8953 H         1 UNK         0.3000 
    170 H170        1.0393  -11.8356  -45.5930 H         1 UNK         0.0600 
    171 H171        3.0877  -10.4670  -45.4822 H         1 UNK         0.0600 
    172 H172        3.9073  -11.5235  -46.6211 H         1 UNK         0.0600 
    173 H173        2.5167  -10.5703  -47.1408 H         1 UNK         0.0600 
    174 H174        0.6208  -13.2476  -47.1898 H         1 UNK         0.3000 
    175 H175        2.3708  -14.5900  -49.9073 H         1 UNK         0.0600 
    176 H176        0.6347  -16.0091  -47.8104 H         1 UNK         0.0600 
    177 H177        0.9389  -16.5563  -49.4546 H         1 UNK         0.0600 
    178 H178        2.2538  -16.4999  -48.2920 H         1 UNK         0.0600 
    179 H179       -0.4196  -14.3486  -49.2912 H         1 UNK         0.3000 
    180 H180       -0.8168  -10.9517  -50.3611 H         1 UNK         0.0600 
    181 H181       -1.8679  -13.6065  -51.4728 H         1 UNK         0.0600 
    182 H182       -1.1410  -12.3051  -52.3980 H         1 UNK         0.0600 
    183 H183       -2.6836  -12.0485  -51.5978 H         1 UNK         0.0600 
    184 H184       -2.4529  -13.0141  -49.1065 H         1 UNK         0.3000 
    185 H185       -1.9351  -11.9213  -45.7923 H         1 UNK         0.0600 
    186 H186       -3.5280  -10.1506  -46.5354 H         1 UNK         0.0600 
    187 H187       -4.4014  -11.3222  -47.5154 H         1 UNK         0.0600 
    188 H188       -4.3788  -11.4758  -45.7581 H         1 UNK         0.0600 
    189 H189       -3.8331  -13.6757  -47.0973 H         1 UNK         0.3000 
    190 H190       -0.1714  -22.5290  -44.3749 H         1 UNK         0.3000 
    191 H191       -2.4061  -22.3797  -46.0755 H         1 UNK         0.0600 
    192 H192       -2.2258  -21.4577  -43.7107 H         1 UNK         0.0600 
    193 H193       -3.6981  -22.3840  -43.9760 H         1 UNK         0.0600 
    194 H194       -2.3594  -23.0968  -43.0896 H         1 UNK         0.0600 
    195 H195       -1.0980  -25.1837  -44.2687 H         1 UNK         0.3000 
    196 H196       -3.1745  -27.0188  -44.9864 H         1 UNK         0.0600 
    197 H197       -1.5488  -28.7333  -44.1806 H         1 UNK         0.0600 
    198 H198       -1.6721  -27.3906  -43.0537 H         1 UNK         0.0600 
    199 H199       -0.2769  -27.5189  -44.1222 H         1 UNK         0.0600 
    200 H200       -0.0215  -26.2143  -46.4963 H         1 UNK         0.3000 
    201 H201       -0.1393  -28.2217  -48.5357 H         1 UNK         0.0600 
    202 H202        1.7583  -26.9231  -49.5184 H         1 UNK         0.0600 
    203 H203        1.9923  -27.2183  -47.8020 H         1 UNK         0.0600 
    204 H204        1.4824  -25.6274  -48.3599 H         1 UNK         0.0600 
    205 H205       -0.8300  -24.6844  -48.5935 H         1 UNK         0.3000 
    206 H206       -2.0378  -24.8876  -51.3031 H         1 UNK         0.0600 
    207 H207       -0.2295  -23.1947  -50.8604 H         1 UNK         0.0600 
    208 H208       -1.7532  -22.4645  -51.3305 H         1 UNK         0.0600 
    209 H209       -1.2522  -22.4419  -49.6402 H         1 UNK         0.0600 
    210 H210       -3.5826  -26.2237  -49.6930 H         1 UNK         0.3000 
    211 H211       -5.3676  -24.9969  -47.9626 H         1 UNK         0.0600 
    212 H212       -5.7347  -27.5128  -49.6723 H         1 UNK         0.0600 
    213 H213       -6.6945  -27.1036  -48.2547 H         1 UNK         0.0600 
    214 H214       -4.9802  -27.4340  -48.0794 H         1 UNK         0.0600 
    215 H215       -5.4674  -24.7654  -51.4043 H         1 UNK         0.3000 
    216 H216       -8.2566  -24.1539  -51.7587 H         1 UNK         0.0600 
    217 H217       -7.4636  -23.2668  -53.9587 H         1 UNK         0.0600 
    218 H218       -6.7879  -24.8555  -53.6372 H         1 UNK         0.0600 
    219 H219       -5.7919  -23.4138  -53.4313 H         1 UNK         0.0600 
    220 H220       -5.5339  -22.3208  -50.5284 H         1 UNK         0.3000 
    221 H221       -5.1511  -20.2432  -49.9016 H         1 UNK         0.0600 
    222 H222       -8.1632  -20.0772  -49.3999 H         1 UNK         0.0600 
    223 H223       -6.9807  -20.7940  -48.3056 H         1 UNK         0.0600 
    224 H224       -6.9231  -19.0746  -48.6559 H         1 UNK         0.0600 
    225 H225       -5.2323  -20.4929  -52.6380 H         1 UNK         0.3000 
    226 H226       -6.8784  -18.6163  -53.9946 H         1 UNK         0.0600 
    227 H227       -5.8741  -20.6354  -55.0631 H         1 UNK         0.0600 
    228 H228       -5.3953  -19.1854  -55.9288 H         1 UNK         0.0600 
    229 H229       -4.2552  -19.9706  -54.8423 H         1 UNK         0.0600 
    230 H230       -6.3976  -16.6409  -54.9707 H         1 UNK         0.3000 
    231 H231       -4.7131  -14.8027  -53.5999 H         1 UNK         0.0600 
    232 H232       -6.1493  -14.5786  -56.3004 H         1 UNK         0.0600 
    233 H233       -5.4944  -13.2315  -55.3775 H         1 UNK         0.0600 
    234 H234       -6.8327  -14.1627  -54.7274 H         1 UNK         0.0600 
    235 H235       -3.8899  -17.0779  -55.9851 H         1 UNK         0.3000 
    236 H236       -1.6939  -15.7354  -57.2846 H         1 UNK         0.0600 
    237 H237       -2.8705  -17.6797  -58.2981 H         1 UNK         0.0600 
    238 H238       -1.1695  -18.0503  -58.0692 H         1 UNK         0.0600 
    239 H239       -2.3640  -18.7126  -56.9601 H         1 UNK         0.0600 
    240 H240       -2.0685  -17.1343  -54.1134 H         1 UNK         0.3000 
    241 H241        0.6223  -17.8976  -53.5812 H         1 UNK         0.0600 
    242 H242        2.3386  -16.7945  -52.4000 H         1 UNK         0.3800 
    243 H243        2.3785  -15.0543  -52.3658 H         1 UNK         0.3800 
    244 H244       -0.1205  -17.5991  -51.1378 H         1 UNK         0.0800 
    245 H245       -1.6650  -17.0554  -51.7327 H         1 UNK         0.0800 
    246 H246       -3.1585  -18.7915  -50.7124 H         1 UNK         0.0800 
    247 H247       -2.9323  -20.5215  -50.7285 H         1 UNK         0.0800 
@<TRIPOS>BOND
     1    1    2 1    
     2    1  127 1    
     3    1  128 1    
     4    1  129 1    
     5    2    3 2    
     6    2    4 am   BACKBONE|DICT|INTERRES
     7    4    5 1    
     8    4  130 1    
     9    5    6 1    
    10    5   65 1    
    11    5  131 1    
    12    6    7 1    
    13    6  132 1    
    14    6  133 1    
    15    7    8 1    
    16    8    9 1    
    17    8  134 1    
    18    8  135 1    
    19    9   10 ar   
    20    9   14 ar   
    21   10   11 ar   
    22   10  136 1    
    23   11   12 ar   
    24   11  126 1    
    25   12   13 ar   
    26   12  137 1    
    27   13   14 ar   
    28   13   15 1    
    29   14  138 1    
    30   15   16 1    
    31   15  139 1    
    32   15  140 1    
    33   16   17 1    
    34   17   18 1    
    35   17  141 1    
    36   17  142 1    
    37   18   19 1    
    38   18   67 1    
    39   18  143 1    
    40   19   20 am   BACKBONE|DICT|INTERRES
    41   19  144 1    
    42   20   21 2    
    43   20   22 1    
    44   22   23 1    
    45   22   24 1    
    46   22  145 1    
    47   23  146 1    
    48   23  147 1    
    49   23  148 1    
    50   24   25 am   BACKBONE|DICT|INTERRES
    51   24  149 1    
    52   25   26 2    
    53   25   27 1    
    54   27   28 1    
    55   27   29 1    
    56   27  150 1    
    57   28  151 1    
    58   28  152 1    
    59   28  153 1    
    60   29   30 am   BACKBONE|DICT|INTERRES
    61   29  154 1    
    62   30   31 2    
    63   30   32 1    
    64   32   33 1    
    65   32   34 1    
    66   32  155 1    
    67   33  156 1    
    68   33  157 1    
    69   33  158 1    
    70   34   35 am   BACKBONE|DICT|INTERRES
    71   34  159 1    
    72   35   36 2    
    73   35   37 1    
    74   37   38 1    
    75   37   39 1    
    76   37  160 1    
    77   38  161 1    
    78   38  162 1    
    79   38  163 1    
    80   39   40 am   BACKBONE|DICT|INTERRES
    81   39  164 1    
    82   40   41 2    
    83   40   42 1    
    84   42   43 1    
    85   42   44 1    
    86   42  165 1    
    87   43  166 1    
    88   43  167 1    
    89   43  168 1    
    90   44   45 am   BACKBONE|DICT|INTERRES
    91   44  169 1    
    92   45   46 2    
    93   45   47 1    
    94   47   48 1    
    95   47   49 1    
    96   47  170 1    
    97   48  171 1    
    98   48  172 1    
    99   48  173 1    
   100   49   50 am   BACKBONE|DICT|INTERRES
   101   49  174 1    
   102   50   51 2    
   103   50   52 1    
   104   52   53 1    
   105   52   54 1    
   106   52  175 1    
   107   53  176 1    
   108   53  177 1    
   109   53  178 1    
   110   54   55 am   BACKBONE|DICT|INTERRES
   111   54  179 1    
   112   55   56 2    
   113   55   57 1    
   114   57   58 1    
   115   57   59 1    
   116   57  180 1    
   117   58  181 1    
   118   58  182 1    
   119   58  183 1    
   120   59   60 am   BACKBONE|DICT|INTERRES
   121   59  184 1    
   122   60   61 2    
   123   60   62 1    
   124   62   63 1    
   125   62   64 1    
   126   62  185 1    
   127   63  186 1    
   128   63  187 1    
   129   63  188 1    
   130   64   65 am   BACKBONE|DICT|INTERRES
   131   64  189 1    
   132   65   66 2    
   133   67   68 2    
   134   67   69 am   BACKBONE|DICT|INTERRES
   135   69   70 1    
   136   69  190 1    
   137   70   71 1    
   138   70   72 1    
   139   70  191 1    
   140   71  192 1    
   141   71  193 1    
   142   71  194 1    
   143   72   73 2    
   144   72   74 am   BACKBONE|DICT|INTERRES
   145   74   75 1    
   146   74  195 1    
   147   75   76 1    
   148   75   77 1    
   149   75  196 1    
   150   76  197 1    
   151   76  198 1    
   152   76  199 1    
   153   77   78 2    
   154   77   79 am   BACKBONE|DICT|INTERRES
   155   79   80 1    
   156   79  200 1    
   157   80   81 1    
   158   80   82 1    
   159   80  201 1    
   160   81  202 1    
   161   81  203 1    
   162   81  204 1    
   163   82   83 2    
   164   82   84 am   BACKBONE|DICT|INTERRES
   165   84   85 1    
   166   84  205 1    
   167   85   86 1    
   168   85   87 1    
   169   85  206 1    
   170   86  207 1    
   171   86  208 1    
   172   86  209 1    
   173   87   88 2    
   174   87   89 am   BACKBONE|DICT|INTERRES
   175   89   90 1    
   176   89  210 1    
   177   90   91 1    
   178   90   92 1    
   179   90  211 1    
   180   91  212 1    
   181   91  213 1    
   182   91  214 1    
   183   92   93 2    
   184   92   94 am   BACKBONE|DICT|INTERRES
   185   94   95 1    
   186   94  215 1    
   187   95   96 1    
   188   95   97 1    
   189   95  216 1    
   190   96  217 1    
   191   96  218 1    
   192   96  219 1    
   193   97   98 2    
   194   97   99 am   BACKBONE|DICT|INTERRES
   195   99  100 1    
   196   99  220 1    
   197  100  101 1    
   198  100  102 1    
   199  100  221 1    
   200  101  222 1    
   201  101  223 1    
   202  101  224 1    
   203  102  103 2    
   204  102  104 am   BACKBONE|DICT|INTERRES
   205  104  105 1    
   206  104  225 1    
   207  105  106 1    
   208  105  107 1    
   209  105  226 1    
   210  106  227 1    
   211  106  228 1    
   212  106  229 1    
   213  107  108 2    
   214  107  109 am   BACKBONE|DICT|INTERRES
   215  109  110 1    
   216  109  230 1    
   217  110  111 1    
   218  110  112 1    
   219  110  231 1    
   220  111  232 1    
   221  111  233 1    
   222  111  234 1    
   223  112  113 2    
   224  112  114 am   BACKBONE|DICT|INTERRES
   225  114  115 1    
   226  114  235 1    
   227  115  116 1    
   228  115  117 1    
   229  115  236 1    
   230  116  237 1    
   231  116  238 1    
   232  116  239 1    
   233  117  118 2    
   234  117  119 am   BACKBONE|DICT|INTERRES
   235  119  120 1    
   236  119  240 1    
   237  120  121 1    
   238  120  124 1    
   239  120  241 1    
   240  121  122 am   BACKBONE|DICT|INTERRES
   241  121  123 2    
   242  122  242 1    
   243  122  243 1    
   244  124  125 1    
   245  124  244 1    
   246  124  245 1    
   247  125  126 1    
   248  126  246 1    
   249  126  247 1    
@<TRIPOS>SUBSTRUCTURE
     1 UNK         1 GROUP             0       ****    0 ROOT    
