@<TRIPOS>MOLECULE
3R540
247   249    1
SMALL
USER_CHARGES


@<TRIPOS>ATOM
      1 CA          5.0164  -16.8973  -47.5096 C.3       0 UNK        -0.1800 
      2 C           4.7168  -15.5366  -48.1232 C.2       0 UNK         0.5000 
      3 O           5.6434  -14.7729  -48.3939 O.2       0 UNK        -0.5000 
      4 N           3.4276  -15.2414  -48.3411 N.am      1 UNK        -0.5000 
      5 CA          2.9004  -14.0043  -48.9404 C.3       1 UNK         0.1400 
      6 C6          3.2942  -13.7991  -50.4321 C.3       23 UNK        -0.0398 
      7 S7          2.9362  -15.2505  -51.4793 S.3       23 UNK        -0.2404 
      8 C8          1.1475  -15.0611  -51.7590 C.3       23 UNK        -0.0205 
      9 C9          0.4933  -16.4122  -51.9974 C.ar      23 UNK        -0.0193 
     10 C10         0.0026  -16.7593  -53.2591 C.ar      23 UNK        -0.1150 
     11 C11        -0.5865  -18.0103  -53.4708 C.ar      23 UNK        -0.0193 
     12 C12        -0.6893  -18.9128  -52.4074 C.ar      23 UNK        -0.1150 
     13 C13        -0.2053  -18.5741  -51.1397 C.ar      23 UNK        -0.0193 
     14 C14         0.3848  -17.3232  -50.9437 C.ar      23 UNK        -0.1150 
     15 C15        -0.2834  -19.5703  -49.9932 C.3       23 UNK        -0.0205 
     16 S16        -1.2059  -18.9123  -48.5628 S.3       23 UNK        -0.2404 
     17 C17        -2.2134  -20.3597  -48.1103 C.3       23 UNK        -0.0398 
     18 CA         -1.3691  -21.4989  -47.4954 C.3       11 UNK         0.1400 
     19 N          -0.7041  -21.0975  -46.2529 N.am      11 UNK        -0.5000 
     20 C           0.2528  -21.7930  -45.6249 C.2       10 UNK         0.5000 
     21 O           0.6796  -22.8759  -46.0265 O.2       10 UNK        -0.5000 
     22 CA          0.7702  -21.2149  -44.2957 C.3       10 UNK         0.1400 
     23 CB          1.9740  -20.2968  -44.5503 C.3       10 UNK        -0.1800 
     24 N          -0.2414  -20.4813  -43.5276 N.am      10 UNK        -0.5000 
     25 C          -1.4182  -20.9746  -43.1110 C.2       9 UNK         0.5000 
     26 O          -1.8301  -22.0966  -43.4110 O.2       9 UNK        -0.5000 
     27 CA         -2.2663  -20.0476  -42.2174 C.3       9 UNK         0.1400 
     28 CB         -3.4593  -20.7652  -41.5529 C.3       9 UNK        -0.1800 
     29 N          -1.4535  -19.3439  -41.2220 N.am      9 UNK        -0.5000 
     30 C          -0.7067  -19.8761  -40.2420 C.2       8 UNK         0.5000 
     31 O          -0.6575  -21.0807  -39.9902 O.2       8 UNK        -0.5000 
     32 CA          0.1535  -18.9037  -39.4076 C.3       8 UNK         0.1400 
     33 CB          1.6388  -19.0709  -39.7658 C.3       8 UNK        -0.1800 
     34 N          -0.2181  -17.4972  -39.5801 N.am      8 UNK        -0.5000 
     35 C          -1.3225  -16.9295  -39.0760 C.2       7 UNK         0.5000 
     36 O          -2.1165  -17.5146  -38.3386 O.2       7 UNK        -0.5000 
     37 CA         -1.6077  -15.4763  -39.4991 C.3       7 UNK         0.1400 
     38 CB         -0.8646  -14.4913  -38.5843 C.3       7 UNK        -0.1800 
     39 N          -1.2603  -15.2070  -40.8978 N.am      7 UNK        -0.5000 
     40 C          -1.8579  -15.7718  -41.9579 C.2       6 UNK         0.5000 
     41 O          -2.7906  -16.5700  -41.8712 O.2       6 UNK        -0.5000 
     42 CA         -1.2848  -15.4339  -43.3466 C.3       6 UNK         0.1400 
     43 CB         -1.7608  -14.0534  -43.8221 C.3       6 UNK        -0.1800 
     44 N           0.1756  -15.4858  -43.3707 N.am      6 UNK        -0.5000 
     45 C           0.9029  -16.5959  -43.1838 C.2       5 UNK         0.5000 
     46 O           0.4181  -17.7184  -43.0376 O.2       5 UNK        -0.5000 
     47 CA          2.4276  -16.4115  -43.1018 C.3       5 UNK         0.1400 
     48 CB          3.0579  -16.3902  -44.5025 C.3       5 UNK        -0.1800 
     49 N           2.7939  -15.1922  -42.3797 N.am      5 UNK        -0.5000 
     50 C           2.6229  -15.0133  -41.0622 C.2       4 UNK         0.5000 
     51 O           2.1583  -15.8697  -40.3109 O.2       4 UNK        -0.5000 
     52 CA          2.9952  -13.6296  -40.4991 C.3       4 UNK         0.1400 
     53 CB          4.5087  -13.5312  -40.2567 C.3       4 UNK        -0.1800 
     54 N           2.5703  -12.5351  -41.3732 N.am      4 UNK        -0.5000 
     55 C           1.2913  -12.2214  -41.6235 C.2       3 UNK         0.5000 
     56 O           0.3338  -12.8031  -41.1159 O.2       3 UNK        -0.5000 
     57 CA          1.0380  -11.1042  -42.6529 C.3       3 UNK         0.1400 
     58 CB          1.0504   -9.7288  -41.9695 C.3       3 UNK        -0.1800 
     59 N           1.9905  -11.1029  -43.7679 N.am      3 UNK        -0.5000 
     60 C           2.1744  -12.1228  -44.6159 C.2       2 UNK         0.5000 
     61 O           1.5871  -13.2051  -44.5251 O.2       2 UNK        -0.5000 
     62 CA          3.2138  -11.9121  -45.7236 C.3       2 UNK         0.1400 
     63 CB          4.6426  -12.0429  -45.1683 C.3       2 UNK        -0.1800 
     64 N           3.0053  -12.9236  -46.7517 N.am      2 UNK        -0.5000 
     65 C           3.2045  -12.7671  -48.0643 C.2       1 UNK         0.5000 
     66 O           3.6115  -11.7202  -48.5725 O.2       1 UNK        -0.5000 
     67 C          -2.2079  -22.7867  -47.3756 C.2       11 UNK         0.5000 
     68 O          -2.5610  -23.3483  -48.4112 O.2       11 UNK        -0.5000 
     69 N          -2.4979  -23.2604  -46.1554 N.am      12 UNK        -0.5000 
     70 CA         -3.1101  -24.5712  -45.9259 C.3       12 UNK         0.1400 
     71 CB         -3.6419  -24.6379  -44.4866 C.3       12 UNK        -0.1800 
     72 C          -2.1395  -25.7405  -46.2004 C.2       12 UNK         0.5000 
     73 O          -2.6031  -26.8535  -46.4501 O.2       12 UNK        -0.5000 
     74 N          -0.8261  -25.4736  -46.1448 N.am      13 UNK        -0.5000 
     75 CA          0.2402  -26.4365  -46.4181 C.3       13 UNK         0.1400 
     76 CB          1.2313  -26.4323  -45.2432 C.3       13 UNK        -0.1800 
     77 C           0.9663  -26.1094  -47.7337 C.2       13 UNK         0.5000 
     78 O           1.2724  -27.0242  -48.4989 O.2       13 UNK        -0.5000 
     79 N           1.2342  -24.8180  -47.9776 N.am      14 UNK        -0.5000 
     80 CA          1.9527  -24.3213  -49.1550 C.3       14 UNK         0.1400 
     81 CB          2.4767  -22.9068  -48.8581 C.3       14 UNK        -0.1800 
     82 C           1.1099  -24.3244  -50.4457 C.2       14 UNK         0.5000 
     83 O           1.6779  -24.2548  -51.5363 O.2       14 UNK        -0.5000 
     84 N          -0.2167  -24.4004  -50.3062 N.am      15 UNK        -0.5000 
     85 CA         -1.1895  -24.4785  -51.3889 C.3       15 UNK         0.1400 
     86 CB         -1.5445  -23.0536  -51.8722 C.3       15 UNK        -0.1800 
     87 C          -2.3959  -25.2911  -50.8830 C.2       15 UNK         0.5000 
     88 O          -2.2168  -26.2086  -50.0788 O.2       15 UNK        -0.5000 
     89 N          -3.6006  -24.9264  -51.3323 N.am      16 UNK        -0.5000 
     90 CA         -4.8755  -25.4337  -50.8314 C.3       16 UNK         0.1400 
     91 CB         -5.5307  -26.3321  -51.8968 C.3       16 UNK        -0.1800 
     92 C          -5.7435  -24.2345  -50.4132 C.2       16 UNK         0.5000 
     93 O          -6.8383  -24.0435  -50.9426 O.2       16 UNK        -0.5000 
     94 N          -5.2016  -23.4302  -49.4861 N.am      17 UNK        -0.5000 
     95 CA         -5.7800  -22.2128  -48.9015 C.3       17 UNK         0.1400 
     96 CB         -7.1276  -22.4997  -48.2060 C.3       17 UNK        -0.1800 
     97 C          -5.8352  -21.0170  -49.8770 C.2       17 UNK         0.5000 
     98 O          -6.6683  -20.1258  -49.7034 O.2       17 UNK        -0.5000 
     99 N          -4.9131  -21.0024  -50.8531 N.am      18 UNK        -0.5000 
    100 CA        -4.7314  -19.9773  -51.8891 C.3       18 UNK         0.1400 
    101 CB        -4.2198  -18.6601  -51.2638 C.3       18 UNK        -0.1800 
    102 C         -5.9858  -19.8075  -52.7767 C.2       18 UNK         0.5000 
    103 O         -6.6606  -20.8004  -53.0600 O.2       18 UNK        -0.5000 
    104 N         -6.2600  -18.5732  -53.2260 N.am      19 UNK        -0.5000 
    105 CA        -7.3740  -18.1741  -54.0924 C.3       19 UNK         0.1400 
    106 CB        -8.7107  -18.2493  -53.3205 C.3       19 UNK        -0.1800 
    107 C         -7.3658  -18.9653  -55.4159 C.2       19 UNK         0.5000 
    108 O         -6.4794  -18.7432  -56.2409 O.2       19 UNK        -0.5000 
    109 N         -8.3089  -19.9027  -55.5803 N.am      20 UNK        -0.5000 
    110 CA        -8.4000  -20.8163  -56.7214 C.3       20 UNK         0.1400 
    111 CB        -9.6881  -21.6439  -56.5996 C.3       20 UNK        -0.1800 
    112 C         -7.1759  -21.7421  -56.8741 C.2       20 UNK         0.5000 
    113 O         -6.8418  -22.1172  -57.9992 O.2       20 UNK        -0.5000 
    114 N         -6.4980  -22.0587  -55.7593 N.am      21 UNK        -0.5000 
    115 CA        -5.2727  -22.8629  -55.7352 C.3       21 UNK         0.1400 
    116 CB        -4.9555  -23.2706  -54.2890 C.3       21 UNK        -0.1800 
    117 C         -4.0613  -22.1527  -56.3723 C.2       21 UNK         0.5000 
    118 O         -3.0972  -22.8266  -56.7367 O.2       21 UNK        -0.5000 
    119 N         -4.1314  -20.8217  -56.5120 N.am      22 UNK        -0.5000 
    120 CA        -3.1442  -20.0076  -57.2361 C.3       22 UNK         0.1400 
    121 C         -3.2821  -20.0820  -58.7872 C.2       22 UNK         0.5000 
    122 N         -4.3143  -20.7061  -59.3457 N.am      22 UNK        -0.7600 
    123 O         -2.4258  -19.5693  -59.5025 O.2       22 UNK        -0.5000 
    124 C124       -3.1350  -18.5327  -56.7566 C.3       23 UNK        -0.0398 
    125 S125       -2.8984  -18.3447  -54.9558 S.3       23 UNK        -0.2404 
    126 C126       -1.0838  -18.3973  -54.8545 C.3       23 UNK        -0.0205 
    127 H127        4.1072  -17.4704  -47.3266 H         1 UNK         0.0600 
    128 H128        5.5391  -16.7747  -46.5611 H         1 UNK         0.0600 
    129 H129        5.6530  -17.4769  -48.1779 H         1 UNK         0.0600 
    130 H130        2.7284  -15.9289  -48.1006 H         1 UNK         0.3000 
    131 H131        1.8156  -14.1089  -48.9068 H         1 UNK         0.0600 
    132 H132        2.7773  -12.9341  -50.8513 H         1 UNK         0.0800 
    133 H133        4.3605  -13.5835  -50.5167 H         1 UNK         0.0800 
    134 H134        0.6725  -14.5921  -50.8971 H         1 UNK         0.0800 
    135 H135        0.9850  -14.3904  -52.6041 H         1 UNK         0.0800 
    136 H136        0.0881  -16.0598  -54.0789 H         1 UNK         0.1150 
    137 H137       -1.1402  -19.8809  -52.5742 H         1 UNK         0.1150 
    138 H138        0.7701  -17.0606  -49.9684 H         1 UNK         0.1150 
    139 H139       -0.7382  -20.4987  -50.3391 H         1 UNK         0.0800 
    140 H140        0.7275  -19.8271  -49.6739 H         1 UNK         0.0800 
    141 H141       -2.7338  -20.6948  -49.0086 H         1 UNK         0.0800 
    142 H142       -2.9885  -20.0367  -47.4133 H         1 UNK         0.0800 
    143 H143       -0.5799  -21.7461  -48.2063 H         1 UNK         0.0600 
    144 H144       -0.9955  -20.2187  -45.8507 H         1 UNK         0.3000 
    145 H145        1.1006  -22.0545  -43.6812 H         1 UNK         0.0600 
    146 H146        2.3973  -19.9303  -43.6148 H         1 UNK         0.0600 
    147 H147        2.7661  -20.8264  -45.0815 H         1 UNK         0.0600 
    148 H148        1.6936  -19.4328  -45.1535 H         1 UNK         0.0600 
    149 H149        0.0023  -19.5304  -43.2574 H         1 UNK         0.3000 
    150 H150       -2.6713  -19.2788  -42.8767 H         1 UNK         0.0600 
    151 H151       -4.1340  -21.1770  -42.3043 H         1 UNK         0.0600 
    152 H152       -4.0393  -20.0766  -40.9386 H         1 UNK         0.0600 
    153 H153       -3.1359  -21.5910  -40.9186 H         1 UNK         0.0600 
    154 H154       -1.4051  -18.3410  -41.3455 H         1 UNK         0.3000 
    155 H155        0.0232  -19.1692  -38.3566 H         1 UNK         0.0600 
    156 H156        1.8307  -18.8150  -40.8083 H         1 UNK         0.0600 
    157 H157        1.9664  -20.1002  -39.6150 H         1 UNK         0.0600 
    158 H158        2.2691  -18.4360  -39.1429 H         1 UNK         0.0600 
    159 H159        0.4249  -16.9231  -40.1158 H         1 UNK         0.3000 
    160 H160       -2.6796  -15.3034  -39.3835 H         1 UNK         0.0600 
    161 H161        0.2170  -14.5844  -38.6872 H         1 UNK         0.0600 
    162 H162       -1.1123  -14.6663  -37.5366 H         1 UNK         0.0600 
    163 H163       -1.1348  -13.4605  -38.8138 H         1 UNK         0.0600 
    164 H164       -0.5332  -14.5144  -41.0554 H         1 UNK         0.3000 
    165 H165       -1.6556  -16.1808  -44.0517 H         1 UNK         0.0600 
    166 H166       -1.3836  -13.8286  -44.8200 H         1 UNK         0.0600 
    167 H167       -2.8497  -14.0113  -43.8672 H         1 UNK         0.0600 
    168 H168       -1.4298  -13.2591  -43.1537 H         1 UNK         0.0600 
    169 H169        0.6626  -14.6114  -43.5436 H         1 UNK         0.3000 
    170 H170        2.8380  -17.2655  -42.5590 H         1 UNK         0.0600 
    171 H171        2.8481  -17.3160  -45.0379 H         1 UNK         0.0600 
    172 H172        2.6762  -15.5698  -45.1090 H         1 UNK         0.0600 
    173 H173        4.1415  -16.2882  -44.4442 H         1 UNK         0.0600 
    174 H174        3.1234  -14.4170  -42.9349 H         1 UNK         0.3000 
    175 H175        2.4879  -13.5139  -39.5390 H         1 UNK         0.0600 
    176 H176        5.0737  -13.6102  -41.1864 H         1 UNK         0.0600 
    177 H177        4.7711  -12.5847  -39.7837 H         1 UNK         0.0600 
    178 H178        4.8502  -14.3291  -39.5958 H         1 UNK         0.0600 
    179 H179        3.2957  -12.0057  -41.8335 H         1 UNK         0.3000 
    180 H180        0.0428  -11.2654  -43.0717 H         1 UNK         0.0600 
    181 H181        2.0330   -9.4903  -41.5605 H         1 UNK         0.0600 
    182 H182        0.3352   -9.6954  -41.1465 H         1 UNK         0.0600 
    183 H183        0.7758   -8.9383  -42.6682 H         1 UNK         0.0600 
    184 H184        2.5191  -10.2531  -43.9035 H         1 UNK         0.3000 
    185 H185        3.0683  -10.9148  -46.1440 H         1 UNK         0.0600 
    186 H186        4.8135  -13.0255  -44.7262 H         1 UNK         0.0600 
    187 H187        5.3838  -11.8998  -45.9550 H         1 UNK         0.0600 
    188 H188        4.8392  -11.2951  -44.3993 H         1 UNK         0.0600 
    189 H189        2.6027  -13.7854  -46.4088 H         1 UNK         0.3000 
    190 H190       -2.1921  -22.7545  -45.3299 H         1 UNK         0.3000 
    191 H191       -3.9594  -24.6797  -46.6043 H         1 UNK         0.0600 
    192 H192       -4.3335  -23.8206  -44.2814 H         1 UNK         0.0600 
    193 H193       -4.1787  -25.5711  -44.3124 H         1 UNK         0.0600 
    194 H194       -2.8333  -24.5848  -43.7568 H         1 UNK         0.0600 
    195 H195       -0.5304  -24.5266  -45.9394 H         1 UNK         0.3000 
    196 H196       -0.1674  -27.4454  -46.5094 H         1 UNK         0.0600 
    197 H197        2.0451  -27.1379  -45.4156 H         1 UNK         0.0600 
    198 H198        0.7397  -26.7233  -44.3148 H         1 UNK         0.0600 
    199 H199        1.6755  -25.4476  -45.0913 H         1 UNK         0.0600 
    200 H200        1.0004  -24.1235  -47.2714 H         1 UNK         0.3000 
    201 H201        2.8142  -24.9697  -49.3284 H         1 UNK         0.0600 
    202 H202        3.1150  -22.8999  -47.9743 H         1 UNK         0.0600 
    203 H203        1.6642  -22.2011  -48.6880 H         1 UNK         0.0600 
    204 H204        3.0706  -22.5268  -49.6903 H         1 UNK         0.0600 
    205 H205       -0.6061  -24.5236  -49.3805 H         1 UNK         0.3000 
    206 H206       -0.7592  -25.0389  -52.2212 H         1 UNK         0.0600 
    207 H207       -0.6478  -22.5001  -52.1515 H         1 UNK         0.0600 
    208 H208       -2.1838  -23.0766  -52.7549 H         1 UNK         0.0600 
    209 H209       -2.0553  -22.4823  -51.0965 H         1 UNK         0.0600 
    210 H210       -3.6594  -24.1659  -51.9918 H         1 UNK         0.3000 
    211 H211       -4.7269  -26.0341  -49.9312 H         1 UNK         0.0600 
    212 H212       -5.7167  -25.7959  -52.8265 H         1 UNK         0.0600 
    213 H213       -6.4863  -26.7221  -51.5444 H         1 UNK         0.0600 
    214 H214       -4.8969  -27.1883  -52.1280 H         1 UNK         0.0600 
    215 H215       -4.2666  -23.6537  -49.1513 H         1 UNK         0.3000 
    216 H216       -5.0849  -21.9099  -48.1179 H         1 UNK         0.0600 
    217 H217       -7.4540  -21.6409  -47.6184 H         1 UNK         0.0600 
    218 H218       -7.0471  -23.3454  -47.5231 H         1 UNK         0.0600 
    219 H219       -7.9179  -22.7194  -48.9240 H         1 UNK         0.0600 
    220 H220       -4.3096  -21.8061  -50.9197 H         1 UNK         0.3000 
    221 H221       -3.9459  -20.3478  -52.5491 H         1 UNK         0.0600 
    222 H222       -4.9802  -18.1756  -50.6506 H         1 UNK         0.0600 
    223 H223       -3.3521  -18.8411  -50.6319 H         1 UNK         0.0600 
    224 H224       -3.9023  -17.9500  -52.0277 H         1 UNK         0.0600 
    225 H225       -5.6211  -17.8316  -52.9772 H         1 UNK         0.3000 
    226 H226       -7.2052  -17.1300  -54.3598 H         1 UNK         0.0600 
    227 H227       -8.6925  -17.5895  -52.4530 H         1 UNK         0.0600 
    228 H228       -9.5453  -17.9310  -53.9467 H         1 UNK         0.0600 
    229 H229       -8.9279  -19.2550  -52.9592 H         1 UNK         0.0600 
    230 H230       -8.9729  -20.0459  -54.8333 H         1 UNK         0.3000 
    231 H231       -8.4660  -20.2102  -57.6272 H         1 UNK         0.0600 
    232 H232       -9.6907  -22.2522  -55.6942 H         1 UNK         0.0600 
    233 H233       -9.8007  -22.3188  -57.4492 H         1 UNK         0.0600 
    234 H234      -10.5693  -21.0025  -56.5770 H         1 UNK         0.0600 
    235 H235       -6.8049  -21.6774  -54.8689 H         1 UNK         0.3000 
    236 H236       -5.4623  -23.7722  -56.3093 H         1 UNK         0.0600 
    237 H237       -5.8381  -23.6670  -53.7875 H         1 UNK         0.0600 
    238 H238       -4.1864  -24.0434  -54.2670 H         1 UNK         0.0600 
    239 H239       -4.5904  -22.4276  -53.7041 H         1 UNK         0.0600 
    240 H240       -4.9650  -20.3329  -56.2099 H         1 UNK         0.3000 
    241 H241       -2.1571  -20.4170  -57.0138 H         1 UNK         0.0600 
    242 H242       -5.0332  -21.1412  -58.7822 H         1 UNK         0.3800 
    243 H243       -4.3800  -20.7461  -60.3506 H         1 UNK         0.3800 
    244 H244       -4.0740  -18.0458  -57.0221 H         1 UNK         0.0800 
    245 H245       -2.3564  -17.9665  -57.2707 H         1 UNK         0.0800 
    246 H246       -0.6561  -17.7316  -55.6057 H         1 UNK         0.0800 
    247 H247       -0.7373  -19.4024  -55.0992 H         1 UNK         0.0800 
@<TRIPOS>BOND
     1    1    2 1    
     2    1  127 1    
     3    1  128 1    
     4    1  129 1    
     5    2    3 2    
     6    2    4 am   BACKBONE|DICT|INTERRES
     7    4    5 1    
     8    4  130 1    
     9    5    6 1    
    10    5   65 1    
    11    5  131 1    
    12    6    7 1    
    13    6  132 1    
    14    6  133 1    
    15    7    8 1    
    16    8    9 1    
    17    8  134 1    
    18    8  135 1    
    19    9   10 ar   
    20    9   14 ar   
    21   10   11 ar   
    22   10  136 1    
    23   11   12 ar   
    24   11  126 1    
    25   12   13 ar   
    26   12  137 1    
    27   13   14 ar   
    28   13   15 1    
    29   14  138 1    
    30   15   16 1    
    31   15  139 1    
    32   15  140 1    
    33   16   17 1    
    34   17   18 1    
    35   17  141 1    
    36   17  142 1    
    37   18   19 1    
    38   18   67 1    
    39   18  143 1    
    40   19   20 am   BACKBONE|DICT|INTERRES
    41   19  144 1    
    42   20   21 2    
    43   20   22 1    
    44   22   23 1    
    45   22   24 1    
    46   22  145 1    
    47   23  146 1    
    48   23  147 1    
    49   23  148 1    
    50   24   25 am   BACKBONE|DICT|INTERRES
    51   24  149 1    
    52   25   26 2    
    53   25   27 1    
    54   27   28 1    
    55   27   29 1    
    56   27  150 1    
    57   28  151 1    
    58   28  152 1    
    59   28  153 1    
    60   29   30 am   BACKBONE|DICT|INTERRES
    61   29  154 1    
    62   30   31 2    
    63   30   32 1    
    64   32   33 1    
    65   32   34 1    
    66   32  155 1    
    67   33  156 1    
    68   33  157 1    
    69   33  158 1    
    70   34   35 am   BACKBONE|DICT|INTERRES
    71   34  159 1    
    72   35   36 2    
    73   35   37 1    
    74   37   38 1    
    75   37   39 1    
    76   37  160 1    
    77   38  161 1    
    78   38  162 1    
    79   38  163 1    
    80   39   40 am   BACKBONE|DICT|INTERRES
    81   39  164 1    
    82   40   41 2    
    83   40   42 1    
    84   42   43 1    
    85   42   44 1    
    86   42  165 1    
    87   43  166 1    
    88   43  167 1    
    89   43  168 1    
    90   44   45 am   BACKBONE|DICT|INTERRES
    91   44  169 1    
    92   45   46 2    
    93   45   47 1    
    94   47   48 1    
    95   47   49 1    
    96   47  170 1    
    97   48  171 1    
    98   48  172 1    
    99   48  173 1    
   100   49   50 am   BACKBONE|DICT|INTERRES
   101   49  174 1    
   102   50   51 2    
   103   50   52 1    
   104   52   53 1    
   105   52   54 1    
   106   52  175 1    
   107   53  176 1    
   108   53  177 1    
   109   53  178 1    
   110   54   55 am   BACKBONE|DICT|INTERRES
   111   54  179 1    
   112   55   56 2    
   113   55   57 1    
   114   57   58 1    
   115   57   59 1    
   116   57  180 1    
   117   58  181 1    
   118   58  182 1    
   119   58  183 1    
   120   59   60 am   BACKBONE|DICT|INTERRES
   121   59  184 1    
   122   60   61 2    
   123   60   62 1    
   124   62   63 1    
   125   62   64 1    
   126   62  185 1    
   127   63  186 1    
   128   63  187 1    
   129   63  188 1    
   130   64   65 am   BACKBONE|DICT|INTERRES
   131   64  189 1    
   132   65   66 2    
   133   67   68 2    
   134   67   69 am   BACKBONE|DICT|INTERRES
   135   69   70 1    
   136   69  190 1    
   137   70   71 1    
   138   70   72 1    
   139   70  191 1    
   140   71  192 1    
   141   71  193 1    
   142   71  194 1    
   143   72   73 2    
   144   72   74 am   BACKBONE|DICT|INTERRES
   145   74   75 1    
   146   74  195 1    
   147   75   76 1    
   148   75   77 1    
   149   75  196 1    
   150   76  197 1    
   151   76  198 1    
   152   76  199 1    
   153   77   78 2    
   154   77   79 am   BACKBONE|DICT|INTERRES
   155   79   80 1    
   156   79  200 1    
   157   80   81 1    
   158   80   82 1    
   159   80  201 1    
   160   81  202 1    
   161   81  203 1    
   162   81  204 1    
   163   82   83 2    
   164   82   84 am   BACKBONE|DICT|INTERRES
   165   84   85 1    
   166   84  205 1    
   167   85   86 1    
   168   85   87 1    
   169   85  206 1    
   170   86  207 1    
   171   86  208 1    
   172   86  209 1    
   173   87   88 2    
   174   87   89 am   BACKBONE|DICT|INTERRES
   175   89   90 1    
   176   89  210 1    
   177   90   91 1    
   178   90   92 1    
   179   90  211 1    
   180   91  212 1    
   181   91  213 1    
   182   91  214 1    
   183   92   93 2    
   184   92   94 am   BACKBONE|DICT|INTERRES
   185   94   95 1    
   186   94  215 1    
   187   95   96 1    
   188   95   97 1    
   189   95  216 1    
   190   96  217 1    
   191   96  218 1    
   192   96  219 1    
   193   97   98 2    
   194   97   99 am   BACKBONE|DICT|INTERRES
   195   99  100 1    
   196   99  220 1    
   197  100  101 1    
   198  100  102 1    
   199  100  221 1    
   200  101  222 1    
   201  101  223 1    
   202  101  224 1    
   203  102  103 2    
   204  102  104 am   BACKBONE|DICT|INTERRES
   205  104  105 1    
   206  104  225 1    
   207  105  106 1    
   208  105  107 1    
   209  105  226 1    
   210  106  227 1    
   211  106  228 1    
   212  106  229 1    
   213  107  108 2    
   214  107  109 am   BACKBONE|DICT|INTERRES
   215  109  110 1    
   216  109  230 1    
   217  110  111 1    
   218  110  112 1    
   219  110  231 1    
   220  111  232 1    
   221  111  233 1    
   222  111  234 1    
   223  112  113 2    
   224  112  114 am   BACKBONE|DICT|INTERRES
   225  114  115 1    
   226  114  235 1    
   227  115  116 1    
   228  115  117 1    
   229  115  236 1    
   230  116  237 1    
   231  116  238 1    
   232  116  239 1    
   233  117  118 2    
   234  117  119 am   BACKBONE|DICT|INTERRES
   235  119  120 1    
   236  119  240 1    
   237  120  121 1    
   238  120  124 1    
   239  120  241 1    
   240  121  122 am   BACKBONE|DICT|INTERRES
   241  121  123 2    
   242  122  242 1    
   243  122  243 1    
   244  124  125 1    
   245  124  244 1    
   246  124  245 1    
   247  125  126 1    
   248  126  246 1    
   249  126  247 1    
@<TRIPOS>SUBSTRUCTURE
     1 UNK         1 GROUP             0       ****    0 ROOT    
