@<TRIPOS>MOLECULE
3R540
247   249    1
SMALL
USER_CHARGES


@<TRIPOS>ATOM
      1 CA          2.9761  -10.7397  -48.1200 C.3       0 UNK        -0.1800 
      2 C           2.1618  -11.8718  -48.7310 C.2       0 UNK         0.5000 
      3 O           2.3062  -12.1571  -49.9191 O.2       0 UNK        -0.5000 
      4 N           1.3155  -12.5141  -47.9217 N.am      1 UNK        -0.5000 
      5 CA          0.4815  -13.6619  -48.2741 C.3       1 UNK         0.1400 
      6 C6         -0.7040  -13.3051  -49.2245 C.3       23 UNK        -0.0398 
      7 S7         -0.5382  -14.0770  -50.8721 S.3       23 UNK        -0.2404 
      8 C8         -1.2911  -15.7200  -50.6414 C.3       23 UNK        -0.0205 
      9 C9         -0.2669  -16.8316  -50.8262 C.ar      23 UNK        -0.0193 
     10 C10        -0.0632  -17.3839  -52.0945 C.ar      23 UNK        -0.1150 
     11 C11         0.8637  -18.4128  -52.2791 C.ar      23 UNK        -0.0193 
     12 C12         1.5935  -18.8879  -51.1874 C.ar      23 UNK        -0.1150 
     13 C13         1.3890  -18.3594  -49.9107 C.ar      23 UNK        -0.0193 
     14 C14         0.4621  -17.3261  -49.7383 C.ar      23 UNK        -0.1150 
     15 C15         2.1585  -18.9157  -48.7173 C.3       23 UNK        -0.0205 
     16 S16         1.8872  -20.7044  -48.4740 S.3       23 UNK        -0.2404 
     17 C17         0.0676  -20.7612  -48.3967 C.3       23 UNK        -0.0398 
     18 CA         -0.4867  -21.9534  -47.5876 C.3       11 UNK         0.1400 
     19 N           0.0068  -21.9811  -46.2079 N.am      11 UNK        -0.5000 
     20 C          -0.0958  -23.0392  -45.3898 C.2       10 UNK         0.5000 
     21 O          -0.6080  -24.1055  -45.7262 O.2       10 UNK        -0.5000 
     22 CA          0.3976  -22.8674  -43.9378 C.3       10 UNK         0.1400 
     23 CB          1.8809  -23.2475  -43.8280 C.3       10 UNK        -0.1800 
     24 N           0.2133  -21.5124  -43.4187 N.am      10 UNK        -0.5000 
     25 C          -0.9559  -20.8582  -43.3600 C.2       9 UNK         0.5000 
     26 O          -2.0377  -21.3821  -43.6268 O.2       9 UNK        -0.5000 
     27 CA         -0.9070  -19.3529  -43.0269 C.3       9 UNK         0.1400 
     28 CB         -1.3206  -19.1089  -41.5694 C.3       9 UNK        -0.1800 
     29 N           0.3944  -18.7200  -43.2696 N.am      9 UNK        -0.5000 
     30 C           1.0634  -18.7055  -44.4330 C.2       8 UNK         0.5000 
     31 O           0.6199  -19.1865  -45.4752 O.2       8 UNK        -0.5000 
     32 CA          2.4716  -18.0840  -44.4278 C.3       8 UNK         0.1400 
     33 CB          2.4572  -16.6998  -45.0888 C.3       8 UNK        -0.1800 
     34 N           3.0307  -17.9585  -43.0815 N.am      8 UNK        -0.5000 
     35 C           3.4865  -18.9749  -42.3371 C.2       7 UNK         0.5000 
     36 O           3.4726  -20.1478  -42.7150 O.2       7 UNK        -0.5000 
     37 CA          4.0138  -18.6101  -40.9314 C.3       7 UNK         0.1400 
     38 CB          4.9222  -19.7014  -40.3278 C.3       7 UNK        -0.1800 
     39 N           4.6685  -17.2961  -40.8830 N.am      7 UNK        -0.5000 
     40 C           5.7566  -16.8991  -41.5597 C.2       6 UNK         0.5000 
     41 O           6.3982  -17.6290  -42.3173 O.2       6 UNK        -0.5000 
     42 CA          6.1639  -15.4204  -41.3777 C.3       6 UNK         0.1400 
     43 CB          7.4164  -15.0424  -42.1894 C.3       6 UNK        -0.1800 
     44 N           5.0739  -14.5167  -41.7532 N.am      6 UNK        -0.5000 
     45 C           4.0229  -14.2037  -40.9853 C.2       5 UNK         0.5000 
     46 O           3.8873  -14.6224  -39.8325 O.2       5 UNK        -0.5000 
     47 CA          2.9383  -13.2890  -41.5993 C.3       5 UNK         0.1400 
     48 CB          2.9935  -13.1970  -43.1408 C.3       5 UNK        -0.1800 
     49 N           1.5864  -13.6565  -41.1667 N.am      5 UNK        -0.5000 
     50 C           0.9842  -14.8475  -41.2955 C.2       4 UNK         0.5000 
     51 O           1.5023  -15.8350  -41.8206 O.2       4 UNK        -0.5000 
     52 CA         -0.4522  -14.9606  -40.7527 C.3       4 UNK         0.1400 
     53 CB         -0.6966  -14.1535  -39.4587 C.3       4 UNK        -0.1800 
     54 N          -1.4395  -14.6463  -41.7882 N.am      4 UNK        -0.5000 
     55 C          -1.6544  -13.4743  -42.4027 C.2       3 UNK         0.5000 
     56 O          -1.0794  -12.4243  -42.1102 O.2       3 UNK        -0.5000 
     57 CA         -2.6682  -13.5052  -43.5676 C.3       3 UNK         0.1400 
     58 CB         -3.0503  -12.0981  -44.0611 C.3       3 UNK        -0.1800 
     59 N          -2.1385  -14.2664  -44.6986 N.am      3 UNK        -0.5000 
     60 C          -2.0430  -15.5990  -44.7673 C.2       2 UNK         0.5000 
     61 O          -2.4998  -16.3445  -43.8993 O.2       2 UNK        -0.5000 
     62 CA         -1.3012  -16.2136  -45.9749 C.3       2 UNK         0.1400 
     63 CB         -2.1021  -17.3641  -46.6063 C.3       2 UNK        -0.1800 
     64 N          -0.8943  -15.2897  -47.0392 N.am      2 UNK        -0.5000 
     65 C           0.0534  -14.3461  -46.9584 C.2       1 UNK         0.5000 
     66 O           0.5907  -14.0199  -45.8975 O.2       1 UNK        -0.5000 
     67 C          -2.0274  -21.9416  -47.6504 C.2       11 UNK         0.5000 
     68 O          -2.5939  -22.4724  -48.6062 O.2       11 UNK        -0.5000 
     69 N          -2.6825  -21.3375  -46.6480 N.am      12 UNK        -0.5000 
     70 CA         -4.1388  -21.3433  -46.5066 C.3       12 UNK         0.1400 
     71 CB         -4.5994  -20.1506  -45.6564 C.3       12 UNK        -0.1800 
     72 C          -4.6371  -22.6732  -45.9204 C.2       12 UNK         0.5000 
     73 O          -5.6634  -23.1782  -46.3720 O.2       12 UNK        -0.5000 
     74 N          -3.8786  -23.2488  -44.9754 N.am      13 UNK        -0.5000 
     75 CA         -4.1276  -24.5749  -44.4003 C.3       13 UNK         0.1400 
     76 CB         -3.1692  -24.8138  -43.2246 C.3       13 UNK        -0.1800 
     77 C          -4.0112  -25.7059  -45.4424 C.2       13 UNK         0.5000 
     78 O          -4.8203  -26.6337  -45.4294 O.2       13 UNK        -0.5000 
     79 N          -3.0397  -25.5780  -46.3573 N.am      14 UNK        -0.5000 
     80 CA         -2.8548  -26.4439  -47.5253 C.3       14 UNK         0.1400 
     81 CB         -1.4240  -26.2513  -48.0540 C.3       14 UNK        -0.1800 
     82 C          -3.8754  -26.1851  -48.6551 C.2       14 UNK         0.5000 
     83 O          -3.9153  -26.9561  -49.6137 O.2       14 UNK        -0.5000 
     84 N          -4.6503  -25.0960  -48.5401 N.am      15 UNK        -0.5000 
     85 CA         -5.6601  -24.5802  -49.4715 C.3       15 UNK         0.1400 
     86 CB         -6.7780  -25.6110  -49.7245 C.3       15 UNK        -0.1800 
     87 C          -5.0931  -24.0039  -50.7848 C.2       15 UNK         0.5000 
     88 O          -5.8735  -23.5844  -51.6398 O.2       15 UNK        -0.5000 
     89 N          -3.7619  -23.9335  -50.9131 N.am      16 UNK        -0.5000 
     90 CA         -3.0511  -23.3844  -52.0665 C.3       16 UNK         0.1400 
     91 CB         -1.5482  -23.6682  -51.9242 C.3       16 UNK        -0.1800 
     92 C          -3.3087  -21.8805  -52.2445 C.2       16 UNK         0.5000 
     93 O          -3.6029  -21.4448  -53.3572 O.2       16 UNK        -0.5000 
     94 N          -3.2481  -21.1299  -51.1355 N.am      17 UNK        -0.5000 
     95 CA         -3.5544  -19.6985  -51.1030 C.3       17 UNK         0.1400 
     96 CB         -2.9517  -19.0660  -49.8408 C.3       17 UNK        -0.1800 
     97 C          -5.0661  -19.4198  -51.1633 C.2       17 UNK         0.5000 
     98 O          -5.4659  -18.3813  -51.6879 O.2       17 UNK        -0.5000 
     99 N          -5.8755  -20.3491  -50.6334 N.am      18 UNK        -0.5000 
    100 CA        -7.3366  -20.2589  -50.6054 C.3       18 UNK         0.1400 
    101 CB        -7.9016  -21.2962  -49.6224 C.3       18 UNK        -0.1800 
    102 C         -7.9504  -20.4325  -52.0054 C.2       18 UNK         0.5000 
    103 O         -8.8178  -19.6492  -52.3931 O.2       18 UNK        -0.5000 
    104 N         -7.4621  -21.4345  -52.7494 N.am      19 UNK        -0.5000 
    105 CA        -7.8236  -21.6788  -54.1467 C.3       19 UNK         0.1400 
    106 CB        -7.4863  -23.1378  -54.4935 C.3       19 UNK        -0.1800 
    107 C         -7.1077  -20.7259  -55.1240 C.2       19 UNK         0.5000 
    108 O         -7.5484  -20.5954  -56.2664 O.2       19 UNK        -0.5000 
    109 N         -6.0033  -20.1145  -54.6672 N.am      20 UNK        -0.5000 
    110 CA        -5.0404  -19.3070  -55.4257 C.3       20 UNK         0.1400 
    111 CB        -5.6900  -18.0137  -55.9581 C.3       20 UNK        -0.1800 
    112 C         -4.3247  -20.1260  -56.5222 C.2       20 UNK         0.5000 
    113 O         -3.9397  -19.5811  -57.5584 O.2       20 UNK        -0.5000 
    114 N         -4.1480  -21.4292  -56.2626 N.am      21 UNK        -0.5000 
    115 CA        -3.5684  -22.4178  -57.1728 C.3       21 UNK         0.1400 
    116 CB        -3.7583  -23.8175  -56.5684 C.3       21 UNK        -0.1800 
    117 C         -2.0842  -22.1571  -57.4833 C.2       21 UNK         0.5000 
    118 O         -1.6266  -22.4680  -58.5836 O.2       21 UNK        -0.5000 
    119 N         -1.3752  -21.5693  -56.5144 N.am      22 UNK        -0.5000 
    120 CA         0.0077  -21.0928  -56.6414 C.3       22 UNK         0.1400 
    121 C          0.1406  -19.6541  -57.2273 C.2       22 UNK         0.5000 
    122 N         -0.9375  -18.9744  -57.6035 N.am      22 UNK        -0.7600 
    123 O          1.2506  -19.1466  -57.3621 O.2       22 UNK        -0.5000 
    124 C124        0.7889  -21.2782  -55.3155 C.3       23 UNK        -0.0398 
    125 S125        0.0106  -20.4893  -53.8623 S.3       23 UNK        -0.2404 
    126 C126        1.0725  -19.0294  -53.6501 C.3       23 UNK        -0.0205 
    127 H127        2.7640   -9.8036  -48.6366 H         1 UNK         0.0600 
    128 H128        4.0415  -10.9496  -48.2156 H         1 UNK         0.0600 
    129 H129        2.7504  -10.6029  -47.0620 H         1 UNK         0.0600 
    130 H130        1.2857  -12.2918  -46.9334 H         1 UNK         0.3000 
    131 H131        1.1373  -14.3856  -48.7627 H         1 UNK         0.0600 
    132 H132       -1.6852  -13.5465  -48.8139 H         1 UNK         0.0800 
    133 H133       -0.7450  -12.2269  -49.3862 H         1 UNK         0.0800 
    134 H134       -2.0942  -15.8374  -51.3708 H         1 UNK         0.0800 
    135 H135       -1.7685  -15.8031  -49.6662 H         1 UNK         0.0800 
    136 H136       -0.6300  -17.0164  -52.9384 H         1 UNK         0.1150 
    137 H137        2.3044  -19.6904  -51.3260 H         1 UNK         0.1150 
    138 H138        0.3073  -16.9166  -48.7533 H         1 UNK         0.1150 
    139 H139        1.8769  -18.3961  -47.8016 H         1 UNK         0.0800 
    140 H140        3.2239  -18.7332  -48.8619 H         1 UNK         0.0800 
    141 H141       -0.2923  -20.8047  -49.4264 H         1 UNK         0.0800 
    142 H142       -0.2940  -19.8213  -47.9770 H         1 UNK         0.0800 
    143 H143       -0.1539  -22.8709  -48.0777 H         1 UNK         0.0600 
    144 H144        0.4126  -21.1154  -45.8649 H         1 UNK         0.3000 
    145 H145       -0.1786  -23.5447  -43.3057 H         1 UNK         0.0600 
    146 H146        2.0523  -24.2634  -44.1866 H         1 UNK         0.0600 
    147 H147        2.2240  -23.2054  -42.7940 H         1 UNK         0.0600 
    148 H148        2.5113  -22.5791  -44.4164 H         1 UNK         0.0600 
    149 H149        1.0558  -21.0034  -43.1893 H         1 UNK         0.3000 
    150 H150       -1.6363  -18.8653  -43.6745 H         1 UNK         0.0600 
    151 H151       -0.5864  -19.5087  -40.8690 H         1 UNK         0.0600 
    152 H152       -2.2787  -19.5820  -41.3492 H         1 UNK         0.0600 
    153 H153       -1.4366  -18.0445  -41.3699 H         1 UNK         0.0600 
    154 H154        0.8275  -18.2603  -42.4812 H         1 UNK         0.3000 
    155 H155        3.1211  -18.7376  -45.0138 H         1 UNK         0.0600 
    156 H156        3.4559  -16.2641  -45.1192 H         1 UNK         0.0600 
    157 H157        1.8056  -16.0119  -44.5502 H         1 UNK         0.0600 
    158 H158        2.0959  -16.7539  -46.1156 H         1 UNK         0.0600 
    159 H159        2.9716  -17.0391  -42.6580 H         1 UNK         0.3000 
    160 H160        3.1318  -18.5299  -40.2946 H         1 UNK         0.0600 
    161 H161        5.7995  -19.8880  -40.9477 H         1 UNK         0.0600 
    162 H162        4.3861  -20.6461  -40.2293 H         1 UNK         0.0600 
    163 H163        5.2675  -19.4211  -39.3327 H         1 UNK         0.0600 
    164 H164        4.2053  -16.5930  -40.3157 H         1 UNK         0.3000 
    165 H165        6.4003  -15.2778  -40.3211 H         1 UNK         0.0600 
    166 H166        8.2653  -15.6697  -41.9143 H         1 UNK         0.0600 
    167 H167        7.2535  -15.1595  -43.2616 H         1 UNK         0.0600 
    168 H168        7.7073  -14.0080  -42.0056 H         1 UNK         0.0600 
    169 H169        5.1003  -14.1586  -42.6968 H         1 UNK         0.3000 
    170 H170        3.1232  -12.2908  -41.2008 H         1 UNK         0.0600 
    171 H171        2.1728  -12.5911  -43.5260 H         1 UNK         0.0600 
    172 H172        2.9210  -14.1778  -43.6090 H         1 UNK         0.0600 
    173 H173        3.9185  -12.7305  -43.4809 H         1 UNK         0.0600 
    174 H174        1.0506  -12.9143  -40.7393 H         1 UNK         0.3000 
    175 H175       -0.5985  -16.0111  -40.5006 H         1 UNK         0.0600 
    176 H176        0.0338  -14.4193  -38.6934 H         1 UNK         0.0600 
    177 H177       -0.6321  -13.0764  -39.6107 H         1 UNK         0.0600 
    178 H178       -1.6838  -14.3680  -39.0495 H         1 UNK         0.0600 
    179 H179       -1.9188  -15.4489  -42.1845 H         1 UNK         0.3000 
    180 H180       -3.5770  -13.9900  -43.2048 H         1 UNK         0.0600 
    181 H181       -2.1894  -11.5635  -44.4648 H         1 UNK         0.0600 
    182 H182       -3.4601  -11.4972  -43.2483 H         1 UNK         0.0600 
    183 H183       -3.8095  -12.1477  -44.8418 H         1 UNK         0.0600 
    184 H184       -1.6564  -13.7328  -45.4070 H         1 UNK         0.3000 
    185 H185       -0.3865  -16.6361  -45.5665 H         1 UNK         0.0600 
    186 H186       -1.5456  -17.8396  -47.4126 H         1 UNK         0.0600 
    187 H187       -3.0549  -17.0197  -47.0096 H         1 UNK         0.0600 
    188 H188       -2.3126  -18.1408  -45.8718 H         1 UNK         0.0600 
    189 H189       -1.3298  -15.4539  -47.9326 H         1 UNK         0.3000 
    190 H190       -2.1526  -20.9650  -45.8724 H         1 UNK         0.3000 
    191 H191       -4.5911  -21.2338  -47.4949 H         1 UNK         0.0600 
    192 H192       -4.3879  -19.2081  -46.1594 H         1 UNK         0.0600 
    193 H193       -5.6765  -20.1859  -45.4876 H         1 UNK         0.0600 
    194 H194       -4.1163  -20.1301  -44.6797 H         1 UNK         0.0600 
    195 H195       -3.0843  -22.7323  -44.6108 H         1 UNK         0.3000 
    196 H196       -5.1486  -24.5813  -44.0133 H         1 UNK         0.0600 
    197 H197       -3.4022  -25.7515  -42.7187 H         1 UNK         0.0600 
    198 H198       -3.2421  -24.0164  -42.4846 H         1 UNK         0.0600 
    199 H199       -2.1329  -24.8717  -43.5558 H         1 UNK         0.0600 
    200 H200       -2.3548  -24.8376  -46.2358 H         1 UNK         0.3000 
    201 H201       -2.9691  -27.4831  -47.2107 H         1 UNK         0.0600 
    202 H202       -1.2255  -26.9056  -48.9038 H         1 UNK         0.0600 
    203 H203       -0.6856  -26.4853  -47.2869 H         1 UNK         0.0600 
    204 H204       -1.2523  -25.2252  -48.3817 H         1 UNK         0.0600 
    205 H205       -4.5401  -24.5422  -47.7007 H         1 UNK         0.3000 
    206 H206       -6.1150  -23.7343  -48.9570 H         1 UNK         0.0600 
    207 H207       -7.1839  -25.9901  -48.7866 H         1 UNK         0.0600 
    208 H208       -7.6048  -25.1621  -50.2764 H         1 UNK         0.0600 
    209 H209       -6.4244  -26.4613  -50.3078 H         1 UNK         0.0600 
    210 H210       -3.1980  -24.2135  -50.1235 H         1 UNK         0.3000 
    211 H211       -3.4150  -23.8949  -52.9606 H         1 UNK         0.0600 
    212 H212       -1.3544  -24.7387  -51.8556 H         1 UNK         0.0600 
    213 H213       -0.9976  -23.2931  -52.7879 H         1 UNK         0.0600 
    214 H214       -1.1285  -23.1941  -51.0358 H         1 UNK         0.0600 
    215 H215       -3.0157  -21.5832  -50.2563 H         1 UNK         0.3000 
    216 H216       -3.0924  -19.2231  -51.9715 H         1 UNK         0.0600 
    217 H217       -3.3317  -19.5293  -48.9308 H         1 UNK         0.0600 
    218 H218       -3.1875  -18.0027  -49.7867 H         1 UNK         0.0600 
    219 H219       -1.8673  -19.1517  -49.8435 H         1 UNK         0.0600 
    220 H220       -5.4594  -21.1846  -50.2534 H         1 UNK         0.3000 
    221 H221       -7.6066  -19.2659  -50.2394 H         1 UNK         0.0600 
    222 H222       -7.7398  -22.3160  -49.9707 H         1 UNK         0.0600 
    223 H223       -7.4485  -21.1991  -48.6354 H         1 UNK         0.0600 
    224 H224       -8.9774  -21.1646  -49.5003 H         1 UNK         0.0600 
    225 H225       -6.7914  -22.0800  -52.3390 H         1 UNK         0.3000 
    226 H226       -8.8995  -21.5363  -54.2668 H         1 UNK         0.0600 
    227 H227       -8.0141  -23.8309  -53.8382 H         1 UNK         0.0600 
    228 H228       -7.7742  -23.3748  -55.5185 H         1 UNK         0.0600 
    229 H229       -6.4179  -23.3365  -54.3978 H         1 UNK         0.0600 
    230 H230       -5.7252  -20.3247  -53.7189 H         1 UNK         0.3000 
    231 H231       -4.2661  -19.0156  -54.7145 H         1 UNK         0.0600 
    232 H232       -6.4244  -18.2174  -56.7376 H         1 UNK         0.0600 
    233 H233       -4.9391  -17.3476  -56.3844 H         1 UNK         0.0600 
    234 H234       -6.1904  -17.4676  -55.1583 H         1 UNK         0.0600 
    235 H235       -4.3995  -21.7535  -55.3371 H         1 UNK         0.3000 
    236 H236       -4.1182  -22.3696  -58.1149 H         1 UNK         0.0600 
    237 H237       -3.2537  -23.9115  -55.6059 H         1 UNK         0.0600 
    238 H238       -4.8144  -24.0419  -56.4173 H         1 UNK         0.0600 
    239 H239       -3.3545  -24.5865  -57.2283 H         1 UNK         0.0600 
    240 H240       -1.8388  -21.3418  -55.6455 H         1 UNK         0.3000 
    241 H241        0.5089  -21.7280  -57.3741 H         1 UNK         0.0600 
    242 H242       -1.8665  -19.3722  -57.5401 H         1 UNK         0.3800 
    243 H243       -0.8224  -18.0500  -57.9876 H         1 UNK         0.3800 
    244 H244        0.8608  -22.3444  -55.0971 H         1 UNK         0.0800 
    245 H245        1.8213  -20.9420  -55.4226 H         1 UNK         0.0800 
    246 H246        2.1207  -19.3093  -53.7650 H         1 UNK         0.0800 
    247 H247        0.8566  -18.3031  -54.4351 H         1 UNK         0.0800 
@<TRIPOS>BOND
     1    1    2 1    
     2    1  127 1    
     3    1  128 1    
     4    1  129 1    
     5    2    3 2    
     6    2    4 am   BACKBONE|DICT|INTERRES
     7    4    5 1    
     8    4  130 1    
     9    5    6 1    
    10    5   65 1    
    11    5  131 1    
    12    6    7 1    
    13    6  132 1    
    14    6  133 1    
    15    7    8 1    
    16    8    9 1    
    17    8  134 1    
    18    8  135 1    
    19    9   10 ar   
    20    9   14 ar   
    21   10   11 ar   
    22   10  136 1    
    23   11   12 ar   
    24   11  126 1    
    25   12   13 ar   
    26   12  137 1    
    27   13   14 ar   
    28   13   15 1    
    29   14  138 1    
    30   15   16 1    
    31   15  139 1    
    32   15  140 1    
    33   16   17 1    
    34   17   18 1    
    35   17  141 1    
    36   17  142 1    
    37   18   19 1    
    38   18   67 1    
    39   18  143 1    
    40   19   20 am   BACKBONE|DICT|INTERRES
    41   19  144 1    
    42   20   21 2    
    43   20   22 1    
    44   22   23 1    
    45   22   24 1    
    46   22  145 1    
    47   23  146 1    
    48   23  147 1    
    49   23  148 1    
    50   24   25 am   BACKBONE|DICT|INTERRES
    51   24  149 1    
    52   25   26 2    
    53   25   27 1    
    54   27   28 1    
    55   27   29 1    
    56   27  150 1    
    57   28  151 1    
    58   28  152 1    
    59   28  153 1    
    60   29   30 am   BACKBONE|DICT|INTERRES
    61   29  154 1    
    62   30   31 2    
    63   30   32 1    
    64   32   33 1    
    65   32   34 1    
    66   32  155 1    
    67   33  156 1    
    68   33  157 1    
    69   33  158 1    
    70   34   35 am   BACKBONE|DICT|INTERRES
    71   34  159 1    
    72   35   36 2    
    73   35   37 1    
    74   37   38 1    
    75   37   39 1    
    76   37  160 1    
    77   38  161 1    
    78   38  162 1    
    79   38  163 1    
    80   39   40 am   BACKBONE|DICT|INTERRES
    81   39  164 1    
    82   40   41 2    
    83   40   42 1    
    84   42   43 1    
    85   42   44 1    
    86   42  165 1    
    87   43  166 1    
    88   43  167 1    
    89   43  168 1    
    90   44   45 am   BACKBONE|DICT|INTERRES
    91   44  169 1    
    92   45   46 2    
    93   45   47 1    
    94   47   48 1    
    95   47   49 1    
    96   47  170 1    
    97   48  171 1    
    98   48  172 1    
    99   48  173 1    
   100   49   50 am   BACKBONE|DICT|INTERRES
   101   49  174 1    
   102   50   51 2    
   103   50   52 1    
   104   52   53 1    
   105   52   54 1    
   106   52  175 1    
   107   53  176 1    
   108   53  177 1    
   109   53  178 1    
   110   54   55 am   BACKBONE|DICT|INTERRES
   111   54  179 1    
   112   55   56 2    
   113   55   57 1    
   114   57   58 1    
   115   57   59 1    
   116   57  180 1    
   117   58  181 1    
   118   58  182 1    
   119   58  183 1    
   120   59   60 am   BACKBONE|DICT|INTERRES
   121   59  184 1    
   122   60   61 2    
   123   60   62 1    
   124   62   63 1    
   125   62   64 1    
   126   62  185 1    
   127   63  186 1    
   128   63  187 1    
   129   63  188 1    
   130   64   65 am   BACKBONE|DICT|INTERRES
   131   64  189 1    
   132   65   66 2    
   133   67   68 2    
   134   67   69 am   BACKBONE|DICT|INTERRES
   135   69   70 1    
   136   69  190 1    
   137   70   71 1    
   138   70   72 1    
   139   70  191 1    
   140   71  192 1    
   141   71  193 1    
   142   71  194 1    
   143   72   73 2    
   144   72   74 am   BACKBONE|DICT|INTERRES
   145   74   75 1    
   146   74  195 1    
   147   75   76 1    
   148   75   77 1    
   149   75  196 1    
   150   76  197 1    
   151   76  198 1    
   152   76  199 1    
   153   77   78 2    
   154   77   79 am   BACKBONE|DICT|INTERRES
   155   79   80 1    
   156   79  200 1    
   157   80   81 1    
   158   80   82 1    
   159   80  201 1    
   160   81  202 1    
   161   81  203 1    
   162   81  204 1    
   163   82   83 2    
   164   82   84 am   BACKBONE|DICT|INTERRES
   165   84   85 1    
   166   84  205 1    
   167   85   86 1    
   168   85   87 1    
   169   85  206 1    
   170   86  207 1    
   171   86  208 1    
   172   86  209 1    
   173   87   88 2    
   174   87   89 am   BACKBONE|DICT|INTERRES
   175   89   90 1    
   176   89  210 1    
   177   90   91 1    
   178   90   92 1    
   179   90  211 1    
   180   91  212 1    
   181   91  213 1    
   182   91  214 1    
   183   92   93 2    
   184   92   94 am   BACKBONE|DICT|INTERRES
   185   94   95 1    
   186   94  215 1    
   187   95   96 1    
   188   95   97 1    
   189   95  216 1    
   190   96  217 1    
   191   96  218 1    
   192   96  219 1    
   193   97   98 2    
   194   97   99 am   BACKBONE|DICT|INTERRES
   195   99  100 1    
   196   99  220 1    
   197  100  101 1    
   198  100  102 1    
   199  100  221 1    
   200  101  222 1    
   201  101  223 1    
   202  101  224 1    
   203  102  103 2    
   204  102  104 am   BACKBONE|DICT|INTERRES
   205  104  105 1    
   206  104  225 1    
   207  105  106 1    
   208  105  107 1    
   209  105  226 1    
   210  106  227 1    
   211  106  228 1    
   212  106  229 1    
   213  107  108 2    
   214  107  109 am   BACKBONE|DICT|INTERRES
   215  109  110 1    
   216  109  230 1    
   217  110  111 1    
   218  110  112 1    
   219  110  231 1    
   220  111  232 1    
   221  111  233 1    
   222  111  234 1    
   223  112  113 2    
   224  112  114 am   BACKBONE|DICT|INTERRES
   225  114  115 1    
   226  114  235 1    
   227  115  116 1    
   228  115  117 1    
   229  115  236 1    
   230  116  237 1    
   231  116  238 1    
   232  116  239 1    
   233  117  118 2    
   234  117  119 am   BACKBONE|DICT|INTERRES
   235  119  120 1    
   236  119  240 1    
   237  120  121 1    
   238  120  124 1    
   239  120  241 1    
   240  121  122 am   BACKBONE|DICT|INTERRES
   241  121  123 2    
   242  122  242 1    
   243  122  243 1    
   244  124  125 1    
   245  124  244 1    
   246  124  245 1    
   247  125  126 1    
   248  126  246 1    
   249  126  247 1    
@<TRIPOS>SUBSTRUCTURE
     1 UNK         1 GROUP             0       ****    0 ROOT    
