@<TRIPOS>MOLECULE
3R540
247   249    1
SMALL
USER_CHARGES


@<TRIPOS>ATOM
      1 CA         -1.8103  -13.4003  -47.1648 C.3       0 UNK        -0.1800 
      2 C          -0.7012  -12.8403  -48.0404 C.2       0 UNK         0.5000 
      3 O          -0.9732  -12.0359  -48.9324 O.2       0 UNK        -0.5000 
      4 N           0.5496  -13.2419  -47.7836 N.am      1 UNK        -0.5000 
      5 CA          1.7430  -12.7529  -48.4811 C.3       1 UNK         0.1400 
      6 C6          2.8534  -13.8312  -48.5474 C.3       23 UNK        -0.0398 
      7 S7          2.4367  -15.1429  -49.7427 S.3       23 UNK        -0.2404 
      8 C8          1.8089  -16.4407  -48.6373 C.3       23 UNK        -0.0205 
      9 C9          1.0753  -17.5174  -49.4192 C.ar      23 UNK        -0.0193 
     10 C10        -0.2068  -17.2655  -49.9185 C.ar      23 UNK        -0.1150 
     11 C11        -0.8994  -18.2533  -50.6235 C.ar      23 UNK        -0.0193 
     12 C12        -0.2915  -19.4899  -50.8431 C.ar      23 UNK        -0.1150 
     13 C13         0.9832  -19.7608  -50.3424 C.ar      23 UNK        -0.0193 
     14 C14         1.6645  -18.7683  -49.6305 C.ar      23 UNK        -0.1150 
     15 C15         1.6091  -21.1342  -50.5554 C.3       23 UNK        -0.0205 
     16 S16         0.5639  -22.4855  -49.9130 S.3       23 UNK        -0.2404 
     17 C17         0.2692  -21.9023  -48.2111 C.3       23 UNK        -0.0398 
     18 CA         -0.1291  -23.0211  -47.2248 C.3       11 UNK         0.1400 
     19 N           0.0723  -22.5911  -45.8379 N.am      11 UNK        -0.5000 
     20 C          -0.0432  -23.3763  -44.7587 C.2       10 UNK         0.5000 
     21 O          -0.3393  -24.5688  -44.8109 O.2       10 UNK        -0.5000 
     22 CA          0.1540  -22.7059  -43.3887 C.3       10 UNK         0.1400 
     23 CB          1.6421  -22.4440  -43.1131 C.3       10 UNK        -0.1800 
     24 N          -0.6002  -21.4582  -43.2763 N.am      10 UNK        -0.5000 
     25 C          -1.9388  -21.3825  -43.2823 C.2       9 UNK         0.5000 
     26 O          -2.6775  -22.3677  -43.3019 O.2       9 UNK        -0.5000 
     27 CA         -2.5563  -19.9711  -43.3141 C.3       9 UNK         0.1400 
     28 CB         -2.6144  -19.3673  -41.9035 C.3       9 UNK        -0.1800 
     29 N          -1.8484  -19.0553  -44.2118 N.am      9 UNK        -0.5000 
     30 C          -1.7306  -19.2294  -45.5363 C.2       8 UNK         0.5000 
     31 O          -2.2241  -20.1740  -46.1484 O.2       8 UNK        -0.5000 
     32 CA         -0.8725  -18.2079  -46.2993 C.3       8 UNK         0.1400 
     33 CB         -1.6617  -16.9188  -46.5619 C.3       8 UNK        -0.1800 
     34 N           0.3743  -17.8994  -45.5984 N.am      8 UNK        -0.5000 
     35 C           1.3531  -18.7907  -45.3839 C.2       7 UNK         0.5000 
     36 O           1.3306  -19.9483  -45.7996 O.2       7 UNK        -0.5000 
     37 CA          2.5248  -18.3288  -44.5023 C.3       7 UNK         0.1400 
     38 CB          3.5283  -17.4951  -45.3119 C.3       7 UNK        -0.1800 
     39 N           2.0673  -17.5646  -43.3418 N.am      7 UNK        -0.5000 
     40 C           1.3541  -18.0842  -42.3315 C.2       6 UNK         0.5000 
     41 O           1.0452  -19.2724  -42.2538 O.2       6 UNK        -0.5000 
     42 CA          0.8680  -17.1046  -41.2479 C.3       6 UNK         0.1400 
     43 CB          1.9283  -16.9486  -40.1481 C.3       6 UNK        -0.1800 
     44 N           0.5284  -15.7850  -41.7823 N.am      6 UNK        -0.5000 
     45 C          -0.4596  -15.5409  -42.6562 C.2       5 UNK         0.5000 
     46 O          -1.2141  -16.4100  -43.0920 O.2       5 UNK        -0.5000 
     47 CA         -0.5890  -14.0918  -43.1615 C.3       5 UNK         0.1400 
     48 CB         -1.5368  -13.2844  -42.2639 C.3       5 UNK        -0.1800 
     49 N           0.7076  -13.4158  -43.2297 N.am      5 UNK        -0.5000 
     50 C           1.6747  -13.7042  -44.1088 C.2       4 UNK         0.5000 
     51 O           1.5234  -14.4713  -45.0638 O.2       4 UNK        -0.5000 
     52 CA          3.0296  -13.0206  -43.8451 C.3       4 UNK         0.1400 
     53 CB          4.1858  -13.6225  -44.6598 C.3       4 UNK        -0.1800 
     54 N           2.9515  -11.5814  -44.0882 N.am      4 UNK        -0.5000 
     55 C           2.4977  -10.6832  -43.2013 C.2       3 UNK         0.5000 
     56 O           2.0823  -10.9924  -42.0829 O.2       3 UNK        -0.5000 
     57 CA          2.4998   -9.1984  -43.6176 C.3       3 UNK         0.1400 
     58 CB          3.7487   -8.4909  -43.0699 C.3       3 UNK        -0.1800 
     59 N           2.4407   -9.0019  -45.0659 N.am      3 UNK        -0.5000 
     60 C           1.3575   -9.2284  -45.8191 C.2       2 UNK         0.5000 
     61 O           0.2686   -9.5777  -45.3606 O.2       2 UNK        -0.5000 
     62 CA          1.5115   -9.0764  -47.3457 C.3       2 UNK         0.1400 
     63 CB          2.7897   -8.3296  -47.7915 C.3       2 UNK        -0.1800 
     64 N           1.4129  -10.3839  -47.9975 N.am      2 UNK        -0.5000 
     65 C           2.2019  -11.4500  -47.7988 C.2       1 UNK         0.5000 
     66 O           3.2013  -11.4402  -47.0778 O.2       1 UNK        -0.5000 
     67 C          -1.5638  -23.5305  -47.4843 C.2       11 UNK         0.5000 
     68 O          -1.7356  -24.5281  -48.1869 O.2       11 UNK        -0.5000 
     69 N          -2.5667  -22.8738  -46.8841 N.am      12 UNK        -0.5000 
     70 CA         -3.9771  -23.2667  -46.9227 C.3       12 UNK         0.1400 
     71 CB         -4.8328  -22.2021  -46.2216 C.3       12 UNK        -0.1800 
     72 C          -4.2429  -24.6622  -46.3295 C.2       12 UNK         0.5000 
     73 O          -5.1192  -25.3693  -46.8264 O.2       12 UNK        -0.5000 
     74 N          -3.4719  -25.0425  -45.3038 N.am      13 UNK        -0.5000 
     75 CA         -3.5206  -26.3667  -44.6923 C.3       13 UNK         0.1400 
     76 CB         -3.0783  -26.2628  -43.2237 C.3       13 UNK        -0.1800 
     77 C          -2.6523  -27.3813  -45.4574 C.2       13 UNK         0.5000 
     78 O          -3.1192  -28.4825  -45.7500 O.2       13 UNK        -0.5000 
     79 N          -1.3988  -27.0053  -45.7420 N.am      14 UNK        -0.5000 
     80 CA         -0.3638  -27.9032  -46.2540 C.3       14 UNK         0.1400 
     81 CB          1.0158  -27.2923  -45.9619 C.3       14 UNK        -0.1800 
     82 C          -0.4856  -28.2306  -47.7514 C.2       14 UNK         0.5000 
     83 O          -0.1633  -29.3533  -48.1431 O.2       14 UNK        -0.5000 
     84 N          -0.9052  -27.2523  -48.5625 N.am      15 UNK        -0.5000 
     85 CA         -0.8762  -27.3232  -50.0262 C.3       15 UNK         0.1400 
     86 CB          0.3190  -26.4948  -50.5320 C.3       15 UNK        -0.1800 
     87 C          -2.1942  -26.8546  -50.6652 C.2       15 UNK         0.5000 
     88 O          -2.2198  -26.5982  -51.8700 O.2       15 UNK        -0.5000 
     89 N          -3.2581  -26.7148  -49.8587 N.am      16 UNK        -0.5000 
     90 CA         -4.5896  -26.2235  -50.2415 C.3       16 UNK         0.1400 
     91 CB         -5.3075  -27.2548  -51.1372 C.3       16 UNK        -0.1800 
     92 C          -4.5587  -24.8076  -50.8629 C.2       16 UNK         0.5000 
     93 O          -5.3519  -24.5086  -51.7558 O.2       16 UNK        -0.5000 
     94 N          -3.6127  -23.9808  -50.3905 N.am      17 UNK        -0.5000 
     95 CA         -3.2861  -22.6217  -50.8392 C.3       17 UNK         0.1400 
     96 CB         -4.4974  -21.6737  -50.7180 C.3       17 UNK        -0.1800 
     97 C          -2.6271  -22.5619  -52.2332 C.2       17 UNK         0.5000 
     98 O          -2.4884  -21.4693  -52.7819 O.2       17 UNK        -0.5000 
     99 N          -2.2132  -23.7177  -52.7772 N.am      18 UNK        -0.5000 
    100 CA        -1.4894  -23.9511  -54.0354 C.3       18 UNK         0.1400 
    101 CB        -0.1070  -23.2714  -54.0023 C.3       18 UNK        -0.1800 
    102 C         -2.2514  -23.5960  -55.3321 C.2       18 UNK         0.5000 
    103 O         -2.0725  -24.2832  -56.3388 O.2       18 UNK        -0.5000 
    104 N         -3.0812  -22.5519  -55.2990 N.am      19 UNK        -0.5000 
    105 CA        -3.8915  -22.0315  -56.3926 C.3       19 UNK         0.1400 
    106 CB        -3.0176  -21.1383  -57.2959 C.3       19 UNK        -0.1800 
    107 C         -5.0849  -21.2579  -55.8047 C.2       19 UNK         0.5000 
    108 O         -5.2385  -21.1871  -54.5822 O.2       19 UNK        -0.5000 
    109 N         -5.9114  -20.6765  -56.6828 N.am      20 UNK        -0.5000 
    110 CA        -7.0371  -19.8079  -56.3333 C.3       20 UNK         0.1400 
    111 CB        -8.0156  -19.7661  -57.5210 C.3       20 UNK        -0.1800 
    112 C         -6.5458  -18.4037  -55.9193 C.2       20 UNK         0.5000 
    113 O         -6.6935  -17.4424  -56.6768 O.2       20 UNK        -0.5000 
    114 N         -5.9367  -18.3234  -54.7342 N.am      21 UNK        -0.5000 
    115 CA        -5.3744  -17.1215  -54.1292 C.3       21 UNK         0.1400 
    116 CB        -3.8935  -17.0032  -54.5327 C.3       21 UNK        -0.1800 
    117 C         -5.5301  -17.2015  -52.6022 C.2       21 UNK         0.5000 
    118 O         -5.8211  -18.2784  -52.0779 O.2       21 UNK        -0.5000 
    119 N         -5.3321  -16.0552  -51.9347 N.am      22 UNK        -0.5000 
    120 CA        -5.3326  -15.8261  -50.4722 C.3       22 UNK         0.1400 
    121 C         -6.5895  -16.2812  -49.6629 C.2       22 UNK         0.5000 
    122 N         -7.7034  -16.6231  -50.2969 N.am      22 UNK        -0.7600 
    123 O         -6.5788  -16.2686  -48.4348 O.2       22 UNK        -0.5000 
    124 C124       -3.9757  -16.1696  -49.7854 C.3       23 UNK        -0.0398 
    125 S125       -3.5150  -17.9371  -49.7849 S.3       23 UNK        -0.2404 
    126 C126       -2.3039  -17.9981  -51.1442 C.3       23 UNK        -0.0205 
    127 H127       -1.4112  -14.0369  -46.3786 H         1 UNK         0.0600 
    128 H128       -2.5036  -13.9889  -47.7650 H         1 UNK         0.0600 
    129 H129       -2.3650  -12.5884  -46.6945 H         1 UNK         0.0600 
    130 H130        0.7311  -13.8437  -46.9884 H         1 UNK         0.3000 
    131 H131        1.4846  -12.4902  -49.5096 H         1 UNK         0.0600 
    132 H132        3.7989  -13.3923  -48.8708 H         1 UNK         0.0800 
    133 H133        3.0373  -14.2708  -47.5673 H         1 UNK         0.0800 
    134 H134        2.6437  -16.8696  -48.0830 H         1 UNK         0.0800 
    135 H135        1.1359  -16.0076  -47.8979 H         1 UNK         0.0800 
    136 H136       -0.6688  -16.3031  -49.7497 H         1 UNK         0.1150 
    137 H137       -0.8175  -20.2579  -51.3877 H         1 UNK         0.1150 
    138 H138        2.6504  -18.9700  -49.2361 H         1 UNK         0.1150 
    139 H139        1.7721  -21.2899  -51.6226 H         1 UNK         0.0800 
    140 H140        2.5894  -21.1910  -50.0799 H         1 UNK         0.0800 
    141 H141       -0.4744  -21.1030  -48.2222 H         1 UNK         0.0800 
    142 H142        1.1998  -21.4439  -47.8762 H         1 UNK         0.0800 
    143 H143        0.5438  -23.8663  -47.3848 H         1 UNK         0.0600 
    144 H144        0.3430  -21.6203  -45.7066 H         1 UNK         0.3000 
    145 H145       -0.2155  -23.3938  -42.6253 H         1 UNK         0.0600 
    146 H146        1.7911  -22.0465  -42.1090 H         1 UNK         0.0600 
    147 H147        2.2214  -23.3651  -43.1879 H         1 UNK         0.0600 
    148 H148        2.0659  -21.7299  -43.8196 H         1 UNK         0.0600 
    149 H149       -0.0588  -20.6033  -43.1904 H         1 UNK         0.3000 
    150 H150       -3.5791  -20.0668  -43.6841 H         1 UNK         0.0600 
    151 H151       -3.1910  -20.0037  -41.2311 H         1 UNK         0.0600 
    152 H152       -3.0902  -18.3864  -41.9126 H         1 UNK         0.0600 
    153 H153       -1.6197  -19.2532  -41.4734 H         1 UNK         0.0600 
    154 H154       -1.4497  -18.2202  -43.7929 H         1 UNK         0.3000 
    155 H155       -0.6186  -18.6510  -47.2646 H         1 UNK         0.0600 
    156 H156       -1.8684  -16.3714  -45.6431 H         1 UNK         0.0600 
    157 H157       -1.1196  -16.2593  -47.2367 H         1 UNK         0.0600 
    158 H158       -2.6214  -17.1396  -47.0292 H         1 UNK         0.0600 
    159 H159        0.4581  -16.9781  -45.1935 H         1 UNK         0.3000 
    160 H160        3.0400  -19.2210  -44.1398 H         1 UNK         0.0600 
    161 H161        3.0830  -16.5720  -45.6825 H         1 UNK         0.0600 
    162 H162        3.8920  -18.0546  -46.1747 H         1 UNK         0.0600 
    163 H163        4.3969  -17.2310  -44.7088 H         1 UNK         0.0600 
    164 H164        2.2582  -16.5745  -43.3422 H         1 UNK         0.3000 
    165 H165       -0.0326  -17.5261  -40.7974 H         1 UNK         0.0600 
    166 H166        1.5647  -16.3190  -39.3359 H         1 UNK         0.0600 
    167 H167        2.1870  -17.9164  -39.7161 H         1 UNK         0.0600 
    168 H168        2.8473  -16.5045  -40.5327 H         1 UNK         0.0600 
    169 H169        1.0934  -15.0100  -41.4691 H         1 UNK         0.3000 
    170 H170       -1.0165  -14.1274  -44.1632 H         1 UNK         0.0600 
    171 H171       -2.5190  -13.7560  -42.2098 H         1 UNK         0.0600 
    172 H172       -1.1553  -13.2003  -41.2455 H         1 UNK         0.0600 
    173 H173       -1.6818  -12.2761  -42.6523 H         1 UNK         0.0600 
    174 H174        0.9048  -12.7197  -42.5193 H         1 UNK         0.3000 
    175 H175        3.2717  -13.1902  -42.7936 H         1 UNK         0.0600 
    176 H176        5.1369  -13.1683  -44.3819 H         1 UNK         0.0600 
    177 H177        4.0532  -13.4788  -45.7290 H         1 UNK         0.0600 
    178 H178        4.2754  -14.6935  -44.4789 H         1 UNK         0.0600 
    179 H179        3.2054  -11.2729  -45.0210 H         1 UNK         0.3000 
    180 H180        1.6201   -8.7306  -43.1704 H         1 UNK         0.0600 
    181 H181        4.6646   -8.9068  -43.4918 H         1 UNK         0.0600 
    182 H182        3.8112   -8.5921  -41.9856 H         1 UNK         0.0600 
    183 H183        3.7286   -7.4243  -43.2946 H         1 UNK         0.0600 
    184 H184        3.3016   -8.7431  -45.5257 H         1 UNK         0.3000 
    185 H185        0.6542   -8.4927  -47.6841 H         1 UNK         0.0600 
    186 H186        2.8396   -7.3369  -47.3422 H         1 UNK         0.0600 
    187 H187        3.7031   -8.8615  -47.5244 H         1 UNK         0.0600 
    188 H188        2.7979   -8.1907  -48.8726 H         1 UNK         0.0600 
    189 H189        0.5713  -10.5351  -48.5422 H         1 UNK         0.3000 
    190 H190       -2.3562  -22.0099  -46.3888 H         1 UNK         0.3000 
    191 H191       -4.2881  -23.2948  -47.9649 H         1 UNK         0.0600 
    192 H192       -4.7263  -21.2309  -46.7054 H         1 UNK         0.0600 
    193 H193       -5.8904  -22.4661  -46.2554 H         1 UNK         0.0600 
    194 H194       -4.5564  -22.0873  -45.1740 H         1 UNK         0.0600 
    195 H195       -2.7683  -24.4026  -44.9587 H         1 UNK         0.3000 
    196 H196       -4.5503  -26.7311  -44.7017 H         1 UNK         0.0600 
    197 H197       -3.1152  -27.2372  -42.7351 H         1 UNK         0.0600 
    198 H198       -3.7314  -25.5928  -42.6643 H         1 UNK         0.0600 
    199 H199       -2.0591  -25.8866  -43.1302 H         1 UNK         0.0600 
    200 H200       -1.0850  -26.0816  -45.4487 H         1 UNK         0.3000 
    201 H201       -0.4319  -28.8457  -45.7064 H         1 UNK         0.0600 
    202 H202        1.1548  -27.1246  -44.8937 H         1 UNK         0.0600 
    203 H203        1.1473  -26.3360  -46.4700 H         1 UNK         0.0600 
    204 H204        1.8167  -27.9541  -46.2941 H         1 UNK         0.0600 
    205 H205       -1.1599  -26.3484  -48.1720 H         1 UNK         0.3000 
    206 H206       -0.7394  -28.3543  -50.3570 H         1 UNK         0.0600 
    207 H207        1.2555  -26.8493  -50.1015 H         1 UNK         0.0600 
    208 H208        0.4182  -26.5579  -51.6163 H         1 UNK         0.0600 
    209 H209        0.2088  -25.4419  -50.2724 H         1 UNK         0.0600 
    210 H210       -3.1346  -26.9367  -48.8809 H         1 UNK         0.3000 
    211 H211       -5.1656  -26.1376  -49.3208 H         1 UNK         0.0600 
    212 H212       -4.8261  -27.3514  -52.1108 H         1 UNK         0.0600 
    213 H213       -6.3445  -26.9664  -51.3127 H         1 UNK         0.0600 
    214 H214       -5.3214  -28.2397  -50.6705 H         1 UNK         0.0600 
    215 H215       -2.9916  -24.3483  -49.6745 H         1 UNK         0.3000 
    216 H216       -2.5285  -22.2577  -50.1445 H         1 UNK         0.0600 
    217 H217       -4.2029  -20.6410  -50.9048 H         1 UNK         0.0600 
    218 H218       -4.9341  -21.7069  -49.7204 H         1 UNK         0.0600 
    219 H219       -5.2783  -21.9134  -51.4398 H         1 UNK         0.0600 
    220 H220       -2.4094  -24.5678  -52.2601 H         1 UNK         0.3000 
    221 H221       -1.3190  -25.0282  -54.0697 H         1 UNK         0.0600 
    222 H222       -0.1878  -22.1843  -53.9755 H         1 UNK         0.0600 
    223 H223        0.4653  -23.5860  -53.1292 H         1 UNK         0.0600 
    224 H224        0.4764  -23.5326  -54.8859 H         1 UNK         0.0600 
    225 H225       -3.1768  -22.0441  -54.4210 H         1 UNK         0.3000 
    226 H226       -4.2887  -22.8661  -56.9736 H         1 UNK         0.0600 
    227 H227       -2.1580  -21.6857  -57.6830 H         1 UNK         0.0600 
    228 H228       -3.5751  -20.7728  -58.1585 H         1 UNK         0.0600 
    229 H229       -2.6420  -20.2697  -56.7531 H         1 UNK         0.0600 
    230 H230       -5.7102  -20.7617  -57.6684 H         1 UNK         0.3000 
    231 H231       -7.5689  -20.2379  -55.4816 H         1 UNK         0.0600 
    232 H232       -7.5426  -19.3755  -58.4229 H         1 UNK         0.0600 
    233 H233       -8.8734  -19.1305  -57.2974 H         1 UNK         0.0600 
    234 H234       -8.4004  -20.7603  -57.7487 H         1 UNK         0.0600 
    235 H235       -5.8494  -19.1627  -54.1680 H         1 UNK         0.3000 
    236 H236       -5.9209  -16.2427  -54.4779 H         1 UNK         0.0600 
    237 H237       -3.7857  -16.9217  -55.6144 H         1 UNK         0.0600 
    238 H238       -3.4312  -16.1183  -54.0941 H         1 UNK         0.0600 
    239 H239       -3.3203  -17.8719  -54.2057 H         1 UNK         0.0600 
    240 H240       -5.1340  -15.2295  -52.4815 H         1 UNK         0.3000 
    241 H241       -5.4081  -14.7404  -50.4021 H         1 UNK         0.0600 
    242 H242       -7.7220  -16.6722  -51.3026 H         1 UNK         0.3800 
    243 H243       -8.5135  -16.8979  -49.7642 H         1 UNK         0.3800 
    244 H244       -3.1777  -15.5876  -50.2468 H         1 UNK         0.0800 
    245 H245       -3.9905  -15.8369  -48.7467 H         1 UNK         0.0800 
    246 H246       -2.3171  -17.0788  -51.7299 H         1 UNK         0.0800 
    247 H247       -2.6057  -18.7913  -51.8303 H         1 UNK         0.0800 
@<TRIPOS>BOND
     1    1    2 1    
     2    1  127 1    
     3    1  128 1    
     4    1  129 1    
     5    2    3 2    
     6    2    4 am   BACKBONE|DICT|INTERRES
     7    4    5 1    
     8    4  130 1    
     9    5    6 1    
    10    5   65 1    
    11    5  131 1    
    12    6    7 1    
    13    6  132 1    
    14    6  133 1    
    15    7    8 1    
    16    8    9 1    
    17    8  134 1    
    18    8  135 1    
    19    9   10 ar   
    20    9   14 ar   
    21   10   11 ar   
    22   10  136 1    
    23   11   12 ar   
    24   11  126 1    
    25   12   13 ar   
    26   12  137 1    
    27   13   14 ar   
    28   13   15 1    
    29   14  138 1    
    30   15   16 1    
    31   15  139 1    
    32   15  140 1    
    33   16   17 1    
    34   17   18 1    
    35   17  141 1    
    36   17  142 1    
    37   18   19 1    
    38   18   67 1    
    39   18  143 1    
    40   19   20 am   BACKBONE|DICT|INTERRES
    41   19  144 1    
    42   20   21 2    
    43   20   22 1    
    44   22   23 1    
    45   22   24 1    
    46   22  145 1    
    47   23  146 1    
    48   23  147 1    
    49   23  148 1    
    50   24   25 am   BACKBONE|DICT|INTERRES
    51   24  149 1    
    52   25   26 2    
    53   25   27 1    
    54   27   28 1    
    55   27   29 1    
    56   27  150 1    
    57   28  151 1    
    58   28  152 1    
    59   28  153 1    
    60   29   30 am   BACKBONE|DICT|INTERRES
    61   29  154 1    
    62   30   31 2    
    63   30   32 1    
    64   32   33 1    
    65   32   34 1    
    66   32  155 1    
    67   33  156 1    
    68   33  157 1    
    69   33  158 1    
    70   34   35 am   BACKBONE|DICT|INTERRES
    71   34  159 1    
    72   35   36 2    
    73   35   37 1    
    74   37   38 1    
    75   37   39 1    
    76   37  160 1    
    77   38  161 1    
    78   38  162 1    
    79   38  163 1    
    80   39   40 am   BACKBONE|DICT|INTERRES
    81   39  164 1    
    82   40   41 2    
    83   40   42 1    
    84   42   43 1    
    85   42   44 1    
    86   42  165 1    
    87   43  166 1    
    88   43  167 1    
    89   43  168 1    
    90   44   45 am   BACKBONE|DICT|INTERRES
    91   44  169 1    
    92   45   46 2    
    93   45   47 1    
    94   47   48 1    
    95   47   49 1    
    96   47  170 1    
    97   48  171 1    
    98   48  172 1    
    99   48  173 1    
   100   49   50 am   BACKBONE|DICT|INTERRES
   101   49  174 1    
   102   50   51 2    
   103   50   52 1    
   104   52   53 1    
   105   52   54 1    
   106   52  175 1    
   107   53  176 1    
   108   53  177 1    
   109   53  178 1    
   110   54   55 am   BACKBONE|DICT|INTERRES
   111   54  179 1    
   112   55   56 2    
   113   55   57 1    
   114   57   58 1    
   115   57   59 1    
   116   57  180 1    
   117   58  181 1    
   118   58  182 1    
   119   58  183 1    
   120   59   60 am   BACKBONE|DICT|INTERRES
   121   59  184 1    
   122   60   61 2    
   123   60   62 1    
   124   62   63 1    
   125   62   64 1    
   126   62  185 1    
   127   63  186 1    
   128   63  187 1    
   129   63  188 1    
   130   64   65 am   BACKBONE|DICT|INTERRES
   131   64  189 1    
   132   65   66 2    
   133   67   68 2    
   134   67   69 am   BACKBONE|DICT|INTERRES
   135   69   70 1    
   136   69  190 1    
   137   70   71 1    
   138   70   72 1    
   139   70  191 1    
   140   71  192 1    
   141   71  193 1    
   142   71  194 1    
   143   72   73 2    
   144   72   74 am   BACKBONE|DICT|INTERRES
   145   74   75 1    
   146   74  195 1    
   147   75   76 1    
   148   75   77 1    
   149   75  196 1    
   150   76  197 1    
   151   76  198 1    
   152   76  199 1    
   153   77   78 2    
   154   77   79 am   BACKBONE|DICT|INTERRES
   155   79   80 1    
   156   79  200 1    
   157   80   81 1    
   158   80   82 1    
   159   80  201 1    
   160   81  202 1    
   161   81  203 1    
   162   81  204 1    
   163   82   83 2    
   164   82   84 am   BACKBONE|DICT|INTERRES
   165   84   85 1    
   166   84  205 1    
   167   85   86 1    
   168   85   87 1    
   169   85  206 1    
   170   86  207 1    
   171   86  208 1    
   172   86  209 1    
   173   87   88 2    
   174   87   89 am   BACKBONE|DICT|INTERRES
   175   89   90 1    
   176   89  210 1    
   177   90   91 1    
   178   90   92 1    
   179   90  211 1    
   180   91  212 1    
   181   91  213 1    
   182   91  214 1    
   183   92   93 2    
   184   92   94 am   BACKBONE|DICT|INTERRES
   185   94   95 1    
   186   94  215 1    
   187   95   96 1    
   188   95   97 1    
   189   95  216 1    
   190   96  217 1    
   191   96  218 1    
   192   96  219 1    
   193   97   98 2    
   194   97   99 am   BACKBONE|DICT|INTERRES
   195   99  100 1    
   196   99  220 1    
   197  100  101 1    
   198  100  102 1    
   199  100  221 1    
   200  101  222 1    
   201  101  223 1    
   202  101  224 1    
   203  102  103 2    
   204  102  104 am   BACKBONE|DICT|INTERRES
   205  104  105 1    
   206  104  225 1    
   207  105  106 1    
   208  105  107 1    
   209  105  226 1    
   210  106  227 1    
   211  106  228 1    
   212  106  229 1    
   213  107  108 2    
   214  107  109 am   BACKBONE|DICT|INTERRES
   215  109  110 1    
   216  109  230 1    
   217  110  111 1    
   218  110  112 1    
   219  110  231 1    
   220  111  232 1    
   221  111  233 1    
   222  111  234 1    
   223  112  113 2    
   224  112  114 am   BACKBONE|DICT|INTERRES
   225  114  115 1    
   226  114  235 1    
   227  115  116 1    
   228  115  117 1    
   229  115  236 1    
   230  116  237 1    
   231  116  238 1    
   232  116  239 1    
   233  117  118 2    
   234  117  119 am   BACKBONE|DICT|INTERRES
   235  119  120 1    
   236  119  240 1    
   237  120  121 1    
   238  120  124 1    
   239  120  241 1    
   240  121  122 am   BACKBONE|DICT|INTERRES
   241  121  123 2    
   242  122  242 1    
   243  122  243 1    
   244  124  125 1    
   245  124  244 1    
   246  124  245 1    
   247  125  126 1    
   248  126  246 1    
   249  126  247 1    
@<TRIPOS>SUBSTRUCTURE
     1 UNK         1 GROUP             0       ****    0 ROOT    
