@<TRIPOS>MOLECULE
3R540
247   249    1
SMALL
USER_CHARGES


@<TRIPOS>ATOM
      1 CA          4.5167  -17.1355  -48.7743 C.3       0 UNK        -0.1800 
      2 C           3.8222  -16.2158  -47.7810 C.2       0 UNK         0.5000 
      3 O           4.0497  -16.3276  -46.5757 O.2       0 UNK        -0.5000 
      4 N           2.9774  -15.3013  -48.2759 N.am      1 UNK        -0.5000 
      5 CA          2.2109  -14.3364  -47.4794 C.3       1 UNK         0.1400 
      6 C6          0.8959  -13.9297  -48.1941 C.3       23 UNK        -0.0398 
      7 S7         -0.3921  -13.4237  -47.0071 S.3       23 UNK        -0.2404 
      8 C8         -1.8264  -13.1757  -48.0978 C.3       23 UNK        -0.0205 
      9 C9         -2.4637  -14.4860  -48.5408 C.ar      23 UNK        -0.0193 
     10 C10        -2.1050  -15.0671  -49.7597 C.ar      23 UNK        -0.1150 
     11 C11        -2.7369  -16.2309  -50.2066 C.ar      23 UNK        -0.0193 
     12 C12        -3.7216  -16.8289  -49.4142 C.ar      23 UNK        -0.1150 
     13 C13        -4.0969  -16.2542  -48.1969 C.ar      23 UNK        -0.0193 
     14 C14        -3.4587  -15.0866  -47.7632 C.ar      23 UNK        -0.1150 
     15 C15        -5.2365  -16.8488  -47.3807 C.3       23 UNK        -0.0205 
     16 S16        -4.6514  -17.5596  -45.8140 S.3       23 UNK        -0.2404 
     17 C17        -4.7519  -19.3583  -46.1143 C.3       23 UNK        -0.0398 
     18 CA         -3.7376  -19.9249  -47.1427 C.3       11 UNK         0.1400 
     19 N          -2.3943  -19.3600  -47.0028 N.am      11 UNK        -0.5000 
     20 C          -1.3742  -19.5818  -47.8428 C.2       10 UNK         0.5000 
     21 O          -1.4511  -20.2729  -48.8588 O.2       10 UNK        -0.5000 
     22 CA         -0.0258  -18.9673  -47.4444 C.3       10 UNK         0.1400 
     23 CB          0.0425  -17.4962  -47.8722 C.3       10 UNK        -0.1800 
     24 N           0.2049  -19.0753  -46.0036 N.am      10 UNK        -0.5000 
     25 C           0.5028  -20.2229  -45.3766 C.2       9 UNK         0.5000 
     26 O           0.6389  -21.2996  -45.9566 O.2       9 UNK        -0.5000 
     27 CA          0.6350  -20.1730  -43.8422 C.3       9 UNK         0.1400 
     28 CB          2.0526  -19.7392  -43.4440 C.3       9 UNK        -0.1800 
     29 N          -0.3332  -19.2791  -43.2083 N.am      9 UNK        -0.5000 
     30 C          -1.6643  -19.4219  -43.2713 C.2       8 UNK         0.5000 
     31 O          -2.2249  -20.3653  -43.8273 O.2       8 UNK        -0.5000 
     32 CA         -2.5170  -18.3017  -42.6497 C.3       8 UNK         0.1400 
     33 CB         -2.8537  -18.6357  -41.1893 C.3       8 UNK        -0.1800 
     34 N          -1.9105  -16.9694  -42.7032 N.am      8 UNK        -0.5000 
     35 C          -1.4379  -16.3357  -43.7839 C.2       7 UNK         0.5000 
     36 O          -1.3803  -16.8460  -44.9018 O.2       7 UNK        -0.5000 
     37 CA         -0.8949  -14.9075  -43.5841 C.3       7 UNK         0.1400 
     38 CB         -2.0237  -13.8672  -43.7035 C.3       7 UNK        -0.1800 
     39 N          -0.1037  -14.7047  -42.3613 N.am      7 UNK        -0.5000 
     40 C          -0.4793  -14.7673  -41.0746 C.2       6 UNK         0.5000 
     41 O          -1.6295  -15.0154  -40.7096 O.2       6 UNK        -0.5000 
     42 CA          0.6185  -14.5158  -40.0201 C.3       6 UNK         0.1400 
     43 CB          0.4048  -15.3390  -38.7324 C.3       6 UNK        -0.1800 
     44 N           1.9853  -14.6793  -40.5336 N.am      6 UNK        -0.5000 
     45 C           2.5894  -15.8084  -40.9422 C.2       5 UNK         0.5000 
     46 O           2.0314  -16.9056  -40.9697 O.2       5 UNK        -0.5000 
     47 CA          4.0488  -15.6961  -41.4433 C.3       5 UNK         0.1400 
     48 CB          4.1648  -16.1843  -42.8972 C.3       5 UNK        -0.1800 
     49 N           4.5846  -14.3353  -41.3791 N.am      5 UNK        -0.5000 
     50 C           5.0187  -13.7061  -40.2778 C.2       4 UNK         0.5000 
     51 O           5.1136  -14.2435  -39.1746 O.2       4 UNK        -0.5000 
     52 CA          5.3584  -12.2079  -40.4343 C.3       4 UNK         0.1400 
     53 CB          6.8742  -12.0134  -40.5873 C.3       4 UNK        -0.1800 
     54 N           4.6832  -11.5810  -41.5763 N.am      4 UNK        -0.5000 
     55 C           3.3600  -11.4316  -41.7215 C.2       3 UNK         0.5000 
     56 O           2.5451  -11.7440  -40.8535 O.2       3 UNK        -0.5000 
     57 CA          2.8536  -10.9512  -43.0951 C.3       3 UNK         0.1400 
     58 CB          2.9404   -9.4193  -43.2295 C.3       3 UNK        -0.1800 
     59 N           3.4891  -11.6475  -44.2260 N.am      3 UNK        -0.5000 
     60 C           4.7514  -11.5620  -44.6735 C.2       2 UNK         0.5000 
     61 O           5.5969  -10.8173  -44.1758 O.2       2 UNK        -0.5000 
     62 CA          5.1703  -12.5057  -45.8207 C.3       2 UNK         0.1400 
     63 CB          6.3956  -13.3418  -45.4124 C.3       2 UNK        -0.1800 
     64 N           4.1198  -13.4298  -46.2550 N.am      2 UNK        -0.5000 
     65 C           3.1051  -13.1403  -47.0779 C.2       1 UNK         0.5000 
     66 O           2.8982  -12.0129  -47.5284 O.2       1 UNK        -0.5000 
     67 C          -3.6969  -21.4654  -47.0602 C.2       11 UNK         0.5000 
     68 O          -4.2819  -22.1456  -47.9043 O.2       11 UNK        -0.5000 
     69 N          -2.9646  -21.9777  -46.0597 N.am      12 UNK        -0.5000 
     70 CA         -2.7112  -23.3984  -45.8415 C.3       12 UNK         0.1400 
     71 CB         -1.9808  -23.5963  -44.5051 C.3       12 UNK        -0.1800 
     72 C          -1.9250  -24.0402  -46.9944 C.2       12 UNK         0.5000 
     73 O          -2.3143  -25.1121  -47.4517 O.2       12 UNK        -0.5000 
     74 N          -0.8664  -23.3679  -47.4709 N.am      13 UNK        -0.5000 
     75 CA         -0.0536  -23.8090  -48.6068 C.3       13 UNK         0.1400 
     76 CB          1.1568  -22.8800  -48.7805 C.3       13 UNK        -0.1800 
     77 C          -0.8577  -23.9081  -49.9148 C.2       13 UNK         0.5000 
     78 O          -0.7466  -24.9135  -50.6158 O.2       13 UNK        -0.5000 
     79 N          -1.6855  -22.8907  -50.1936 N.am      14 UNK        -0.5000 
     80 CA         -2.5873  -22.8392  -51.3462 C.3       14 UNK         0.1400 
     81 CB         -3.2772  -21.4676  -51.3850 C.3       14 UNK        -0.1800 
     82 C          -3.6322  -23.9711  -51.3520 C.2       14 UNK         0.5000 
     83 O          -3.9389  -24.5113  -52.4184 O.2       14 UNK        -0.5000 
     84 N          -4.1416  -24.3156  -50.1619 N.am      15 UNK        -0.5000 
     85 CA         -5.0591  -25.4301  -49.9438 C.3       15 UNK         0.1400 
     86 CB         -5.7456  -25.2706  -48.5788 C.3       15 UNK        -0.1800 
     87 C          -4.3529  -26.7932  -50.0531 C.2       15 UNK         0.5000 
     88 O          -4.8514  -27.6741  -50.7529 O.2       15 UNK        -0.5000 
     89 N          -3.1993  -26.9405  -49.3853 N.am      16 UNK        -0.5000 
     90 CA         -2.3980  -28.1684  -49.3399 C.3       16 UNK         0.1400 
     91 CB         -1.2605  -28.0053  -48.3207 C.3       16 UNK        -0.1800 
     92 C          -1.8341  -28.5865  -50.7087 C.2       16 UNK         0.5000 
     93 O          -1.7801  -29.7807  -51.0044 O.2       16 UNK        -0.5000 
     94 N          -1.4604  -27.5985  -51.5324 N.am      17 UNK        -0.5000 
     95 CA         -1.0340  -27.7880  -52.9200 C.3       17 UNK         0.1400 
     96 CB         -0.3256  -26.5090  -53.3956 C.3       17 UNK        -0.1800 
     97 C          -2.1940  -28.1343  -53.8763 C.2       17 UNK         0.5000 
     98 O          -1.9310  -28.5141  -55.0178 O.2       17 UNK        -0.5000 
     99 N          -3.4437  -27.9586  -53.4147 N.am      18 UNK        -0.5000 
    100 CA        -4.7009  -28.0635  -54.1646 C.3       18 UNK         0.1400 
    101 CB        -4.9445  -29.5098  -54.6429 C.3       18 UNK        -0.1800 
    102 C         -4.8053  -27.0235  -55.3008 C.2       18 UNK         0.5000 
    103 O         -5.5034  -27.2531  -56.2900 O.2       18 UNK        -0.5000 
    104 N         -4.1005  -25.8965  -55.1367 N.am      19 UNK        -0.5000 
    105 CA        -4.0485  -24.7970  -56.0932 C.3       19 UNK         0.1400 
    106 CB        -2.7330  -24.0262  -55.8950 C.3       19 UNK        -0.1800 
    107 C         -5.2504  -23.8555  -55.9347 C.2       19 UNK         0.5000 
    108 O         -5.7473  -23.3394  -56.9361 O.2       19 UNK        -0.5000 
    109 N         -5.6741  -23.6400  -54.6774 N.am      20 UNK        -0.5000 
    110 CA        -6.7270  -22.7087  -54.2497 C.3       20 UNK         0.1400 
    111 CB        -8.1126  -23.1945  -54.7223 C.3       20 UNK        -0.1800 
    112 C         -6.4259  -21.2461  -54.6506 C.2       20 UNK         0.5000 
    113 O         -7.3378  -20.4841  -54.9799 O.2       20 UNK        -0.5000 
    114 N         -5.1317  -20.8976  -54.6348 N.am      21 UNK        -0.5000 
    115 CA        -4.5892  -19.5861  -54.9767 C.3       21 UNK         0.1400 
    116 CB        -3.0544  -19.6661  -54.9476 C.3       21 UNK        -0.1800 
    117 C         -5.0867  -18.4715  -54.0393 C.2       21 UNK         0.5000 
    118 O         -5.3696  -18.7274  -52.8664 O.2       21 UNK        -0.5000 
    119 N         -5.1512  -17.2529  -54.5864 N.am      22 UNK        -0.5000 
    120 CA        -5.5796  -16.0108  -53.9173 C.3       22 UNK         0.1400 
    121 C         -7.1126  -15.9066  -53.6461 C.2       22 UNK         0.5000 
    122 N         -7.9412  -16.8327  -54.1137 N.am      22 UNK        -0.7600 
    123 O         -7.5680  -14.9473  -53.0292 O.2       22 UNK        -0.5000 
    124 C124       -4.7462  -15.6588  -52.6524 C.3       23 UNK        -0.0398 
    125 S125       -2.9360  -15.7029  -52.9196 S.3       23 UNK        -0.2404 
    126 C126       -2.3931  -16.8077  -51.5724 C.3       23 UNK        -0.0205 
    127 H127        4.2236  -16.9185  -49.8017 H         1 UNK         0.0600 
    128 H128        4.2647  -18.1743  -48.5606 H         1 UNK         0.0600 
    129 H129        5.5980  -17.0224  -48.6969 H         1 UNK         0.0600 
    130 H130        2.8651  -15.2285  -49.2772 H         1 UNK         0.3000 
    131 H131        1.9284  -14.8403  -46.5517 H         1 UNK         0.0600 
    132 H132        1.0530  -13.1451  -48.9361 H         1 UNK         0.0800 
    133 H133        0.5025  -14.7835  -48.7447 H         1 UNK         0.0800 
    134 H134       -1.5292  -12.5831  -48.9644 H         1 UNK         0.0800 
    135 H135       -2.5660  -12.5767  -47.5647 H         1 UNK         0.0800 
    136 H136       -1.3570  -14.5955  -50.3812 H         1 UNK         0.1150 
    137 H137       -4.2223  -17.7203  -49.7655 H         1 UNK         0.1150 
    138 H138       -3.7533  -14.6344  -46.8268 H         1 UNK         0.1150 
    139 H139       -5.9550  -16.0594  -47.1561 H         1 UNK         0.0800 
    140 H140       -5.7824  -17.5980  -47.9558 H         1 UNK         0.0800 
    141 H141       -5.7704  -19.6041  -46.4193 H         1 UNK         0.0800 
    142 H142       -4.6141  -19.8319  -45.1406 H         1 UNK         0.0800 
    143 H143       -4.0896  -19.6606  -48.1417 H         1 UNK         0.0600 
    144 H144       -2.2443  -18.7500  -46.2098 H         1 UNK         0.3000 
    145 H145        0.7673  -19.5101  -47.9628 H         1 UNK         0.0600 
    146 H146        0.9634  -17.0352  -47.5233 H         1 UNK         0.0600 
    147 H147        0.0156  -17.4048  -48.9585 H         1 UNK         0.0600 
    148 H148       -0.7912  -16.9146  -47.4766 H         1 UNK         0.0600 
    149 H149        0.0009  -18.2486  -45.4531 H         1 UNK         0.3000 
    150 H150        0.4609  -21.1801  -43.4581 H         1 UNK         0.0600 
    151 H151        2.8000  -20.4162  -43.8596 H         1 UNK         0.0600 
    152 H152        2.1791  -19.7380  -42.3611 H         1 UNK         0.0600 
    153 H153        2.2774  -18.7370  -43.8098 H         1 UNK         0.0600 
    154 H154        0.0382  -18.4713  -42.7291 H         1 UNK         0.3000 
    155 H155       -3.4509  -18.2552  -43.2106 H         1 UNK         0.0600 
    156 H156       -1.9591  -18.6520  -40.5653 H         1 UNK         0.0600 
    157 H157       -3.3294  -19.6142  -41.1103 H         1 UNK         0.0600 
    158 H158       -3.5434  -17.9047  -40.7667 H         1 UNK         0.0600 
    159 H159       -1.9120  -16.4371  -41.8365 H         1 UNK         0.3000 
    160 H160       -0.1990  -14.7325  -44.4046 H         1 UNK         0.0600 
    161 H161       -1.6294  -12.8520  -43.6599 H         1 UNK         0.0600 
    162 H162       -2.7663  -13.9757  -42.9129 H         1 UNK         0.0600 
    163 H163       -2.5458  -13.9713  -44.6556 H         1 UNK         0.0600 
    164 H164        0.8760  -14.5234  -42.5202 H         1 UNK         0.3000 
    165 H165        0.5292  -13.4629  -39.7493 H         1 UNK         0.0600 
    166 H166        1.1944  -15.1469  -38.0060 H         1 UNK         0.0600 
    167 H167       -0.5415  -15.0810  -38.2556 H         1 UNK         0.0600 
    168 H168        0.3851  -16.4105  -38.9328 H         1 UNK         0.0600 
    169 H169        2.5156  -13.8165  -40.5750 H         1 UNK         0.3000 
    170 H170        4.6612  -16.3435  -40.8124 H         1 UNK         0.0600 
    171 H171        3.8764  -17.2318  -42.9805 H         1 UNK         0.0600 
    172 H172        3.5264  -15.6119  -43.5714 H         1 UNK         0.0600 
    173 H173        5.1897  -16.1080  -43.2609 H         1 UNK         0.0600 
    174 H174        4.5575  -13.8044  -42.2359 H         1 UNK         0.3000 
    175 H175        5.0318  -11.6980  -39.5258 H         1 UNK         0.0600 
    176 H176        7.4122  -12.4480  -39.7438 H         1 UNK         0.0600 
    177 H177        7.1335  -10.9552  -40.6267 H         1 UNK         0.0600 
    178 H178        7.2500  -12.4848  -41.4964 H         1 UNK         0.0600 
    179 H179        5.2680  -11.2895  -42.3551 H         1 UNK         0.3000 
    180 H180        1.7967  -11.2180  -43.1469 H         1 UNK         0.0600 
    181 H181        3.9625   -9.0529  -43.1325 H         1 UNK         0.0600 
    182 H182        2.3482   -8.9301  -42.4552 H         1 UNK         0.0600 
    183 H183        2.5541   -9.0864  -44.1929 H         1 UNK         0.0600 
    184 H184        2.8918  -12.3008  -44.7112 H         1 UNK         0.3000 
    185 H185        5.4534  -11.8761  -46.6667 H         1 UNK         0.0600 
    186 H186        7.2398  -12.7045  -45.1457 H         1 UNK         0.0600 
    187 H187        6.1801  -13.9787  -44.5536 H         1 UNK         0.0600 
    188 H188        6.7247  -13.9835  -46.2301 H         1 UNK         0.0600 
    189 H189        4.2388  -14.4047  -45.9963 H         1 UNK         0.3000 
    190 H190       -2.5547  -21.3410  -45.3800 H         1 UNK         0.3000 
    191 H191       -3.6782  -23.9015  -45.7781 H         1 UNK         0.0600 
    192 H192       -1.0190  -23.0828  -44.4913 H         1 UNK         0.0600 
    193 H193       -1.7927  -24.6537  -44.3151 H         1 UNK         0.0600 
    194 H194       -2.5735  -23.2163  -43.6728 H         1 UNK         0.0600 
    195 H195       -0.5768  -22.5100  -47.0124 H         1 UNK         0.3000 
    196 H196        0.3209  -24.8081  -48.3751 H         1 UNK         0.0600 
    197 H197        1.7725  -23.1935  -49.6244 H         1 UNK         0.0600 
    198 H198        1.7917  -22.8914  -47.8946 H         1 UNK         0.0600 
    199 H199        0.8516  -21.8491  -48.9608 H         1 UNK         0.0600 
    200 H200       -1.6915  -22.0817  -49.5780 H         1 UNK         0.3000 
    201 H201       -1.9828  -22.9465  -52.2490 H         1 UNK         0.0600 
    202 H202       -2.5518  -20.6641  -51.5138 H         1 UNK         0.0600 
    203 H203       -3.8307  -21.2687  -50.4670 H         1 UNK         0.0600 
    204 H204       -3.9858  -21.4037  -52.2090 H         1 UNK         0.0600 
    205 H205       -3.8612  -23.7882  -49.3435 H         1 UNK         0.3000 
    206 H206       -5.8323  -25.3920  -50.7143 H         1 UNK         0.0600 
    207 H207       -6.3026  -24.3349  -48.5268 H         1 UNK         0.0600 
    208 H208       -6.4526  -26.0816  -48.3999 H         1 UNK         0.0600 
    209 H209       -5.0265  -25.2741  -47.7594 H         1 UNK         0.0600 
    210 H210       -2.8686  -26.1726  -48.8032 H         1 UNK         0.3000 
    211 H211       -3.0496  -28.9735  -48.9944 H         1 UNK         0.0600 
    212 H212       -0.5992  -27.1803  -48.5878 H         1 UNK         0.0600 
    213 H213       -0.6531  -28.9093  -48.2619 H         1 UNK         0.0600 
    214 H214       -1.6513  -27.8120  -47.3217 H         1 UNK         0.0600 
    215 H215       -1.4659  -26.6424  -51.1865 H         1 UNK         0.3000 
    216 H216       -0.3187  -28.6121  -52.9562 H         1 UNK         0.0600 
    217 H217        0.0371  -26.6156  -54.4187 H         1 UNK         0.0600 
    218 H218        0.5364  -26.2798  -52.7688 H         1 UNK         0.0600 
    219 H219       -0.9948  -25.6476  -53.3721 H         1 UNK         0.0600 
    220 H220       -3.5540  -27.6770  -52.4479 H         1 UNK         0.3000 
    221 H221       -5.4944  -27.8141  -53.4590 H         1 UNK         0.0600 
    222 H222       -5.9472  -29.6204  -55.0571 H         1 UNK         0.0600 
    223 H223       -4.8559  -30.2168  -53.8180 H         1 UNK         0.0600 
    224 H224       -4.2378  -29.8069  -55.4180 H         1 UNK         0.0600 
    225 H225       -3.6086  -25.7631  -54.2628 H         1 UNK         0.3000 
    226 H226       -4.0606  -25.1999  -57.1083 H         1 UNK         0.0600 
    227 H227       -1.8708  -24.6734  -56.0577 H         1 UNK         0.0600 
    228 H228       -2.6554  -23.1978  -56.6004 H         1 UNK         0.0600 
    229 H229       -2.6529  -23.6109  -54.8896 H         1 UNK         0.0600 
    230 H230       -5.1719  -24.1059  -53.9271 H         1 UNK         0.3000 
    231 H231       -6.7257  -22.7283  -53.1589 H         1 UNK         0.0600 
    232 H232       -8.2939  -24.2248  -54.4160 H         1 UNK         0.0600 
    233 H233       -8.2121  -23.1445  -55.8069 H         1 UNK         0.0600 
    234 H234       -8.9080  -22.5844  -54.2930 H         1 UNK         0.0600 
    235 H235       -4.4628  -21.5960  -54.3523 H         1 UNK         0.3000 
    236 H236       -4.9086  -19.3546  -55.9949 H         1 UNK         0.0600 
    237 H237       -2.6836  -20.4246  -55.6375 H         1 UNK         0.0600 
    238 H238       -2.6073  -18.7153  -55.2409 H         1 UNK         0.0600 
    239 H239       -2.6820  -19.9061  -53.9513 H         1 UNK         0.0600 
    240 H240       -4.8945  -17.1455  -55.5573 H         1 UNK         0.3000 
    241 H241       -5.3834  -15.2249  -54.6473 H         1 UNK         0.0600 
    242 H242       -8.9305  -16.7447  -53.9415 H         1 UNK         0.3800 
    243 H243       -7.5889  -17.6389  -54.6065 H         1 UNK         0.3800 
    244 H244       -5.0177  -16.3295  -51.8376 H         1 UNK         0.0800 
    245 H245       -4.9952  -14.6557  -52.3025 H         1 UNK         0.0800 
    246 H246       -1.3143  -16.9531  -51.6406 H         1 UNK         0.0800 
    247 H247       -2.8466  -17.7913  -51.7071 H         1 UNK         0.0800 
@<TRIPOS>BOND
     1    1    2 1    
     2    1  127 1    
     3    1  128 1    
     4    1  129 1    
     5    2    3 2    
     6    2    4 am   BACKBONE|DICT|INTERRES
     7    4    5 1    
     8    4  130 1    
     9    5    6 1    
    10    5   65 1    
    11    5  131 1    
    12    6    7 1    
    13    6  132 1    
    14    6  133 1    
    15    7    8 1    
    16    8    9 1    
    17    8  134 1    
    18    8  135 1    
    19    9   10 ar   
    20    9   14 ar   
    21   10   11 ar   
    22   10  136 1    
    23   11   12 ar   
    24   11  126 1    
    25   12   13 ar   
    26   12  137 1    
    27   13   14 ar   
    28   13   15 1    
    29   14  138 1    
    30   15   16 1    
    31   15  139 1    
    32   15  140 1    
    33   16   17 1    
    34   17   18 1    
    35   17  141 1    
    36   17  142 1    
    37   18   19 1    
    38   18   67 1    
    39   18  143 1    
    40   19   20 am   BACKBONE|DICT|INTERRES
    41   19  144 1    
    42   20   21 2    
    43   20   22 1    
    44   22   23 1    
    45   22   24 1    
    46   22  145 1    
    47   23  146 1    
    48   23  147 1    
    49   23  148 1    
    50   24   25 am   BACKBONE|DICT|INTERRES
    51   24  149 1    
    52   25   26 2    
    53   25   27 1    
    54   27   28 1    
    55   27   29 1    
    56   27  150 1    
    57   28  151 1    
    58   28  152 1    
    59   28  153 1    
    60   29   30 am   BACKBONE|DICT|INTERRES
    61   29  154 1    
    62   30   31 2    
    63   30   32 1    
    64   32   33 1    
    65   32   34 1    
    66   32  155 1    
    67   33  156 1    
    68   33  157 1    
    69   33  158 1    
    70   34   35 am   BACKBONE|DICT|INTERRES
    71   34  159 1    
    72   35   36 2    
    73   35   37 1    
    74   37   38 1    
    75   37   39 1    
    76   37  160 1    
    77   38  161 1    
    78   38  162 1    
    79   38  163 1    
    80   39   40 am   BACKBONE|DICT|INTERRES
    81   39  164 1    
    82   40   41 2    
    83   40   42 1    
    84   42   43 1    
    85   42   44 1    
    86   42  165 1    
    87   43  166 1    
    88   43  167 1    
    89   43  168 1    
    90   44   45 am   BACKBONE|DICT|INTERRES
    91   44  169 1    
    92   45   46 2    
    93   45   47 1    
    94   47   48 1    
    95   47   49 1    
    96   47  170 1    
    97   48  171 1    
    98   48  172 1    
    99   48  173 1    
   100   49   50 am   BACKBONE|DICT|INTERRES
   101   49  174 1    
   102   50   51 2    
   103   50   52 1    
   104   52   53 1    
   105   52   54 1    
   106   52  175 1    
   107   53  176 1    
   108   53  177 1    
   109   53  178 1    
   110   54   55 am   BACKBONE|DICT|INTERRES
   111   54  179 1    
   112   55   56 2    
   113   55   57 1    
   114   57   58 1    
   115   57   59 1    
   116   57  180 1    
   117   58  181 1    
   118   58  182 1    
   119   58  183 1    
   120   59   60 am   BACKBONE|DICT|INTERRES
   121   59  184 1    
   122   60   61 2    
   123   60   62 1    
   124   62   63 1    
   125   62   64 1    
   126   62  185 1    
   127   63  186 1    
   128   63  187 1    
   129   63  188 1    
   130   64   65 am   BACKBONE|DICT|INTERRES
   131   64  189 1    
   132   65   66 2    
   133   67   68 2    
   134   67   69 am   BACKBONE|DICT|INTERRES
   135   69   70 1    
   136   69  190 1    
   137   70   71 1    
   138   70   72 1    
   139   70  191 1    
   140   71  192 1    
   141   71  193 1    
   142   71  194 1    
   143   72   73 2    
   144   72   74 am   BACKBONE|DICT|INTERRES
   145   74   75 1    
   146   74  195 1    
   147   75   76 1    
   148   75   77 1    
   149   75  196 1    
   150   76  197 1    
   151   76  198 1    
   152   76  199 1    
   153   77   78 2    
   154   77   79 am   BACKBONE|DICT|INTERRES
   155   79   80 1    
   156   79  200 1    
   157   80   81 1    
   158   80   82 1    
   159   80  201 1    
   160   81  202 1    
   161   81  203 1    
   162   81  204 1    
   163   82   83 2    
   164   82   84 am   BACKBONE|DICT|INTERRES
   165   84   85 1    
   166   84  205 1    
   167   85   86 1    
   168   85   87 1    
   169   85  206 1    
   170   86  207 1    
   171   86  208 1    
   172   86  209 1    
   173   87   88 2    
   174   87   89 am   BACKBONE|DICT|INTERRES
   175   89   90 1    
   176   89  210 1    
   177   90   91 1    
   178   90   92 1    
   179   90  211 1    
   180   91  212 1    
   181   91  213 1    
   182   91  214 1    
   183   92   93 2    
   184   92   94 am   BACKBONE|DICT|INTERRES
   185   94   95 1    
   186   94  215 1    
   187   95   96 1    
   188   95   97 1    
   189   95  216 1    
   190   96  217 1    
   191   96  218 1    
   192   96  219 1    
   193   97   98 2    
   194   97   99 am   BACKBONE|DICT|INTERRES
   195   99  100 1    
   196   99  220 1    
   197  100  101 1    
   198  100  102 1    
   199  100  221 1    
   200  101  222 1    
   201  101  223 1    
   202  101  224 1    
   203  102  103 2    
   204  102  104 am   BACKBONE|DICT|INTERRES
   205  104  105 1    
   206  104  225 1    
   207  105  106 1    
   208  105  107 1    
   209  105  226 1    
   210  106  227 1    
   211  106  228 1    
   212  106  229 1    
   213  107  108 2    
   214  107  109 am   BACKBONE|DICT|INTERRES
   215  109  110 1    
   216  109  230 1    
   217  110  111 1    
   218  110  112 1    
   219  110  231 1    
   220  111  232 1    
   221  111  233 1    
   222  111  234 1    
   223  112  113 2    
   224  112  114 am   BACKBONE|DICT|INTERRES
   225  114  115 1    
   226  114  235 1    
   227  115  116 1    
   228  115  117 1    
   229  115  236 1    
   230  116  237 1    
   231  116  238 1    
   232  116  239 1    
   233  117  118 2    
   234  117  119 am   BACKBONE|DICT|INTERRES
   235  119  120 1    
   236  119  240 1    
   237  120  121 1    
   238  120  124 1    
   239  120  241 1    
   240  121  122 am   BACKBONE|DICT|INTERRES
   241  121  123 2    
   242  122  242 1    
   243  122  243 1    
   244  124  125 1    
   245  124  244 1    
   246  124  245 1    
   247  125  126 1    
   248  126  246 1    
   249  126  247 1    
@<TRIPOS>SUBSTRUCTURE
     1 UNK         1 GROUP             0       ****    0 ROOT    
