@<TRIPOS>MOLECULE
3R540
247   249    1
SMALL
USER_CHARGES


@<TRIPOS>ATOM
      1 CA          2.1454  -13.2910  -47.9912 C.3       0 UNK        -0.1800 
      2 C           0.7026  -12.8506  -47.7879 C.2       0 UNK         0.5000 
      3 O           0.3156  -11.7823  -48.2607 O.2       0 UNK        -0.5000 
      4 N          -0.0880  -13.6744  -47.0870 N.am      1 UNK        -0.5000 
      5 CA         -1.5037  -13.4466  -46.7625 C.3       1 UNK         0.1400 
      6 C6         -2.4188  -13.4211  -48.0199 C.3       23 UNK        -0.0398 
      7 S7         -4.1284  -14.0091  -47.7318 S.3       23 UNK        -0.2404 
      8 C8         -3.9334  -15.7538  -47.2268 C.3       23 UNK        -0.0205 
      9 C9         -3.2308  -16.6070  -48.2723 C.ar      23 UNK        -0.0193 
     10 C10        -3.9674  -17.2792  -49.2514 C.ar      23 UNK        -0.1150 
     11 C11        -3.3258  -18.1073  -50.1781 C.ar      23 UNK        -0.0193 
     12 C12        -1.9335  -18.2310  -50.1430 C.ar      23 UNK        -0.1150 
     13 C13        -1.1868  -17.5558  -49.1743 C.ar      23 UNK        -0.0193 
     14 C14        -1.8434  -16.7615  -48.2332 C.ar      23 UNK        -0.1150 
     15 C15         0.3284  -17.6664  -49.1387 C.3       23 UNK        -0.0205 
     16 S16         0.8983  -18.7804  -47.8186 S.3       23 UNK        -0.2404 
     17 C17         0.7038  -20.4207  -48.5909 C.3       23 UNK        -0.0398 
     18 CA         -0.2390  -21.3961  -47.8460 C.3       11 UNK         0.1400 
     19 N           0.0780  -21.5522  -46.4231 N.am      11 UNK        -0.5000 
     20 C          -0.1258  -22.6909  -45.7455 C.2       10 UNK         0.5000 
     21 O          -0.5405  -23.7282  -46.2615 O.2       10 UNK        -0.5000 
     22 CA          0.1580  -22.6705  -44.2361 C.3       10 UNK         0.1400 
     23 CB          1.6471  -22.9212  -43.9516 C.3       10 UNK        -0.1800 
     24 N          -0.2641  -21.4194  -43.6096 N.am      10 UNK        -0.5000 
     25 C          -1.5417  -21.0911  -43.3730 C.2       9 UNK         0.5000 
     26 O          -2.4981  -21.7935  -43.7016 O.2       9 UNK        -0.5000 
     27 CA         -1.7976  -19.7488  -42.6614 C.3       9 UNK         0.1400 
     28 CB         -1.7831  -19.9371  -41.1373 C.3       9 UNK        -0.1800 
     29 N          -0.8353  -18.7085  -43.0253 N.am      9 UNK        -0.5000 
     30 C          -0.7526  -18.1594  -44.2439 C.2       8 UNK         0.5000 
     31 O          -1.4801  -18.4729  -45.1827 O.2       8 UNK        -0.5000 
     32 CA          0.3489  -17.1072  -44.4598 C.3       8 UNK         0.1400 
     33 CB         -0.1261  -15.7335  -43.9640 C.3       8 UNK        -0.1800 
     34 N           1.6327  -17.4204  -43.8276 N.am      8 UNK        -0.5000 
     35 C           2.3155  -18.5729  -43.9074 C.2       7 UNK         0.5000 
     36 O           1.9111  -19.5679  -44.5089 O.2       7 UNK        -0.5000 
     37 CA          3.6809  -18.6348  -43.1932 C.3       7 UNK         0.1400 
     38 CB          4.8116  -18.8385  -44.2136 C.3       7 UNK        -0.1800 
     39 N           3.9842  -17.4440  -42.3958 N.am      7 UNK        -0.5000 
     40 C           3.4593  -17.1329  -41.2057 C.2       6 UNK         0.5000 
     41 O           2.6340  -17.8380  -40.6252 O.2       6 UNK        -0.5000 
     42 CA          3.8999  -15.7972  -40.5713 C.3       6 UNK         0.1400 
     43 CB          5.2539  -15.9445  -39.8528 C.3       6 UNK        -0.1800 
     44 N           3.9055  -14.6462  -41.4877 N.am      6 UNK        -0.5000 
     45 C           4.6717  -14.4104  -42.5656 C.2       5 UNK         0.5000 
     46 O           5.5204  -15.1944  -42.9917 O.2       5 UNK        -0.5000 
     47 CA          4.4420  -13.0815  -43.3103 C.3       5 UNK         0.1400 
     48 CB          3.5877  -13.3114  -44.5673 C.3       5 UNK        -0.1800 
     49 N           3.8052  -12.0666  -42.4673 N.am      5 UNK        -0.5000 
     50 C           4.4613  -11.3369  -41.5512 C.2       4 UNK         0.5000 
     51 O           5.6760  -11.4175  -41.3639 O.2       4 UNK        -0.5000 
     52 CA          3.6383  -10.3537  -40.6932 C.3       4 UNK         0.1400 
     53 CB          3.7614   -8.9267  -41.2493 C.3       4 UNK        -0.1800 
     54 N           2.2197  -10.6974  -40.5920 N.am      4 UNK        -0.5000 
     55 C           1.7241  -11.7769  -39.9714 C.2       3 UNK         0.5000 
     56 O           2.4155  -12.6051  -39.3784 O.2       3 UNK        -0.5000 
     57 CA          0.2011  -11.9924  -40.0795 C.3       3 UNK         0.1400 
     58 CB         -0.5167  -11.3729  -38.8710 C.3       3 UNK        -0.1800 
     59 N          -0.3887  -11.4622  -41.3157 N.am      3 UNK        -0.5000 
     60 C          -0.0532  -11.8607  -42.5491 C.2       2 UNK         0.5000 
     61 O           0.8335  -12.6873  -42.7821 O.2       2 UNK        -0.5000 
     62 CA         -0.7959  -11.2039  -43.7182 C.3       2 UNK         0.1400 
     63 CB         -0.1085   -9.8940  -44.1384 C.3       2 UNK        -0.1800 
     64 N          -0.7798  -12.1465  -44.8273 N.am      2 UNK        -0.5000 
     65 C          -1.7013  -12.2597  -45.7895 C.2       1 UNK         0.5000 
     66 O          -2.6606  -11.4954  -45.9055 O.2       1 UNK        -0.5000 
     67 C          -1.7346  -21.1114  -48.0925 C.2       11 UNK         0.5000 
     68 O          -2.2227  -21.4305  -49.1753 O.2       11 UNK        -0.5000 
     69 N          -2.4538  -20.5672  -47.0988 N.am      12 UNK        -0.5000 
     70 CA         -3.9082  -20.4064  -47.1496 C.3       12 UNK         0.1400 
     71 CB         -4.3799  -19.4730  -46.0257 C.3       12 UNK        -0.1800 
     72 C          -4.6541  -21.7500  -47.0741 C.2       12 UNK         0.5000 
     73 O          -5.6492  -21.9235  -47.7797 O.2       12 UNK        -0.5000 
     74 N          -4.1600  -22.6720  -46.2323 N.am      13 UNK        -0.5000 
     75 CA         -4.7073  -24.0117  -46.0029 C.3       13 UNK         0.1400 
     76 CB         -3.8440  -24.7426  -44.9628 C.3       13 UNK        -0.1800 
     77 C          -4.8189  -24.8264  -47.3053 C.2       13 UNK         0.5000 
     78 O          -3.7971  -25.2157  -47.8754 O.2       13 UNK        -0.5000 
     79 N          -6.0614  -24.9995  -47.7827 N.am      14 UNK        -0.5000 
     80 CA         -6.4503  -25.6296  -49.0530 C.3       14 UNK         0.1400 
     81 CB         -6.1842  -27.1488  -48.9991 C.3       14 UNK        -0.1800 
     82 C          -5.8103  -24.9690  -50.2958 C.2       14 UNK         0.5000 
     83 O          -5.6277  -25.6363  -51.3152 O.2       14 UNK        -0.5000 
     84 N          -5.4250  -23.6888  -50.1731 N.am      15 UNK        -0.5000 
     85 CA         -4.6086  -22.9218  -51.1186 C.3       15 UNK         0.1400 
     86 CB         -5.4310  -22.5483  -52.3685 C.3       15 UNK        -0.1800 
     87 C          -3.2703  -23.6188  -51.4554 C.2       15 UNK         0.5000 
     88 O          -2.8659  -23.6407  -52.6187 O.2       15 UNK        -0.5000 
     89 N          -2.6380  -24.2188  -50.4341 N.am      16 UNK        -0.5000 
     90 CA         -1.4164  -25.0271  -50.4969 C.3       16 UNK         0.1400 
     91 CB         -0.2192  -24.1836  -50.9876 C.3       16 UNK        -0.1800 
     92 C          -1.6235  -26.3140  -51.3222 C.2       16 UNK         0.5000 
     93 O          -0.7516  -26.6938  -52.1030 O.2       16 UNK        -0.5000 
     94 N          -2.8032  -26.9345  -51.1651 N.am      17 UNK        -0.5000 
     95 CA         -3.3372  -28.0319  -51.9826 C.3       17 UNK         0.1400 
     96 CB         -2.5184  -29.3251  -51.7888 C.3       17 UNK        -0.1800 
     97 C          -3.4799  -27.6061  -53.4601 C.2       17 UNK         0.5000 
     98 O          -3.0084  -28.2972  -54.3641 O.2       17 UNK        -0.5000 
     99 N          -4.0936  -26.4298  -53.6497 N.am      18 UNK        -0.5000 
    100 CA        -4.3172  -25.6876  -54.8956 C.3       18 UNK         0.1400 
    101 CB        -5.1578  -26.5137  -55.8896 C.3       18 UNK        -0.1800 
    102 C         -3.0518  -25.1058  -55.5650 C.2       18 UNK         0.5000 
    103 O         -3.1889  -24.3962  -56.5630 O.2       18 UNK        -0.5000 
    104 N         -1.8538  -25.3664  -55.0211 N.am      19 UNK        -0.5000 
    105 CA        -0.5717  -24.9344  -55.5849 C.3       19 UNK         0.1400 
    106 CB         0.5763  -25.6726  -54.8820 C.3       19 UNK        -0.1800 
    107 C         -0.3376  -23.4121  -55.5390 C.2       19 UNK         0.5000 
    108 O          0.4252  -22.9034  -56.3617 O.2       19 UNK        -0.5000 
    109 N         -0.9930  -22.7052  -54.6061 N.am      20 UNK        -0.5000 
    110 CA        -0.9390  -21.2438  -54.5046 C.3       20 UNK         0.1400 
    111 CB        -1.3633  -20.8114  -53.0942 C.3       20 UNK        -0.1800 
    112 C         -1.8082  -20.5362  -55.5636 C.2       20 UNK         0.5000 
    113 O         -1.6105  -19.3441  -55.7995 O.2       20 UNK        -0.5000 
    114 N         -2.7469  -21.2773  -56.1752 N.am      21 UNK        -0.5000 
    115 CA        -3.6729  -20.8501  -57.2295 C.3       21 UNK         0.1400 
    116 CB        -2.9053  -20.5148  -58.5256 C.3       21 UNK        -0.1800 
    117 C         -4.6443  -19.7294  -56.7954 C.2       21 UNK         0.5000 
    118 O         -5.0595  -18.9196  -57.6268 O.2       21 UNK        -0.5000 
    119 N         -5.0090  -19.7133  -55.5055 N.am      22 UNK        -0.5000 
    120 CA        -5.9794  -18.7682  -54.9224 C.3       22 UNK         0.1400 
    121 C         -7.4612  -19.0224  -55.3353 C.2       22 UNK         0.5000 
    122 N         -7.8088  -20.1634  -55.9189 N.am      22 UNK        -0.7600 
    123 O         -8.3125  -18.1628  -55.1253 O.2       22 UNK        -0.5000 
    124 C124       -5.8630  -18.6889  -53.3787 C.3       23 UNK        -0.0398 
    125 S125       -4.2440  -18.0804  -52.7967 S.3       23 UNK        -0.2404 
    126 C126       -4.1443  -18.9060  -51.1792 C.3       23 UNK        -0.0205 
    127 H127        2.3441  -13.4442  -49.0519 H         1 UNK         0.0600 
    128 H128        2.8273  -12.5244  -47.6233 H         1 UNK         0.0600 
    129 H129        2.3651  -14.2210  -47.4661 H         1 UNK         0.0600 
    130 H130        0.3063  -14.5346  -46.7371 H         1 UNK         0.3000 
    131 H131       -1.7779  -14.3189  -46.1756 H         1 UNK         0.0600 
    132 H132       -1.9939  -14.0416  -48.8092 H         1 UNK         0.0800 
    133 H133       -2.4609  -12.4170  -48.4450 H         1 UNK         0.0800 
    134 H134       -3.4109  -15.8205  -46.2723 H         1 UNK         0.0800 
    135 H135       -4.9265  -16.1637  -47.0373 H         1 UNK         0.0800 
    136 H136       -5.0434  -17.1785  -49.2746 H         1 UNK         0.1150 
    137 H137       -1.4342  -18.8689  -50.8563 H         1 UNK         0.1150 
    138 H138       -1.2678  -16.2672  -47.4661 H         1 UNK         0.1150 
    139 H139        0.7207  -17.9935  -50.1028 H         1 UNK         0.0800 
    140 H140        0.7523  -16.6765  -48.9636 H         1 UNK         0.0800 
    141 H141        1.6991  -20.8644  -48.6364 H         1 UNK         0.0800 
    142 H142        0.3926  -20.3135  -49.6314 H         1 UNK         0.0800 
    143 H143       -0.0647  -22.3651  -48.3169 H         1 UNK         0.0600 
    144 H144        0.4428  -20.7391  -45.9409 H         1 UNK         0.3000 
    145 H145       -0.4093  -23.4858  -43.7812 H         1 UNK         0.0600 
    146 H146        1.8497  -22.9262  -42.8805 H         1 UNK         0.0600 
    147 H147        1.9583  -23.8894  -44.3457 H         1 UNK         0.0600 
    148 H148        2.2834  -22.1645  -44.4106 H         1 UNK         0.0600 
    149 H149        0.4631  -20.7438  -43.4128 H         1 UNK         0.3000 
    150 H150       -2.7928  -19.4055  -42.9514 H         1 UNK         0.0600 
    151 H151       -2.5054  -20.6950  -40.8307 H         1 UNK         0.0600 
    152 H152       -2.0458  -19.0125  -40.6230 H         1 UNK         0.0600 
    153 H153       -0.8024  -20.2539  -40.7798 H         1 UNK         0.0600 
    154 H154       -0.1875  -18.4080  -42.3115 H         1 UNK         0.3000 
    155 H155        0.5232  -17.0365  -45.5336 H         1 UNK         0.0600 
    156 H156       -1.1306  -15.5083  -44.3217 H         1 UNK         0.0600 
    157 H157        0.5339  -14.9418  -44.3144 H         1 UNK         0.0600 
    158 H158       -0.1550  -15.6853  -42.8747 H         1 UNK         0.0600 
    159 H159        2.0606  -16.6757  -43.2992 H         1 UNK         0.3000 
    160 H160        3.6585  -19.5006  -42.5285 H         1 UNK         0.0600 
    161 H161        5.7757  -18.9486  -43.7169 H         1 UNK         0.0600 
    162 H162        4.8840  -17.9975  -44.9045 H         1 UNK         0.0600 
    163 H163        4.6489  -19.7392  -44.8072 H         1 UNK         0.0600 
    164 H164        4.6532  -16.7853  -42.7896 H         1 UNK         0.3000 
    165 H165        3.1554  -15.5559  -39.8107 H         1 UNK         0.0600 
    166 H166        6.0590  -16.1968  -40.5434 H         1 UNK         0.0600 
    167 H167        5.5285  -15.0224  -39.3404 H         1 UNK         0.0600 
    168 H168        5.2112  -16.7338  -39.1013 H         1 UNK         0.0600 
    169 H169        3.2444  -13.9211  -41.2425 H         1 UNK         0.3000 
    170 H170        5.4169  -12.7091  -43.6323 H         1 UNK         0.0600 
    171 H171        4.0997  -13.9711  -45.2689 H         1 UNK         0.0600 
    172 H172        2.6313  -13.7740  -44.3281 H         1 UNK         0.0600 
    173 H173        3.3880  -12.3747  -45.0876 H         1 UNK         0.0600 
    174 H174        2.7987  -11.9790  -42.5484 H         1 UNK         0.3000 
    175 H175        4.0602  -10.3672  -39.6861 H         1 UNK         0.0600 
    176 H176        3.3344   -8.8470  -42.2499 H         1 UNK         0.0600 
    177 H177        3.2525   -8.2073  -40.6076 H         1 UNK         0.0600 
    178 H178        4.8064   -8.6202  -41.3129 H         1 UNK         0.0600 
    179 H179        1.5716  -10.0786  -41.0560 H         1 UNK         0.3000 
    180 H180        0.0251  -13.0701  -40.0659 H         1 UNK         0.0600 
    181 H181       -0.4032  -10.2884  -38.8478 H         1 UNK         0.0600 
    182 H182       -0.1161  -11.7651  -37.9351 H         1 UNK         0.0600 
    183 H183       -1.5829  -11.5997  -38.8860 H         1 UNK         0.0600 
    184 H184       -1.1152  -10.7694  -41.2042 H         1 UNK         0.3000 
    185 H185       -1.8262  -11.0057  -43.4153 H         1 UNK         0.0600 
    186 H186       -0.1046   -9.1721  -43.3210 H         1 UNK         0.0600 
    187 H187        0.9275  -10.0620  -44.4362 H         1 UNK         0.0600 
    188 H188       -0.6254   -9.4299  -44.9785 H         1 UNK         0.0600 
    189 H189       -0.0257  -12.8186  -44.7737 H         1 UNK         0.3000 
    190 H190       -1.9822  -20.2207  -46.2719 H         1 UNK         0.3000 
    191 H191       -4.1664  -19.9417  -48.1023 H         1 UNK         0.0600 
    192 H192       -4.1177  -19.8617  -45.0417 H         1 UNK         0.0600 
    193 H193       -3.9364  -18.4837  -46.1247 H         1 UNK         0.0600 
    194 H194       -5.4625  -19.3443  -46.0523 H         1 UNK         0.0600 
    195 H195       -3.3494  -22.4255  -45.6780 H         1 UNK         0.3000 
    196 H196       -5.7058  -23.8887  -45.5791 H         1 UNK         0.0600 
    197 H197       -3.8342  -24.2094  -44.0122 H         1 UNK         0.0600 
    198 H198       -2.8119  -24.8479  -45.2980 H         1 UNK         0.0600 
    199 H199       -4.2298  -25.7442  -44.7694 H         1 UNK         0.0600 
    200 H200       -6.8250  -24.5932  -47.2595 H         1 UNK         0.3000 
    201 H201       -7.5264  -25.4831  -49.1546 H         1 UNK         0.0600 
    202 H202       -6.5858  -27.6509  -49.8801 H         1 UNK         0.0600 
    203 H203       -6.6589  -27.6004  -48.1281 H         1 UNK         0.0600 
    204 H204       -5.1182  -27.3731  -48.9522 H         1 UNK         0.0600 
    205 H205       -5.6156  -23.2191  -49.2923 H         1 UNK         0.3000 
    206 H206       -4.3492  -21.9967  -50.6062 H         1 UNK         0.0600 
    207 H207       -6.3267  -21.9918  -52.0936 H         1 UNK         0.0600 
    208 H208       -5.7477  -23.4306  -52.9231 H         1 UNK         0.0600 
    209 H209       -4.8530  -21.9213  -53.0477 H         1 UNK         0.0600 
    210 H210       -3.0748  -24.1854  -49.5191 H         1 UNK         0.3000 
    211 H211       -1.2061  -25.3414  -49.4736 H         1 UNK         0.0600 
    212 H212       -0.1424  -23.2451  -50.4417 H         1 UNK         0.0600 
    213 H213        0.7186  -24.7221  -50.8489 H         1 UNK         0.0600 
    214 H214       -0.2995  -23.9403  -52.0467 H         1 UNK         0.0600 
    215 H215       -3.4611  -26.5161  -50.5223 H         1 UNK         0.3000 
    216 H216       -4.3474  -28.2253  -51.6188 H         1 UNK         0.0600 
    217 H217       -2.9891  -30.1624  -52.3051 H         1 UNK         0.0600 
    218 H218       -1.5049  -29.2314  -52.1796 H         1 UNK         0.0600 
    219 H219       -2.4481  -29.5918  -50.7344 H         1 UNK         0.0600 
    220 H220       -4.4614  -25.9731  -52.8189 H         1 UNK         0.3000 
    221 H221       -4.9157  -24.8227  -54.6106 H         1 UNK         0.0600 
    222 H222       -4.6051  -27.3695  -56.2775 H         1 UNK         0.0600 
    223 H223       -6.0696  -26.8851  -55.4219 H         1 UNK         0.0600 
    224 H224       -5.4577  -25.9079  -56.7455 H         1 UNK         0.0600 
    225 H225       -1.8148  -25.9217  -54.1771 H         1 UNK         0.3000 
    226 H226       -0.5637  -25.2310  -56.6359 H         1 UNK         0.0600 
    227 H227        0.4200  -26.7516  -54.8887 H         1 UNK         0.0600 
    228 H228        1.5263  -25.4776  -55.3810 H         1 UNK         0.0600 
    229 H229        0.6840  -25.3533  -53.8456 H         1 UNK         0.0600 
    230 H230       -1.6126  -23.1858  -53.9562 H         1 UNK         0.3000 
    231 H231        0.0934  -20.9220  -54.6565 H         1 UNK         0.0600 
    232 H232       -1.2405  -19.7351  -52.9727 H         1 UNK         0.0600 
    233 H233       -0.7654  -21.3005  -52.3250 H         1 UNK         0.0600 
    234 H234       -2.4110  -21.0412  -52.9059 H         1 UNK         0.0600 
    235 H235       -2.7993  -22.2587  -55.9314 H         1 UNK         0.3000 
    236 H236       -4.2992  -21.7178  -57.4414 H         1 UNK         0.0600 
    237 H237       -2.2415  -21.3309  -58.8115 H         1 UNK         0.0600 
    238 H238       -3.5917  -20.3512  -59.3571 H         1 UNK         0.0600 
    239 H239       -2.3018  -19.6132  -58.4179 H         1 UNK         0.0600 
    240 H240       -4.6067  -20.3942  -54.8806 H         1 UNK         0.3000 
    241 H241       -5.7356  -17.7781  -55.3129 H         1 UNK         0.0600 
    242 H242       -8.7702  -20.3105  -56.1841 H         1 UNK         0.3800 
    243 H243       -7.1249  -20.8794  -56.1006 H         1 UNK         0.3800 
    244 H244       -6.6175  -18.0138  -52.9701 H         1 UNK         0.0800 
    245 H245       -6.0655  -19.6672  -52.9420 H         1 UNK         0.0800 
    246 H246       -3.7013  -19.8925  -51.3077 H         1 UNK         0.0800 
    247 H247       -5.1464  -19.0703  -50.7801 H         1 UNK         0.0800 
@<TRIPOS>BOND
     1    1    2 1    
     2    1  127 1    
     3    1  128 1    
     4    1  129 1    
     5    2    3 2    
     6    2    4 am   BACKBONE|DICT|INTERRES
     7    4    5 1    
     8    4  130 1    
     9    5    6 1    
    10    5   65 1    
    11    5  131 1    
    12    6    7 1    
    13    6  132 1    
    14    6  133 1    
    15    7    8 1    
    16    8    9 1    
    17    8  134 1    
    18    8  135 1    
    19    9   10 ar   
    20    9   14 ar   
    21   10   11 ar   
    22   10  136 1    
    23   11   12 ar   
    24   11  126 1    
    25   12   13 ar   
    26   12  137 1    
    27   13   14 ar   
    28   13   15 1    
    29   14  138 1    
    30   15   16 1    
    31   15  139 1    
    32   15  140 1    
    33   16   17 1    
    34   17   18 1    
    35   17  141 1    
    36   17  142 1    
    37   18   19 1    
    38   18   67 1    
    39   18  143 1    
    40   19   20 am   BACKBONE|DICT|INTERRES
    41   19  144 1    
    42   20   21 2    
    43   20   22 1    
    44   22   23 1    
    45   22   24 1    
    46   22  145 1    
    47   23  146 1    
    48   23  147 1    
    49   23  148 1    
    50   24   25 am   BACKBONE|DICT|INTERRES
    51   24  149 1    
    52   25   26 2    
    53   25   27 1    
    54   27   28 1    
    55   27   29 1    
    56   27  150 1    
    57   28  151 1    
    58   28  152 1    
    59   28  153 1    
    60   29   30 am   BACKBONE|DICT|INTERRES
    61   29  154 1    
    62   30   31 2    
    63   30   32 1    
    64   32   33 1    
    65   32   34 1    
    66   32  155 1    
    67   33  156 1    
    68   33  157 1    
    69   33  158 1    
    70   34   35 am   BACKBONE|DICT|INTERRES
    71   34  159 1    
    72   35   36 2    
    73   35   37 1    
    74   37   38 1    
    75   37   39 1    
    76   37  160 1    
    77   38  161 1    
    78   38  162 1    
    79   38  163 1    
    80   39   40 am   BACKBONE|DICT|INTERRES
    81   39  164 1    
    82   40   41 2    
    83   40   42 1    
    84   42   43 1    
    85   42   44 1    
    86   42  165 1    
    87   43  166 1    
    88   43  167 1    
    89   43  168 1    
    90   44   45 am   BACKBONE|DICT|INTERRES
    91   44  169 1    
    92   45   46 2    
    93   45   47 1    
    94   47   48 1    
    95   47   49 1    
    96   47  170 1    
    97   48  171 1    
    98   48  172 1    
    99   48  173 1    
   100   49   50 am   BACKBONE|DICT|INTERRES
   101   49  174 1    
   102   50   51 2    
   103   50   52 1    
   104   52   53 1    
   105   52   54 1    
   106   52  175 1    
   107   53  176 1    
   108   53  177 1    
   109   53  178 1    
   110   54   55 am   BACKBONE|DICT|INTERRES
   111   54  179 1    
   112   55   56 2    
   113   55   57 1    
   114   57   58 1    
   115   57   59 1    
   116   57  180 1    
   117   58  181 1    
   118   58  182 1    
   119   58  183 1    
   120   59   60 am   BACKBONE|DICT|INTERRES
   121   59  184 1    
   122   60   61 2    
   123   60   62 1    
   124   62   63 1    
   125   62   64 1    
   126   62  185 1    
   127   63  186 1    
   128   63  187 1    
   129   63  188 1    
   130   64   65 am   BACKBONE|DICT|INTERRES
   131   64  189 1    
   132   65   66 2    
   133   67   68 2    
   134   67   69 am   BACKBONE|DICT|INTERRES
   135   69   70 1    
   136   69  190 1    
   137   70   71 1    
   138   70   72 1    
   139   70  191 1    
   140   71  192 1    
   141   71  193 1    
   142   71  194 1    
   143   72   73 2    
   144   72   74 am   BACKBONE|DICT|INTERRES
   145   74   75 1    
   146   74  195 1    
   147   75   76 1    
   148   75   77 1    
   149   75  196 1    
   150   76  197 1    
   151   76  198 1    
   152   76  199 1    
   153   77   78 2    
   154   77   79 am   BACKBONE|DICT|INTERRES
   155   79   80 1    
   156   79  200 1    
   157   80   81 1    
   158   80   82 1    
   159   80  201 1    
   160   81  202 1    
   161   81  203 1    
   162   81  204 1    
   163   82   83 2    
   164   82   84 am   BACKBONE|DICT|INTERRES
   165   84   85 1    
   166   84  205 1    
   167   85   86 1    
   168   85   87 1    
   169   85  206 1    
   170   86  207 1    
   171   86  208 1    
   172   86  209 1    
   173   87   88 2    
   174   87   89 am   BACKBONE|DICT|INTERRES
   175   89   90 1    
   176   89  210 1    
   177   90   91 1    
   178   90   92 1    
   179   90  211 1    
   180   91  212 1    
   181   91  213 1    
   182   91  214 1    
   183   92   93 2    
   184   92   94 am   BACKBONE|DICT|INTERRES
   185   94   95 1    
   186   94  215 1    
   187   95   96 1    
   188   95   97 1    
   189   95  216 1    
   190   96  217 1    
   191   96  218 1    
   192   96  219 1    
   193   97   98 2    
   194   97   99 am   BACKBONE|DICT|INTERRES
   195   99  100 1    
   196   99  220 1    
   197  100  101 1    
   198  100  102 1    
   199  100  221 1    
   200  101  222 1    
   201  101  223 1    
   202  101  224 1    
   203  102  103 2    
   204  102  104 am   BACKBONE|DICT|INTERRES
   205  104  105 1    
   206  104  225 1    
   207  105  106 1    
   208  105  107 1    
   209  105  226 1    
   210  106  227 1    
   211  106  228 1    
   212  106  229 1    
   213  107  108 2    
   214  107  109 am   BACKBONE|DICT|INTERRES
   215  109  110 1    
   216  109  230 1    
   217  110  111 1    
   218  110  112 1    
   219  110  231 1    
   220  111  232 1    
   221  111  233 1    
   222  111  234 1    
   223  112  113 2    
   224  112  114 am   BACKBONE|DICT|INTERRES
   225  114  115 1    
   226  114  235 1    
   227  115  116 1    
   228  115  117 1    
   229  115  236 1    
   230  116  237 1    
   231  116  238 1    
   232  116  239 1    
   233  117  118 2    
   234  117  119 am   BACKBONE|DICT|INTERRES
   235  119  120 1    
   236  119  240 1    
   237  120  121 1    
   238  120  124 1    
   239  120  241 1    
   240  121  122 am   BACKBONE|DICT|INTERRES
   241  121  123 2    
   242  122  242 1    
   243  122  243 1    
   244  124  125 1    
   245  124  244 1    
   246  124  245 1    
   247  125  126 1    
   248  126  246 1    
   249  126  247 1    
@<TRIPOS>SUBSTRUCTURE
     1 UNK         1 GROUP             0       ****    0 ROOT    
