@<TRIPOS>MOLECULE
3R540
247   249    1
SMALL
USER_CHARGES


@<TRIPOS>ATOM
      1 CA          5.1070  -13.3908  -51.1491 C.3       0 UNK        -0.1800 
      2 C           4.6772  -13.6981  -49.7220 C.2       0 UNK         0.5000 
      3 O           5.2882  -14.5407  -49.0632 O.2       0 UNK        -0.5000 
      4 N           3.6371  -13.0123  -49.2326 N.am      1 UNK        -0.5000 
      5 CA          3.0524  -13.1735  -47.8949 C.3       1 UNK         0.1400 
      6 C6          1.5697  -12.7196  -47.8504 C.3       23 UNK        -0.0398 
      7 S7          0.5225  -13.6188  -49.0411 S.3       23 UNK        -0.2404 
      8 C8         -0.1454  -14.9228  -47.9693 C.3       23 UNK        -0.0205 
      9 C9         -0.9598  -15.9245  -48.7687 C.ar      23 UNK        -0.0193 
     10 C10        -2.3502  -15.8109  -48.8450 C.ar      23 UNK        -0.1150 
     11 C11        -3.1072  -16.7479  -49.5559 C.ar      23 UNK        -0.0193 
     12 C12        -2.4515  -17.8130  -50.1863 C.ar      23 UNK        -0.1150 
     13 C13        -1.0575  -17.9160  -50.1484 C.ar      23 UNK        -0.0193 
     14 C14        -0.3190  -16.9753  -49.4272 C.ar      23 UNK        -0.1150 
     15 C15        -0.3393  -19.0322  -50.8945 C.3       23 UNK        -0.0205 
     16 S16        -0.7551  -20.6882  -50.2690 S.3       23 UNK        -0.2404 
     17 C17        -0.5068  -20.4705  -48.4761 C.3       23 UNK        -0.0398 
     18 CA         -0.4220  -21.8031  -47.7018 C.3       11 UNK         0.1400 
     19 N           0.0741  -21.5886  -46.3416 N.am      11 UNK        -0.5000 
     20 C           0.4247  -22.5594  -45.4883 C.2       10 UNK         0.5000 
     21 O           0.3975  -23.7567  -45.7670 O.2       10 UNK        -0.5000 
     22 CA          0.8152  -22.1230  -44.0660 C.3       10 UNK         0.1400 
     23 CB          2.2495  -21.5753  -44.0335 C.3       10 UNK        -0.1800 
     24 N          -0.1115  -21.1315  -43.5185 N.am      10 UNK        -0.5000 
     25 C          -1.4112  -21.3658  -43.2850 C.2       9 UNK         0.5000 
     26 O          -1.9464  -22.4628  -43.4498 O.2       9 UNK        -0.5000 
     27 CA         -2.2664  -20.1675  -42.8344 C.3       9 UNK         0.1400 
     28 CB         -2.0959  -19.9145  -41.3295 C.3       9 UNK        -0.1800 
     29 N          -1.9711  -18.9419  -43.5799 N.am      9 UNK        -0.5000 
     30 C          -2.1583  -18.7890  -44.8991 C.2       8 UNK         0.5000 
     31 O          -2.6274  -19.6615  -45.6269 O.2       8 UNK        -0.5000 
     32 CA         -1.6942  -17.4621  -45.5250 C.3       8 UNK         0.1400 
     33 CB         -2.7107  -16.3413  -45.2616 C.3       8 UNK        -0.1800 
     34 N          -0.3683  -17.0581  -45.0563 N.am      8 UNK        -0.5000 
     35 C           0.7515  -17.7672  -45.2619 C.2       7 UNK         0.5000 
     36 O           0.7959  -18.8027  -45.9253 O.2       7 UNK        -0.5000 
     37 CA          2.0227  -17.2688  -44.5550 C.3       7 UNK         0.1400 
     38 CB          2.7094  -16.1548  -45.3619 C.3       7 UNK        -0.1800 
     39 N           1.7337  -16.8155  -43.1929 N.am      7 UNK        -0.5000 
     40 C           1.3911  -17.6406  -42.1912 C.2       6 UNK         0.5000 
     41 O           1.3641  -18.8663  -42.2978 O.2       6 UNK        -0.5000 
     42 CA          0.9466  -16.9923  -40.8681 C.3       6 UNK         0.1400 
     43 CB          2.1373  -16.7770  -39.9251 C.3       6 UNK        -0.1800 
     44 N           0.2415  -15.7280  -41.0842 N.am      6 UNK        -0.5000 
     45 C          -1.0080  -15.6586  -41.5666 C.2       5 UNK         0.5000 
     46 O          -1.6830  -16.6504  -41.8383 O.2       5 UNK        -0.5000 
     47 CA         -1.5960  -14.2603  -41.8300 C.3       5 UNK         0.1400 
     48 CB         -2.3555  -13.7559  -40.5943 C.3       5 UNK        -0.1800 
     49 N          -0.5977  -13.2653  -42.2199 N.am      5 UNK        -0.5000 
     50 C           0.1670  -13.3248  -43.3179 C.2       4 UNK         0.5000 
     51 O           0.1140  -14.2466  -44.1346 O.2       4 UNK        -0.5000 
     52 CA          1.1832  -12.1833  -43.5304 C.3       4 UNK         0.1400 
     53 CB          0.9861  -10.9778  -42.5843 C.3       4 UNK        -0.1800 
     54 N           2.5713  -12.6493  -43.4595 N.am      4 UNK        -0.5000 
     55 C           3.1581  -13.3257  -42.4580 C.2       3 UNK         0.5000 
     56 O           2.5539  -13.7095  -41.4553 O.2       3 UNK        -0.5000 
     57 CA          4.6656  -13.6333  -42.5929 C.3       3 UNK         0.1400 
     58 CB          4.9981  -15.0790  -42.1859 C.3       3 UNK        -0.1800 
     59 N           5.1587  -13.3987  -43.9523 N.am      3 UNK        -0.5000 
     60 C           5.8638  -12.3288  -44.3420 C.2       2 UNK         0.5000 
     61 O           6.2274  -11.4296  -43.5834 O.2       2 UNK        -0.5000 
     62 CA          6.1952  -12.2329  -45.8443 C.3       2 UNK         0.1400 
     63 CB          7.5608  -12.8725  -46.1362 C.3       2 UNK        -0.1800 
     64 N           5.1883  -12.8382  -46.7229 N.am      2 UNK        -0.5000 
     65 C           3.9072  -12.4598  -46.8226 C.2       1 UNK         0.5000 
     66 O           3.4078  -11.5852  -46.1132 O.2       1 UNK        -0.5000 
     67 C          -1.7631  -22.5692  -47.7173 C.2       11 UNK         0.5000 
     68 O          -1.9302  -23.4800  -48.5301 O.2       11 UNK        -0.5000 
     69 N          -2.6844  -22.2212  -46.8079 N.am      12 UNK        -0.5000 
     70 CA         -3.9663  -22.9025  -46.6139 C.3       12 UNK         0.1400 
     71 CB         -4.8129  -22.1431  -45.5826 C.3       12 UNK        -0.1800 
     72 C          -3.8079  -24.3809  -46.2163 C.2       12 UNK         0.5000 
     73 O          -4.5777  -25.2180  -46.6863 O.2       12 UNK        -0.5000 
     74 N          -2.8012  -24.6766  -45.3856 N.am      13 UNK        -0.5000 
     75 CA         -2.4531  -26.0309  -44.9692 C.3       13 UNK         0.1400 
     76 CB         -1.6110  -25.9668  -43.6846 C.3       13 UNK        -0.1800 
     77 C          -1.7203  -26.8189  -46.0713 C.2       13 UNK         0.5000 
     78 O          -2.1271  -27.9370  -46.3893 O.2       13 UNK        -0.5000 
     79 N          -0.6355  -26.2439  -46.6070 N.am      14 UNK        -0.5000 
     80 CA          0.3207  -26.9491  -47.4618 C.3       14 UNK         0.1400 
     81 CB          1.6992  -26.2832  -47.3271 C.3       14 UNK        -0.1800 
     82 C          -0.0838  -27.0172  -48.9431 C.2       14 UNK         0.5000 
     83 O           0.2034  -28.0239  -49.5924 O.2       14 UNK        -0.5000 
     84 N          -0.7006  -25.9488  -49.4623 N.am      15 UNK        -0.5000 
     85 CA         -0.9691  -25.7606  -50.8920 C.3       15 UNK         0.1400 
     86 CB         -0.1472  -24.5559  -51.3839 C.3       15 UNK        -0.1800 
     87 C          -2.4642  -25.5638  -51.1934 C.2       15 UNK         0.5000 
     88 O          -2.8095  -25.2415  -52.3321 O.2       15 UNK        -0.5000 
     89 N          -3.3241  -25.7166  -50.1749 N.am      16 UNK        -0.5000 
     90 CA         -4.7721  -25.4832  -50.2098 C.3       16 UNK         0.1400 
     91 CB         -5.4736  -26.5541  -51.0720 C.3       16 UNK        -0.1800 
     92 C          -5.1266  -24.0428  -50.6375 C.2       16 UNK         0.5000 
     93 O          -6.0714  -23.8447  -51.4001 O.2       16 UNK        -0.5000 
     94 N          -4.3277  -23.0684  -50.1748 N.am      17 UNK        -0.5000 
     95 CA         -4.3872  -21.6431  -50.5217 C.3       17 UNK         0.1400 
     96 CB         -5.7031  -21.0051  -50.0336 C.3       17 UNK        -0.1800 
     97 C          -4.1027  -21.4116  -52.0210 C.2       17 UNK         0.5000 
     98 O          -4.8236  -20.6707  -52.6938 O.2       17 UNK        -0.5000 
     99 N          -3.0669  -22.1043  -52.5183 N.am      18 UNK        -0.5000 
    100 CA        -2.6344  -22.1864  -53.9166 C.3       18 UNK         0.1400 
    101 CB        -2.0406  -20.8421  -54.3835 C.3       18 UNK        -0.1800 
    102 C         -3.7604  -22.7108  -54.8302 C.2       18 UNK         0.5000 
    103 O         -4.0624  -22.0997  -55.8556 O.2       18 UNK        -0.5000 
    104 N         -4.3820  -23.8189  -54.3991 N.am      19 UNK        -0.5000 
    105 CA        -5.5784  -24.4431  -54.9745 C.3       19 UNK         0.1400 
    106 CB        -5.2652  -25.0579  -56.3546 C.3       19 UNK        -0.1800 
    107 C         -6.7917  -23.4858  -54.9912 C.2       19 UNK         0.5000 
    108 O         -7.4644  -23.3499  -56.0151 O.2       19 UNK        -0.5000 
    109 N         -7.0352  -22.8448  -53.8386 N.am      20 UNK        -0.5000 
    110 CA        -8.1008  -21.8846  -53.5414 C.3       20 UNK         0.1400 
    111 CB        -9.4625  -22.6063  -53.4749 C.3       20 UNK        -0.1800 
    112 C         -8.1033  -20.6653  -54.4864 C.2       20 UNK         0.5000 
    113 O         -9.1489  -20.3165  -55.0399 O.2       20 UNK        -0.5000 
    114 N         -6.9290  -20.0473  -54.6634 N.am      21 UNK        -0.5000 
    115 CA        -6.7313  -18.9124  -55.5689 C.3       21 UNK         0.1400 
    116 CB        -6.2183  -19.4233  -56.9253 C.3       21 UNK        -0.1800 
    117 C         -5.7939  -17.8323  -55.0054 C.2       21 UNK         0.5000 
    118 O         -5.9193  -16.6759  -55.4110 O.2       21 UNK        -0.5000 
    119 N         -4.8784  -18.2033  -54.0994 N.am      22 UNK        -0.5000 
    120 CA        -3.8901  -17.3168  -53.4542 C.3       22 UNK         0.1400 
    121 C         -2.8656  -16.6445  -54.4214 C.2       22 UNK         0.5000 
    122 N         -2.6424  -17.1777  -55.6167 N.am      22 UNK        -0.7600 
    123 O         -2.2377  -15.6458  -54.0808 O.2       22 UNK        -0.5000 
    124 C124       -4.5441  -16.3147  -52.4586 C.3       23 UNK        -0.0398 
    125 S125       -5.4451  -17.1829  -51.1258 S.3       23 UNK        -0.2404 
    126 C126       -4.6264  -16.5812  -49.6051 C.3       23 UNK        -0.0205 
    127 H127        5.0465  -14.2911  -51.7605 H         1 UNK         0.0600 
    128 H128        6.1377  -13.0366  -51.1622 H         1 UNK         0.0600 
    129 H129        4.4781  -12.6263  -51.6060 H         1 UNK         0.0600 
    130 H130        3.1856  -12.3244  -49.8185 H         1 UNK         0.3000 
    131 H131        3.0699  -14.2359  -47.6448 H         1 UNK         0.0600 
    132 H132        1.4897  -11.6537  -48.0714 H         1 UNK         0.0800 
    133 H133        1.1549  -12.8526  -46.8495 H         1 UNK         0.0800 
    134 H134        0.6741  -15.4383  -47.4682 H         1 UNK         0.0800 
    135 H135       -0.7535  -14.4723  -47.1837 H         1 UNK         0.0800 
    136 H136       -2.8444  -14.9914  -48.3421 H         1 UNK         0.1150 
    137 H137       -3.0210  -18.5624  -50.7153 H         1 UNK         0.1150 
    138 H138        0.7580  -17.0547  -49.3799 H         1 UNK         0.1150 
    139 H139       -0.6001  -18.9759  -51.9517 H         1 UNK         0.0800 
    140 H140        0.7425  -18.9009  -50.8397 H         1 UNK         0.0800 
    141 H141       -1.3014  -19.8387  -48.0752 H         1 UNK         0.0800 
    142 H142        0.4210  -19.9123  -48.3423 H         1 UNK         0.0800 
    143 H143        0.3128  -22.4353  -48.2054 H         1 UNK         0.0600 
    144 H144        0.1606  -20.6211  -46.0417 H         1 UNK         0.3000 
    145 H145        0.7757  -23.0066  -43.4256 H         1 UNK         0.0600 
    146 H146        2.5578  -21.3413  -43.0145 H         1 UNK         0.0600 
    147 H147        2.9558  -22.3073  -44.4272 H         1 UNK         0.0600 
    148 H148        2.3499  -20.6679  -44.6291 H         1 UNK         0.0600 
    149 H149        0.2722  -20.2159  -43.3069 H         1 UNK         0.3000 
    150 H150       -3.3125  -20.4203  -43.0175 H         1 UNK         0.0600 
    151 H151       -2.3400  -20.8079  -40.7535 H         1 UNK         0.0600 
    152 H152       -2.7547  -19.1166  -40.9865 H         1 UNK         0.0600 
    153 H153       -1.0722  -19.6338  -41.0821 H         1 UNK         0.0600 
    154 H154       -1.6391  -18.1498  -43.0369 H         1 UNK         0.3000 
    155 H155       -1.6293  -17.6162  -46.6033 H         1 UNK         0.0600 
    156 H156       -2.8761  -16.1854  -44.1963 H         1 UNK         0.0600 
    157 H157       -2.3817  -15.3949  -45.6892 H         1 UNK         0.0600 
    158 H158       -3.6751  -16.5830  -45.7098 H         1 UNK         0.0600 
    159 H159       -0.3060  -16.1900  -44.5349 H         1 UNK         0.3000 
    160 H160        2.7160  -18.1105  -44.4950 H         1 UNK         0.0600 
    161 H161        2.1141  -15.2436  -45.3967 H         1 UNK         0.0600 
    162 H162        2.8812  -16.4732  -46.3910 H         1 UNK         0.0600 
    163 H163        3.6816  -15.9056  -44.9409 H         1 UNK         0.0600 
    164 H164        1.6623  -15.8193  -43.0434 H         1 UNK         0.3000 
    165 H165        0.2622  -17.6865  -40.3761 H         1 UNK         0.0600 
    166 H166        1.8109  -16.3830  -38.9626 H         1 UNK         0.0600 
    167 H167        2.6580  -17.7160  -39.7335 H         1 UNK         0.0600 
    168 H168        2.8611  -16.0806  -40.3425 H         1 UNK         0.0600 
    169 H169        0.7684  -14.8750  -40.9346 H         1 UNK         0.3000 
    170 H170       -2.3075  -14.3531  -42.6527 H         1 UNK         0.0600 
    171 H171       -1.6890  -13.6130  -39.7428 H         1 UNK         0.0600 
    172 H172       -2.8524  -12.8068  -40.7961 H         1 UNK         0.0600 
    173 H173       -3.1261  -14.4668  -40.2927 H         1 UNK         0.0600 
    174 H174       -0.4671  -12.4875  -41.5897 H         1 UNK         0.3000 
    175 H175        1.0266  -11.8280  -44.5495 H         1 UNK         0.0600 
    176 H176        1.6695  -10.1691  -42.8440 H         1 UNK         0.0600 
    177 H177        1.1690  -11.2364  -41.5406 H         1 UNK         0.0600 
    178 H178       -0.0248  -10.5750  -42.6602 H         1 UNK         0.0600 
    179 H179        3.1449  -12.3734  -44.2485 H         1 UNK         0.3000 
    180 H180        5.1798  -12.9725  -41.8924 H         1 UNK         0.0600 
    181 H181        4.3857  -15.8083  -42.7146 H         1 UNK         0.0600 
    182 H182        4.8386  -15.2249  -41.1179 H         1 UNK         0.0600 
    183 H183        6.0442  -15.3142  -42.3830 H         1 UNK         0.0600 
    184 H184        4.9122  -14.0843  -44.6504 H         1 UNK         0.3000 
    185 H185        6.2545  -11.1722  -46.0965 H         1 UNK         0.0600 
    186 H186        8.3422  -12.4272  -45.5189 H         1 UNK         0.0600 
    187 H187        7.5536  -13.9446  -45.9353 H         1 UNK         0.0600 
    188 H188        7.8493  -12.7284  -47.1776 H         1 UNK         0.0600 
    189 H189        5.5127  -13.5505  -47.3708 H         1 UNK         0.3000 
    190 H190       -2.5113  -21.4107  -46.2172 H         1 UNK         0.3000 
    191 H191       -4.5073  -22.8742  -47.5583 H         1 UNK         0.0600 
    192 H192       -4.9967  -21.1174  -45.9028 H         1 UNK         0.0600 
    193 H193       -5.7845  -22.6200  -45.4484 H         1 UNK         0.0600 
    194 H194       -4.3278  -22.1082  -44.6077 H         1 UNK         0.0600 
    195 H195       -2.2411  -23.9203  -45.0089 H         1 UNK         0.3000 
    196 H196       -3.3747  -26.5676  -44.7333 H         1 UNK         0.0600 
    197 H197       -1.3411  -26.9669  -43.3434 H         1 UNK         0.0600 
    198 H198       -2.1635  -25.4851  -42.8776 H         1 UNK         0.0600 
    199 H199       -0.6862  -25.4081  -43.8316 H         1 UNK         0.0600 
    200 H200       -0.3577  -25.3161  -46.2904 H         1 UNK         0.3000 
    201 H201        0.4169  -27.9756  -47.1009 H         1 UNK         0.0600 
    202 H202        2.0323  -26.2714  -46.2892 H         1 UNK         0.0600 
    203 H203        1.6852  -25.2531  -47.6857 H         1 UNK         0.0600 
    204 H204        2.4521  -26.8211  -47.9046 H         1 UNK         0.0600 
    205 H205       -0.9370  -25.1634  -48.8633 H         1 UNK         0.3000 
    206 H206       -0.6581  -26.6358  -51.4652 H         1 UNK         0.0600 
    207 H207        0.9169  -24.7060  -51.2015 H         1 UNK         0.0600 
    208 H208       -0.2706  -24.4012  -52.4563 H         1 UNK         0.0600 
    209 H209       -0.4441  -23.6358  -50.8809 H         1 UNK         0.0600 
    210 H210       -2.9386  -25.9603  -49.2735 H         1 UNK         0.3000 
    211 H211       -5.1359  -25.5969  -49.1895 H         1 UNK         0.0600 
    212 H212       -5.2002  -26.4739  -52.1242 H         1 UNK         0.0600 
    213 H213       -6.5581  -26.4587  -51.0083 H         1 UNK         0.0600 
    214 H214       -5.2177  -27.5587  -50.7355 H         1 UNK         0.0600 
    215 H215       -3.5403  -23.3428  -49.5932 H         1 UNK         0.3000 
    216 H216       -3.5802  -21.1578  -49.9743 H         1 UNK         0.0600 
    217 H217       -5.6925  -19.9277  -50.1912 H         1 UNK         0.0600 
    218 H218       -5.8492  -21.1723  -48.9667 H         1 UNK         0.0600 
    219 H219       -6.5724  -21.4009  -50.5569 H         1 UNK         0.0600 
    220 H220       -2.5723  -22.7140  -51.8839 H         1 UNK         0.3000 
    221 H221       -1.8371  -22.9299  -53.9529 H         1 UNK         0.0600 
    222 H222       -2.7894  -20.0524  -54.4039 H         1 UNK         0.0600 
    223 H223       -1.2315  -20.5219  -53.7281 H         1 UNK         0.0600 
    224 H224       -1.6285  -20.9263  -55.3895 H         1 UNK         0.0600 
    225 H225       -4.0182  -24.2590  -53.5583 H         1 UNK         0.3000 
    226 H226       -5.8465  -25.2613  -54.3047 H         1 UNK         0.0600 
    227 H227       -4.4202  -25.7440  -56.2971 H         1 UNK         0.0600 
    228 H228       -6.1177  -25.6243  -56.7310 H         1 UNK         0.0600 
    229 H229       -5.0278  -24.2944  -57.0960 H         1 UNK         0.0600 
    230 H230       -6.4520  -23.0817  -53.0388 H         1 UNK         0.3000 
    231 H231       -7.8892  -21.4939  -52.5458 H         1 UNK         0.0600 
    232 H232       -9.7546  -23.0099  -54.4450 H         1 UNK         0.0600 
    233 H233      -10.2509  -21.9260  -53.1511 H         1 UNK         0.0600 
    234 H234       -9.4348  -23.4314  -52.7630 H         1 UNK         0.0600 
    235 H235       -6.1237  -20.3833  -54.1446 H         1 UNK         0.3000 
    236 H236       -7.6867  -18.4114  -55.7386 H         1 UNK         0.0600 
    237 H237       -6.9113  -20.1408  -57.3651 H         1 UNK         0.0600 
    238 H238       -6.1034  -18.6034  -57.6353 H         1 UNK         0.0600 
    239 H239       -5.2489  -19.9120  -56.8278 H         1 UNK         0.0600 
    240 H240       -4.8653  -19.1606  -53.7609 H         1 UNK         0.3000 
    241 H241       -3.2651  -17.9895  -52.8701 H         1 UNK         0.0600 
    242 H242       -1.9738  -16.7451  -56.2343 H         1 UNK         0.3800 
    243 H243       -3.1468  -17.9959  -55.9164 H         1 UNK         0.3800 
    244 H244       -3.7917  -15.6654  -52.0091 H         1 UNK         0.0800 
    245 H245       -5.2374  -15.6525  -52.9781 H         1 UNK         0.0800 
    246 H246       -5.0562  -17.1064  -48.7515 H         1 UNK         0.0800 
    247 H247       -4.8876  -15.5289  -49.4819 H         1 UNK         0.0800 
@<TRIPOS>BOND
     1    1    2 1    
     2    1  127 1    
     3    1  128 1    
     4    1  129 1    
     5    2    3 2    
     6    2    4 am   BACKBONE|DICT|INTERRES
     7    4    5 1    
     8    4  130 1    
     9    5    6 1    
    10    5   65 1    
    11    5  131 1    
    12    6    7 1    
    13    6  132 1    
    14    6  133 1    
    15    7    8 1    
    16    8    9 1    
    17    8  134 1    
    18    8  135 1    
    19    9   10 ar   
    20    9   14 ar   
    21   10   11 ar   
    22   10  136 1    
    23   11   12 ar   
    24   11  126 1    
    25   12   13 ar   
    26   12  137 1    
    27   13   14 ar   
    28   13   15 1    
    29   14  138 1    
    30   15   16 1    
    31   15  139 1    
    32   15  140 1    
    33   16   17 1    
    34   17   18 1    
    35   17  141 1    
    36   17  142 1    
    37   18   19 1    
    38   18   67 1    
    39   18  143 1    
    40   19   20 am   BACKBONE|DICT|INTERRES
    41   19  144 1    
    42   20   21 2    
    43   20   22 1    
    44   22   23 1    
    45   22   24 1    
    46   22  145 1    
    47   23  146 1    
    48   23  147 1    
    49   23  148 1    
    50   24   25 am   BACKBONE|DICT|INTERRES
    51   24  149 1    
    52   25   26 2    
    53   25   27 1    
    54   27   28 1    
    55   27   29 1    
    56   27  150 1    
    57   28  151 1    
    58   28  152 1    
    59   28  153 1    
    60   29   30 am   BACKBONE|DICT|INTERRES
    61   29  154 1    
    62   30   31 2    
    63   30   32 1    
    64   32   33 1    
    65   32   34 1    
    66   32  155 1    
    67   33  156 1    
    68   33  157 1    
    69   33  158 1    
    70   34   35 am   BACKBONE|DICT|INTERRES
    71   34  159 1    
    72   35   36 2    
    73   35   37 1    
    74   37   38 1    
    75   37   39 1    
    76   37  160 1    
    77   38  161 1    
    78   38  162 1    
    79   38  163 1    
    80   39   40 am   BACKBONE|DICT|INTERRES
    81   39  164 1    
    82   40   41 2    
    83   40   42 1    
    84   42   43 1    
    85   42   44 1    
    86   42  165 1    
    87   43  166 1    
    88   43  167 1    
    89   43  168 1    
    90   44   45 am   BACKBONE|DICT|INTERRES
    91   44  169 1    
    92   45   46 2    
    93   45   47 1    
    94   47   48 1    
    95   47   49 1    
    96   47  170 1    
    97   48  171 1    
    98   48  172 1    
    99   48  173 1    
   100   49   50 am   BACKBONE|DICT|INTERRES
   101   49  174 1    
   102   50   51 2    
   103   50   52 1    
   104   52   53 1    
   105   52   54 1    
   106   52  175 1    
   107   53  176 1    
   108   53  177 1    
   109   53  178 1    
   110   54   55 am   BACKBONE|DICT|INTERRES
   111   54  179 1    
   112   55   56 2    
   113   55   57 1    
   114   57   58 1    
   115   57   59 1    
   116   57  180 1    
   117   58  181 1    
   118   58  182 1    
   119   58  183 1    
   120   59   60 am   BACKBONE|DICT|INTERRES
   121   59  184 1    
   122   60   61 2    
   123   60   62 1    
   124   62   63 1    
   125   62   64 1    
   126   62  185 1    
   127   63  186 1    
   128   63  187 1    
   129   63  188 1    
   130   64   65 am   BACKBONE|DICT|INTERRES
   131   64  189 1    
   132   65   66 2    
   133   67   68 2    
   134   67   69 am   BACKBONE|DICT|INTERRES
   135   69   70 1    
   136   69  190 1    
   137   70   71 1    
   138   70   72 1    
   139   70  191 1    
   140   71  192 1    
   141   71  193 1    
   142   71  194 1    
   143   72   73 2    
   144   72   74 am   BACKBONE|DICT|INTERRES
   145   74   75 1    
   146   74  195 1    
   147   75   76 1    
   148   75   77 1    
   149   75  196 1    
   150   76  197 1    
   151   76  198 1    
   152   76  199 1    
   153   77   78 2    
   154   77   79 am   BACKBONE|DICT|INTERRES
   155   79   80 1    
   156   79  200 1    
   157   80   81 1    
   158   80   82 1    
   159   80  201 1    
   160   81  202 1    
   161   81  203 1    
   162   81  204 1    
   163   82   83 2    
   164   82   84 am   BACKBONE|DICT|INTERRES
   165   84   85 1    
   166   84  205 1    
   167   85   86 1    
   168   85   87 1    
   169   85  206 1    
   170   86  207 1    
   171   86  208 1    
   172   86  209 1    
   173   87   88 2    
   174   87   89 am   BACKBONE|DICT|INTERRES
   175   89   90 1    
   176   89  210 1    
   177   90   91 1    
   178   90   92 1    
   179   90  211 1    
   180   91  212 1    
   181   91  213 1    
   182   91  214 1    
   183   92   93 2    
   184   92   94 am   BACKBONE|DICT|INTERRES
   185   94   95 1    
   186   94  215 1    
   187   95   96 1    
   188   95   97 1    
   189   95  216 1    
   190   96  217 1    
   191   96  218 1    
   192   96  219 1    
   193   97   98 2    
   194   97   99 am   BACKBONE|DICT|INTERRES
   195   99  100 1    
   196   99  220 1    
   197  100  101 1    
   198  100  102 1    
   199  100  221 1    
   200  101  222 1    
   201  101  223 1    
   202  101  224 1    
   203  102  103 2    
   204  102  104 am   BACKBONE|DICT|INTERRES
   205  104  105 1    
   206  104  225 1    
   207  105  106 1    
   208  105  107 1    
   209  105  226 1    
   210  106  227 1    
   211  106  228 1    
   212  106  229 1    
   213  107  108 2    
   214  107  109 am   BACKBONE|DICT|INTERRES
   215  109  110 1    
   216  109  230 1    
   217  110  111 1    
   218  110  112 1    
   219  110  231 1    
   220  111  232 1    
   221  111  233 1    
   222  111  234 1    
   223  112  113 2    
   224  112  114 am   BACKBONE|DICT|INTERRES
   225  114  115 1    
   226  114  235 1    
   227  115  116 1    
   228  115  117 1    
   229  115  236 1    
   230  116  237 1    
   231  116  238 1    
   232  116  239 1    
   233  117  118 2    
   234  117  119 am   BACKBONE|DICT|INTERRES
   235  119  120 1    
   236  119  240 1    
   237  120  121 1    
   238  120  124 1    
   239  120  241 1    
   240  121  122 am   BACKBONE|DICT|INTERRES
   241  121  123 2    
   242  122  242 1    
   243  122  243 1    
   244  124  125 1    
   245  124  244 1    
   246  124  245 1    
   247  125  126 1    
   248  126  246 1    
   249  126  247 1    
@<TRIPOS>SUBSTRUCTURE
     1 UNK         1 GROUP             0       ****    0 ROOT    
