@<TRIPOS>MOLECULE
3R540
247   249    1
SMALL
USER_CHARGES


@<TRIPOS>ATOM
      1 CA         -2.6126  -11.8623  -40.5753 C.3       0 UNK        -0.1800 
      2 C          -2.2480  -11.8566  -42.0525 C.2       0 UNK         0.5000 
      3 O          -1.3882  -11.0810  -42.4712 O.2       0 UNK        -0.5000 
      4 N          -2.8792  -12.7334  -42.8456 N.am      1 UNK        -0.5000 
      5 CA         -2.6817  -12.8546  -44.2979 C.3       1 UNK         0.1400 
      6 C6         -3.8239  -13.6461  -44.9778 C.3       23 UNK        -0.0398 
      7 S7         -3.9776  -15.3837  -44.4300 S.3       23 UNK        -0.2404 
      8 C8         -5.0298  -16.0715  -45.7541 C.3       23 UNK        -0.0205 
      9 C9         -4.2524  -16.7882  -46.8558 C.ar      23 UNK        -0.0193 
     10 C10        -3.1238  -16.2124  -47.4458 C.ar      23 UNK        -0.1150 
     11 C11        -2.4381  -16.8616  -48.4753 C.ar      23 UNK        -0.0193 
     12 C12        -2.8687  -18.1234  -48.8937 C.ar      23 UNK        -0.1150 
     13 C13        -4.0033  -18.7127  -48.3254 C.ar      23 UNK        -0.0193 
     14 C14        -4.6943  -18.0317  -47.3168 C.ar      23 UNK        -0.1150 
     15 C15        -4.4832  -20.0774  -48.8154 C.3       23 UNK        -0.0205 
     16 S16        -4.8512  -21.2453  -47.4617 S.3       23 UNK        -0.2404 
     17 C17        -3.2555  -21.2753  -46.5846 C.3       23 UNK        -0.0398 
     18 CA         -2.7650  -22.7117  -46.2966 C.3       11 UNK         0.1400 
     19 N          -1.3093  -22.8169  -46.3606 N.am      11 UNK        -0.5000 
     20 C          -0.6043  -23.9548  -46.3504 C.2       10 UNK         0.5000 
     21 O          -1.1115  -25.0769  -46.3621 O.2       10 UNK        -0.5000 
     22 CA          0.9262  -23.8050  -46.2846 C.3       10 UNK         0.1400 
     23 CB          1.5266  -23.7315  -47.6966 C.3       10 UNK        -0.1800 
     24 N           1.3272  -22.6266  -45.5107 N.am      10 UNK        -0.5000 
     25 C           1.1447  -22.4967  -44.1880 C.2       9 UNK         0.5000 
     26 O           0.6895  -23.3884  -43.4726 O.2       9 UNK        -0.5000 
     27 CA          1.4632  -21.1208  -43.5764 C.3       9 UNK         0.1400 
     28 CB          2.9686  -20.9759  -43.3113 C.3       9 UNK        -0.1800 
     29 N           1.0016  -20.0210  -44.4259 N.am      9 UNK        -0.5000 
     30 C          -0.2916  -19.7265  -44.6375 C.2       8 UNK         0.5000 
     31 O          -1.2189  -20.3302  -44.0985 O.2       8 UNK        -0.5000 
     32 CA         -0.6083  -18.6067  -45.6526 C.3       8 UNK         0.1400 
     33 CB         -0.6678  -17.2558  -44.9323 C.3       8 UNK        -0.1800 
     34 N           0.3651  -18.5234  -46.7435 N.am      8 UNK        -0.5000 
     35 C           0.6616  -19.5256  -47.5840 C.2       7 UNK         0.5000 
     36 O           0.0460  -20.5900  -47.6044 O.2       7 UNK        -0.5000 
     37 CA          1.8886  -19.3581  -48.5037 C.3       7 UNK         0.1400 
     38 CB          1.4518  -19.1346  -49.9576 C.3       7 UNK        -0.1800 
     39 N           2.8105  -18.2888  -48.1109 N.am      7 UNK        -0.5000 
     40 C           3.4463  -18.1781  -46.9346 C.2       6 UNK         0.5000 
     41 O           3.3579  -19.0133  -46.0340 O.2       6 UNK        -0.5000 
     42 CA          4.2804  -16.9010  -46.7041 C.3       6 UNK         0.1400 
     43 CB          5.7807  -17.2197  -46.7869 C.3       6 UNK        -0.1800 
     44 N           3.9749  -15.8023  -47.6290 N.am      6 UNK        -0.5000 
     45 C           2.8053  -15.1526  -47.6994 C.2       5 UNK         0.5000 
     46 O           1.8174  -15.4410  -47.0208 O.2       5 UNK        -0.5000 
     47 CA          2.7109  -14.0436  -48.7528 C.3       5 UNK         0.1400 
     48 CB          2.2705  -14.6281  -50.1089 C.3       5 UNK        -0.1800 
     49 N           1.7741  -13.0235  -48.2925 N.am      5 UNK        -0.5000 
     50 C           1.6892  -11.7803  -48.7823 C.2       4 UNK         0.5000 
     51 O           2.3526  -11.3732  -49.7372 O.2       4 UNK        -0.5000 
     52 CA          0.7411  -10.8094  -48.0586 C.3       4 UNK         0.1400 
     53 CB         -0.7239  -11.0581  -48.4479 C.3       4 UNK        -0.1800 
     54 N           0.8976  -10.8919  -46.6058 N.am      4 UNK        -0.5000 
     55 C           1.8885  -10.2915  -45.9267 C.2       3 UNK         0.5000 
     56 O           2.7344   -9.5705  -46.4575 O.2       3 UNK        -0.5000 
     57 CA          1.9573  -10.5169  -44.4018 C.3       3 UNK         0.1400 
     58 CB          1.3011   -9.3447  -43.6571 C.3       3 UNK        -0.1800 
     59 N           1.3276  -11.7645  -43.9735 N.am      3 UNK        -0.5000 
     60 C           1.8162  -12.9877  -44.2274 C.2       2 UNK         0.5000 
     61 O           2.9145  -13.1839  -44.7480 O.2       2 UNK        -0.5000 
     62 CA          0.9240  -14.1937  -43.8662 C.3       2 UNK         0.1400 
     63 CB          1.4053  -14.8537  -42.5653 C.3       2 UNK        -0.1800 
     64 N          -0.4984  -13.8661  -43.7355 N.am      2 UNK        -0.5000 
     65 C          -1.2753  -13.3568  -44.7037 C.2       1 UNK         0.5000 
     66 O          -0.8899  -13.2019  -45.8619 O.2       1 UNK        -0.5000 
     67 C          -3.3120  -23.2613  -44.9667 C.2       11 UNK         0.5000 
     68 O          -4.2150  -24.0980  -44.9769 O.2       11 UNK        -0.5000 
     69 N          -2.7085  -22.8309  -43.8511 N.am      12 UNK        -0.5000 
     70 CA         -3.0072  -23.3255  -42.5079 C.3       12 UNK         0.1400 
     71 CB         -2.2573  -22.4697  -41.4758 C.3       12 UNK        -0.1800 
     72 C          -2.6716  -24.8192  -42.3291 C.2       12 UNK         0.5000 
     73 O          -3.4177  -25.5293  -41.6537 O.2       12 UNK        -0.5000 
     74 N          -1.5643  -25.2659  -42.9374 N.am      13 UNK        -0.5000 
     75 CA         -1.0891  -26.6452  -42.8767 C.3       13 UNK         0.1400 
     76 CB          0.3810  -26.7064  -43.3196 C.3       13 UNK        -0.1800 
     77 C          -1.9435  -27.6271  -43.6985 C.2       13 UNK         0.5000 
     78 O          -2.3408  -28.6632  -43.1626 O.2       13 UNK        -0.5000 
     79 N          -2.1770  -27.3198  -44.9830 N.am      14 UNK        -0.5000 
     80 CA         -2.7260  -28.2743  -45.9512 C.3       14 UNK         0.1400 
     81 CB         -1.6011  -29.2131  -46.4378 C.3       14 UNK        -0.1800 
     82 C          -3.4721  -27.6033  -47.1209 C.2       14 UNK         0.5000 
     83 O          -3.5350  -28.1843  -48.2051 O.2       14 UNK        -0.5000 
     84 N          -4.0346  -26.4060  -46.8977 N.am      15 UNK        -0.5000 
     85 CA         -4.8520  -25.6286  -47.8448 C.3       15 UNK         0.1400 
     86 CB         -6.1397  -26.3913  -48.2234 C.3       15 UNK        -0.1800 
     87 C          -4.0945  -25.0989  -49.0848 C.2       15 UNK         0.5000 
     88 O          -4.7398  -24.6475  -50.0320 O.2       15 UNK        -0.5000 
     89 N          -2.7523  -25.1133  -49.0364 N.am      16 UNK        -0.5000 
     90 CA         -1.8157  -24.6051  -50.0432 C.3       16 UNK         0.1400 
     91 CB         -1.8045  -23.0574  -50.0236 C.3       16 UNK        -0.1800 
     92 C          -2.0661  -25.2154  -51.4416 C.2       16 UNK         0.5000 
     93 O          -1.9683  -26.4337  -51.5985 O.2       16 UNK        -0.5000 
     94 N          -2.3828  -24.3644  -52.4203 N.am      17 UNK        -0.5000 
     95 CA         -2.7501  -24.6861  -53.7917 C.3       17 UNK         0.1400 
     96 CB         -1.4855  -24.9510  -54.6282 C.3       17 UNK        -0.1800 
     97 C          -3.5302  -23.4834  -54.3396 C.2       17 UNK         0.5000 
     98 O          -3.4123  -22.3850  -53.7896 O.2       17 UNK        -0.5000 
     99 N          -4.2798  -23.6836  -55.4306 N.am      18 UNK        -0.5000 
    100 CA        -5.1103  -22.6524  -56.0667 C.3       18 UNK         0.1400 
    101 CB        -5.9106  -23.2842  -57.2157 C.3       18 UNK        -0.1800 
    102 C         -4.3177  -21.4280  -56.5690 C.2       18 UNK         0.5000 
    103 O         -4.8220  -20.3074  -56.5018 O.2       18 UNK        -0.5000 
    104 N         -3.0812  -21.6607  -57.0292 N.am      19 UNK        -0.5000 
    105 CA        -2.1476  -20.6184  -57.4616 C.3       19 UNK         0.1400 
    106 CB        -1.1113  -21.2477  -58.4057 C.3       19 UNK        -0.1800 
    107 C         -1.4400  -19.9132  -56.2863 C.2       19 UNK         0.5000 
    108 O         -0.9482  -18.7980  -56.4614 O.2       19 UNK        -0.5000 
    109 N         -1.3836  -20.5744  -55.1227 N.am      20 UNK        -0.5000 
    110 CA        -0.7150  -20.0938  -53.9120 C.3       20 UNK         0.1400 
    111 CB        -0.0676  -21.2957  -53.2080 C.3       20 UNK        -0.1800 
    112 C         -1.6689  -19.3459  -52.9606 C.2       20 UNK         0.5000 
    113 O         -1.1966  -18.6889  -52.0327 O.2       20 UNK        -0.5000 
    114 N         -2.9838  -19.4530  -53.1967 N.am      21 UNK        -0.5000 
    115 CA        -4.0525  -18.7625  -52.4782 C.3       21 UNK         0.1400 
    116 CB        -5.3944  -19.4216  -52.8396 C.3       21 UNK        -0.1800 
    117 C         -4.0344  -17.2502  -52.7777 C.2       21 UNK         0.5000 
    118 O         -4.7287  -16.7890  -53.6860 O.2       21 UNK        -0.5000 
    119 N         -3.1812  -16.5251  -52.0478 N.am      22 UNK        -0.5000 
    120 CA        -2.9213  -15.0907  -52.2066 C.3       22 UNK         0.1400 
    121 C         -4.1149  -14.1677  -51.8154 C.2       22 UNK         0.5000 
    122 N         -4.0893  -12.9093  -52.2357 N.am      22 UNK        -0.7600 
    123 O         -5.0549  -14.5664  -51.1307 O.2       22 UNK        -0.5000 
    124 C124       -1.5749  -14.6993  -51.5367 C.3       23 UNK        -0.0398 
    125 S125       -1.5968  -14.5211  -49.7173 S.3       23 UNK        -0.2404 
    126 C126       -1.2222  -16.2003  -49.1099 C.3       23 UNK        -0.0205 
    127 H127       -1.7315  -12.0823  -39.9726 H         1 UNK         0.0600 
    128 H128       -3.3753  -12.6077  -40.3489 H         1 UNK         0.0600 
    129 H129       -2.9936  -10.8847  -40.2802 H         1 UNK         0.0600 
    130 H130       -3.5598  -13.3660  -42.4477 H         1 UNK         0.3000 
    131 H131       -2.7410  -11.8388  -44.6953 H         1 UNK         0.0600 
    132 H132       -4.7737  -13.1513  -44.7705 H         1 UNK         0.0800 
    133 H133       -3.7140  -13.6014  -46.0614 H         1 UNK         0.0800 
    134 H134       -5.6368  -15.2830  -46.2005 H         1 UNK         0.0800 
    135 H135       -5.7317  -16.7632  -45.2858 H         1 UNK         0.0800 
    136 H136       -2.7661  -15.2506  -47.1139 H         1 UNK         0.1150 
    137 H137       -2.3199  -18.6468  -49.6633 H         1 UNK         0.1150 
    138 H138       -5.5772  -18.4796  -46.8830 H         1 UNK         0.1150 
    139 H139       -3.7411  -20.5330  -49.4725 H         1 UNK         0.0800 
    140 H140       -5.3837  -19.9387  -49.4149 H         1 UNK         0.0800 
    141 H141       -3.3381  -20.6734  -45.6782 H         1 UNK         0.0800 
    142 H142       -2.5261  -20.7631  -47.2111 H         1 UNK         0.0800 
    143 H143       -3.1408  -23.3559  -47.0861 H         1 UNK         0.0600 
    144 H144       -0.7964  -21.9465  -46.4544 H         1 UNK         0.3000 
    145 H145        1.3305  -24.6899  -45.7904 H         1 UNK         0.0600 
    146 H146        2.6120  -23.6381  -47.6597 H         1 UNK         0.0600 
    147 H147        1.2985  -24.6363  -48.2610 H         1 UNK         0.0600 
    148 H148        1.1361  -22.8872  -48.2647 H         1 UNK         0.0600 
    149 H149        1.6707  -21.8337  -46.0321 H         1 UNK         0.3000 
    150 H150        0.9426  -21.0522  -42.6188 H         1 UNK         0.0600 
    151 H151        3.5510  -21.0537  -44.2301 H         1 UNK         0.0600 
    152 H152        3.3208  -21.7544  -42.6335 H         1 UNK         0.0600 
    153 H153        3.1974  -20.0147  -42.8507 H         1 UNK         0.0600 
    154 H154        1.7173  -19.5080  -44.9310 H         1 UNK         0.3000 
    155 H155       -1.5870  -18.8057  -46.0918 H         1 UNK         0.0600 
    156 H156       -0.8592  -16.4378  -45.6270 H         1 UNK         0.0600 
    157 H157        0.2682  -17.0492  -44.4147 H         1 UNK         0.0600 
    158 H158       -1.4643  -17.2450  -44.1875 H         1 UNK         0.0600 
    159 H159        0.9136  -17.6749  -46.7945 H         1 UNK         0.3000 
    160 H160        2.4403  -20.2990  -48.4573 H         1 UNK         0.0600 
    161 H161        1.0288  -18.1419  -50.1047 H         1 UNK         0.0600 
    162 H162        0.6939  -19.8603  -50.2545 H         1 UNK         0.0600 
    163 H163        2.2919  -19.2437  -50.6434 H         1 UNK         0.0600 
    164 H164        2.9457  -17.5480  -48.7818 H         1 UNK         0.3000 
    165 H165        4.0593  -16.5533  -45.6927 H         1 UNK         0.0600 
    166 H166        6.3843  -16.3474  -46.5353 H         1 UNK         0.0600 
    167 H167        6.0670  -17.5514  -47.7858 H         1 UNK         0.0600 
    168 H168        6.0520  -18.0120  -46.0877 H         1 UNK         0.0600 
    169 H169        4.7281  -15.5153  -48.2377 H         1 UNK         0.3000 
    170 H170        3.6958  -13.5839  -48.8593 H         1 UNK         0.0600 
    171 H171        2.9893  -15.3649  -50.4690 H         1 UNK         0.0600 
    172 H172        1.3045  -15.1254  -50.0364 H         1 UNK         0.0600 
    173 H173        2.1913  -13.8574  -50.8752 H         1 UNK         0.0600 
    174 H174        1.2001  -13.2992  -47.5039 H         1 UNK         0.3000 
    175 H175        0.9935   -9.7967  -48.3808 H         1 UNK         0.0600 
    176 H176       -1.0572  -12.0546  -48.1625 H         1 UNK         0.0600 
    177 H177       -1.3868  -10.3353  -47.9726 H         1 UNK         0.0600 
    178 H178       -0.8606  -10.9676  -49.5261 H         1 UNK         0.0600 
    179 H179        0.2657  -11.5177  -46.1196 H         1 UNK         0.3000 
    180 H180        3.0117  -10.5522  -44.1198 H         1 UNK         0.0600 
    181 H181        0.2421   -9.2554  -43.9029 H         1 UNK         0.0600 
    182 H182        1.7795   -8.3994  -43.9163 H         1 UNK         0.0600 
    183 H183        1.3846   -9.4661  -42.5769 H         1 UNK         0.0600 
    184 H184        0.4250  -11.6808  -43.5196 H         1 UNK         0.3000 
    185 H185        1.0243  -14.9136  -44.6760 H         1 UNK         0.0600 
    186 H186        0.8267  -15.7488  -42.3367 H         1 UNK         0.0600 
    187 H187        2.4505  -15.1556  -42.6448 H         1 UNK         0.0600 
    188 H188        1.3226  -14.1739  -41.7164 H         1 UNK         0.0600 
    189 H189       -0.8966  -13.9469  -42.8118 H         1 UNK         0.3000 
    190 H190       -2.0004  -22.1057  -43.9240 H         1 UNK         0.3000 
    191 H191       -4.0788  -23.2033  -42.3379 H         1 UNK         0.0600 
    192 H192       -2.4844  -22.7944  -40.4597 H         1 UNK         0.0600 
    193 H193       -2.5409  -21.4199  -41.5540 H         1 UNK         0.0600 
    194 H194       -1.1768  -22.5336  -41.6081 H         1 UNK         0.0600 
    195 H195       -0.9667  -24.5974  -43.4110 H         1 UNK         0.3000 
    196 H196       -1.1298  -26.9665  -41.8336 H         1 UNK         0.0600 
    197 H197        0.5049  -26.3825  -44.3525 H         1 UNK         0.0600 
    198 H198        1.0093  -26.0745  -42.6918 H         1 UNK         0.0600 
    199 H199        0.7681  -27.7235  -43.2473 H         1 UNK         0.0600 
    200 H200       -1.8080  -26.4522  -45.3692 H         1 UNK         0.3000 
    201 H201       -3.4810  -28.8851  -45.4520 H         1 UNK         0.0600 
    202 H202       -0.8238  -28.6590  -46.9652 H         1 UNK         0.0600 
    203 H203       -1.9835  -29.9755  -47.1174 H         1 UNK         0.0600 
    204 H204       -1.1311  -29.7388  -45.6067 H         1 UNK         0.0600 
    205 H205       -3.9286  -25.9823  -45.9825 H         1 UNK         0.3000 
    206 H206       -5.1708  -24.7377  -47.3042 H         1 UNK         0.0600 
    207 H207       -6.6660  -26.7420  -47.3357 H         1 UNK         0.0600 
    208 H208       -6.8285  -25.7477  -48.7718 H         1 UNK         0.0600 
    209 H209       -5.9317  -27.2547  -48.8554 H         1 UNK         0.0600 
    210 H210       -2.3246  -25.5126  -48.2104 H         1 UNK         0.3000 
    211 H211       -0.8252  -24.9442  -49.7374 H         1 UNK         0.0600 
    212 H212       -1.0398  -22.6604  -50.6902 H         1 UNK         0.0600 
    213 H213       -1.5716  -22.6743  -49.0328 H         1 UNK         0.0600 
    214 H214       -2.7652  -22.6340  -50.3186 H         1 UNK         0.0600 
    215 H215       -2.5148  -23.3850  -52.1983 H         1 UNK         0.3000 
    216 H216       -3.4003  -25.5632  -53.7989 H         1 UNK         0.0600 
    217 H217       -0.8225  -24.0850  -54.6410 H         1 UNK         0.0600 
    218 H218       -1.7398  -25.1869  -55.6621 H         1 UNK         0.0600 
    219 H219       -0.9210  -25.7965  -54.2349 H         1 UNK         0.0600 
    220 H220       -4.3193  -24.6071  -55.8377 H         1 UNK         0.3000 
    221 H221       -5.8184  -22.2930  -55.3168 H         1 UNK         0.0600 
    222 H222       -6.5527  -24.0878  -56.8546 H         1 UNK         0.0600 
    223 H223       -5.2553  -23.6962  -57.9842 H         1 UNK         0.0600 
    224 H224       -6.5553  -22.5462  -57.6951 H         1 UNK         0.0600 
    225 H225       -2.7498  -22.6137  -57.0609 H         1 UNK         0.3000 
    226 H226       -2.6985  -19.8583  -58.0199 H         1 UNK         0.0600 
    227 H227       -0.5278  -22.0216  -57.9054 H         1 UNK         0.0600 
    228 H228       -1.5915  -21.6974  -59.2750 H         1 UNK         0.0600 
    229 H229       -0.4118  -20.4966  -58.7753 H         1 UNK         0.0600 
    230 H230       -1.8744  -21.4542  -55.0392 H         1 UNK         0.3000 
    231 H231        0.0809  -19.3966  -54.1818 H         1 UNK         0.0600 
    232 H232       -0.8093  -22.0423  -52.9306 H         1 UNK         0.0600 
    233 H233        0.4519  -20.9905  -52.3001 H         1 UNK         0.0600 
    234 H234        0.6664  -21.7795  -53.8525 H         1 UNK         0.0600 
    235 H235       -3.2762  -20.0550  -53.9536 H         1 UNK         0.3000 
    236 H236       -3.8965  -18.9009  -51.4095 H         1 UNK         0.0600 
    237 H237       -5.4034  -20.4743  -52.5552 H         1 UNK         0.0600 
    238 H238       -6.2201  -18.9354  -52.3189 H         1 UNK         0.0600 
    239 H239       -5.5984  -19.3643  -53.9096 H         1 UNK         0.0600 
    240 H240       -2.6183  -17.0008  -51.3572 H         1 UNK         0.3000 
    241 H241       -2.7834  -14.9432  -53.2797 H         1 UNK         0.0600 
    242 H242       -4.8506  -12.2976  -51.9856 H         1 UNK         0.3800 
    243 H243       -3.3336  -12.5505  -52.7981 H         1 UNK         0.3800 
    244 H244       -1.2458  -13.7397  -51.9376 H         1 UNK         0.0800 
    245 H245       -0.7916  -15.4034  -51.8216 H         1 UNK         0.0800 
    246 H246       -0.8254  -16.8107  -49.9202 H         1 UNK         0.0800 
    247 H247       -0.4361  -16.1303  -48.3579 H         1 UNK         0.0800 
@<TRIPOS>BOND
     1    1    2 1    
     2    1  127 1    
     3    1  128 1    
     4    1  129 1    
     5    2    3 2    
     6    2    4 am   BACKBONE|DICT|INTERRES
     7    4    5 1    
     8    4  130 1    
     9    5    6 1    
    10    5   65 1    
    11    5  131 1    
    12    6    7 1    
    13    6  132 1    
    14    6  133 1    
    15    7    8 1    
    16    8    9 1    
    17    8  134 1    
    18    8  135 1    
    19    9   10 ar   
    20    9   14 ar   
    21   10   11 ar   
    22   10  136 1    
    23   11   12 ar   
    24   11  126 1    
    25   12   13 ar   
    26   12  137 1    
    27   13   14 ar   
    28   13   15 1    
    29   14  138 1    
    30   15   16 1    
    31   15  139 1    
    32   15  140 1    
    33   16   17 1    
    34   17   18 1    
    35   17  141 1    
    36   17  142 1    
    37   18   19 1    
    38   18   67 1    
    39   18  143 1    
    40   19   20 am   BACKBONE|DICT|INTERRES
    41   19  144 1    
    42   20   21 2    
    43   20   22 1    
    44   22   23 1    
    45   22   24 1    
    46   22  145 1    
    47   23  146 1    
    48   23  147 1    
    49   23  148 1    
    50   24   25 am   BACKBONE|DICT|INTERRES
    51   24  149 1    
    52   25   26 2    
    53   25   27 1    
    54   27   28 1    
    55   27   29 1    
    56   27  150 1    
    57   28  151 1    
    58   28  152 1    
    59   28  153 1    
    60   29   30 am   BACKBONE|DICT|INTERRES
    61   29  154 1    
    62   30   31 2    
    63   30   32 1    
    64   32   33 1    
    65   32   34 1    
    66   32  155 1    
    67   33  156 1    
    68   33  157 1    
    69   33  158 1    
    70   34   35 am   BACKBONE|DICT|INTERRES
    71   34  159 1    
    72   35   36 2    
    73   35   37 1    
    74   37   38 1    
    75   37   39 1    
    76   37  160 1    
    77   38  161 1    
    78   38  162 1    
    79   38  163 1    
    80   39   40 am   BACKBONE|DICT|INTERRES
    81   39  164 1    
    82   40   41 2    
    83   40   42 1    
    84   42   43 1    
    85   42   44 1    
    86   42  165 1    
    87   43  166 1    
    88   43  167 1    
    89   43  168 1    
    90   44   45 am   BACKBONE|DICT|INTERRES
    91   44  169 1    
    92   45   46 2    
    93   45   47 1    
    94   47   48 1    
    95   47   49 1    
    96   47  170 1    
    97   48  171 1    
    98   48  172 1    
    99   48  173 1    
   100   49   50 am   BACKBONE|DICT|INTERRES
   101   49  174 1    
   102   50   51 2    
   103   50   52 1    
   104   52   53 1    
   105   52   54 1    
   106   52  175 1    
   107   53  176 1    
   108   53  177 1    
   109   53  178 1    
   110   54   55 am   BACKBONE|DICT|INTERRES
   111   54  179 1    
   112   55   56 2    
   113   55   57 1    
   114   57   58 1    
   115   57   59 1    
   116   57  180 1    
   117   58  181 1    
   118   58  182 1    
   119   58  183 1    
   120   59   60 am   BACKBONE|DICT|INTERRES
   121   59  184 1    
   122   60   61 2    
   123   60   62 1    
   124   62   63 1    
   125   62   64 1    
   126   62  185 1    
   127   63  186 1    
   128   63  187 1    
   129   63  188 1    
   130   64   65 am   BACKBONE|DICT|INTERRES
   131   64  189 1    
   132   65   66 2    
   133   67   68 2    
   134   67   69 am   BACKBONE|DICT|INTERRES
   135   69   70 1    
   136   69  190 1    
   137   70   71 1    
   138   70   72 1    
   139   70  191 1    
   140   71  192 1    
   141   71  193 1    
   142   71  194 1    
   143   72   73 2    
   144   72   74 am   BACKBONE|DICT|INTERRES
   145   74   75 1    
   146   74  195 1    
   147   75   76 1    
   148   75   77 1    
   149   75  196 1    
   150   76  197 1    
   151   76  198 1    
   152   76  199 1    
   153   77   78 2    
   154   77   79 am   BACKBONE|DICT|INTERRES
   155   79   80 1    
   156   79  200 1    
   157   80   81 1    
   158   80   82 1    
   159   80  201 1    
   160   81  202 1    
   161   81  203 1    
   162   81  204 1    
   163   82   83 2    
   164   82   84 am   BACKBONE|DICT|INTERRES
   165   84   85 1    
   166   84  205 1    
   167   85   86 1    
   168   85   87 1    
   169   85  206 1    
   170   86  207 1    
   171   86  208 1    
   172   86  209 1    
   173   87   88 2    
   174   87   89 am   BACKBONE|DICT|INTERRES
   175   89   90 1    
   176   89  210 1    
   177   90   91 1    
   178   90   92 1    
   179   90  211 1    
   180   91  212 1    
   181   91  213 1    
   182   91  214 1    
   183   92   93 2    
   184   92   94 am   BACKBONE|DICT|INTERRES
   185   94   95 1    
   186   94  215 1    
   187   95   96 1    
   188   95   97 1    
   189   95  216 1    
   190   96  217 1    
   191   96  218 1    
   192   96  219 1    
   193   97   98 2    
   194   97   99 am   BACKBONE|DICT|INTERRES
   195   99  100 1    
   196   99  220 1    
   197  100  101 1    
   198  100  102 1    
   199  100  221 1    
   200  101  222 1    
   201  101  223 1    
   202  101  224 1    
   203  102  103 2    
   204  102  104 am   BACKBONE|DICT|INTERRES
   205  104  105 1    
   206  104  225 1    
   207  105  106 1    
   208  105  107 1    
   209  105  226 1    
   210  106  227 1    
   211  106  228 1    
   212  106  229 1    
   213  107  108 2    
   214  107  109 am   BACKBONE|DICT|INTERRES
   215  109  110 1    
   216  109  230 1    
   217  110  111 1    
   218  110  112 1    
   219  110  231 1    
   220  111  232 1    
   221  111  233 1    
   222  111  234 1    
   223  112  113 2    
   224  112  114 am   BACKBONE|DICT|INTERRES
   225  114  115 1    
   226  114  235 1    
   227  115  116 1    
   228  115  117 1    
   229  115  236 1    
   230  116  237 1    
   231  116  238 1    
   232  116  239 1    
   233  117  118 2    
   234  117  119 am   BACKBONE|DICT|INTERRES
   235  119  120 1    
   236  119  240 1    
   237  120  121 1    
   238  120  124 1    
   239  120  241 1    
   240  121  122 am   BACKBONE|DICT|INTERRES
   241  121  123 2    
   242  122  242 1    
   243  122  243 1    
   244  124  125 1    
   245  124  244 1    
   246  124  245 1    
   247  125  126 1    
   248  126  246 1    
   249  126  247 1    
@<TRIPOS>SUBSTRUCTURE
     1 UNK         1 GROUP             0       ****    0 ROOT    
