@<TRIPOS>MOLECULE
3R540
247   249    1
SMALL
USER_CHARGES


@<TRIPOS>ATOM
      1 CA         -5.1740  -12.9646  -51.1711 C.3       0 UNK        -0.1800 
      2 C          -3.7116  -13.3480  -50.9954 C.2       0 UNK         0.5000 
      3 O          -2.8397  -12.7418  -51.6176 O.2       0 UNK        -0.5000 
      4 N          -3.4440  -14.3549  -50.1533 N.am      1 UNK        -0.5000 
      5 CA         -2.1026  -14.8930  -49.8827 C.3       1 UNK         0.1400 
      6 C6         -2.1739  -16.2933  -49.2094 C.3       23 UNK        -0.0398 
      7 S7         -1.4359  -17.6176  -50.2224 S.3       23 UNK        -0.2404 
      8 C8          0.3275  -17.4411  -49.7846 C.3       23 UNK        -0.0205 
      9 C9          1.2039  -18.6203  -50.2043 C.ar      23 UNK        -0.0193 
     10 C10         1.0045  -19.2986  -51.4145 C.ar      23 UNK        -0.1150 
     11 C11         1.8312  -20.3672  -51.7786 C.ar      23 UNK        -0.0193 
     12 C12         2.8829  -20.7381  -50.9400 C.ar      23 UNK        -0.1150 
     13 C13         3.1005  -20.0673  -49.7355 C.ar      23 UNK        -0.0193 
     14 C14         2.2573  -19.0136  -49.3714 C.ar      23 UNK        -0.1150 
     15 C15         4.2566  -20.4853  -48.8422 C.3       23 UNK        -0.0205 
     16 S16         3.8973  -22.0328  -47.9555 S.3       23 UNK        -0.2404 
     17 C17         2.8398  -21.4393  -46.5965 C.3       23 UNK        -0.0398 
     18 CA          1.5664  -22.3003  -46.4005 C.3       11 UNK         0.1400 
     19 N           1.1811  -22.3601  -44.9881 N.am      11 UNK        -0.5000 
     20 C           0.2707  -23.1972  -44.4735 C.2       10 UNK         0.5000 
     21 O          -0.3024  -24.0697  -45.1264 O.2       10 UNK        -0.5000 
     22 CA         -0.0882  -22.9948  -42.9883 C.3       10 UNK         0.1400 
     23 CB          0.9177  -23.7156  -42.0788 C.3       10 UNK        -0.1800 
     24 N          -0.1608  -21.5799  -42.6150 N.am      10 UNK        -0.5000 
     25 C          -1.0641  -20.7180  -43.1036 C.2       9 UNK         0.5000 
     26 O          -1.9703  -21.0453  -43.8678 O.2       9 UNK        -0.5000 
     27 CA         -0.8992  -19.2356  -42.7243 C.3       9 UNK         0.1400 
     28 CB         -1.5128  -18.9443  -41.3477 C.3       9 UNK        -0.1800 
     29 N           0.4963  -18.7985  -42.7443 N.am      9 UNK        -0.5000 
     30 C           1.2756  -18.7677  -43.8341 C.2       8 UNK         0.5000 
     31 O           0.8917  -19.0753  -44.9596 O.2       8 UNK        -0.5000 
     32 CA          2.7455  -18.3727  -43.6261 C.3       8 UNK         0.1400 
     33 CB          2.9023  -16.8453  -43.5715 C.3       8 UNK        -0.1800 
     34 N           3.3051  -18.9798  -42.4191 N.am      8 UNK        -0.5000 
     35 C           3.5170  -20.2952  -42.2663 C.2       7 UNK         0.5000 
     36 O           3.2992  -21.1297  -43.1445 O.2       7 UNK        -0.5000 
     37 CA          4.0092  -20.7561  -40.8829 C.3       7 UNK         0.1400 
     38 CB          5.5276  -20.5644  -40.7542 C.3       7 UNK        -0.1800 
     39 N           3.3345  -20.0518  -39.7915 N.am      7 UNK        -0.5000 
     40 C           2.0325  -20.1827  -39.5002 C.2       6 UNK         0.5000 
     41 O           1.2720  -20.9452  -40.0967 O.2       6 UNK        -0.5000 
     42 CA          1.4796  -19.2695  -38.3892 C.3       6 UNK         0.1400 
     43 CB          1.7037  -19.9024  -37.0079 C.3       6 UNK        -0.1800 
     44 N           2.0506  -17.9178  -38.4057 N.am      6 UNK        -0.5000 
     45 C           1.9284  -17.0573  -39.4248 C.2       5 UNK         0.5000 
     46 O           1.3587  -17.3315  -40.4829 O.2       5 UNK        -0.5000 
     47 CA          2.6030  -15.6836  -39.2609 C.3       5 UNK         0.1400 
     48 CB          4.0783  -15.7671  -39.6834 C.3       5 UNK        -0.1800 
     49 N           1.9396  -14.6600  -40.0709 N.am      5 UNK        -0.5000 
     50 C           0.7167  -14.1693  -39.8213 C.2       4 UNK         0.5000 
     51 O           0.0519  -14.4561  -38.8249 O.2       4 UNK        -0.5000 
     52 CA          0.1295  -13.2243  -40.8781 C.3       4 UNK         0.1400 
     53 CB          0.8026  -11.8403  -40.8365 C.3       4 UNK        -0.1800 
     54 N           0.2504  -13.8197  -42.2089 N.am      4 UNK        -0.5000 
     55 C          -0.5558  -13.5490  -43.2409 C.2       3 UNK         0.5000 
     56 O          -1.4868  -12.7404  -43.1906 O.2       3 UNK        -0.5000 
     57 CA         -0.2949  -14.3497  -44.5330 C.3       3 UNK         0.1400 
     58 CB         -0.8760  -15.7671  -44.4158 C.3       3 UNK        -0.1800 
     59 N          -0.8737  -13.7009  -45.7102 N.am      3 UNK        -0.5000 
     60 C          -0.3924  -12.5908  -46.2858 C.2       2 UNK         0.5000 
     61 O           0.6567  -12.0449  -45.9373 O.2       2 UNK        -0.5000 
     62 CA         -1.2369  -11.9980  -47.4368 C.3       2 UNK         0.1400 
     63 CB         -0.4680  -10.9587  -48.2801 C.3       2 UNK        -0.1800 
     64 N          -1.8507  -13.0177  -48.2990 N.am      2 UNK        -0.5000 
     65 C          -1.2178  -13.9281  -49.0578 C.2       1 UNK         0.5000 
     66 O           0.0068  -14.0388  -49.1193 O.2       1 UNK        -0.5000 
     67 C           0.3910  -21.8248  -47.2844 C.2       11 UNK         0.5000 
     68 O           0.0931  -22.4479  -48.3035 O.2       11 UNK        -0.5000 
     69 N          -0.2958  -20.7644  -46.8370 N.am      12 UNK        -0.5000 
     70 CA         -1.4761  -20.1892  -47.4767 C.3       12 UNK         0.1400 
     71 CB         -1.8492  -18.8775  -46.7749 C.3       12 UNK        -0.1800 
     72 C          -2.6859  -21.1352  -47.5061 C.2       12 UNK         0.5000 
     73 O          -3.4394  -21.1091  -48.4773 O.2       12 UNK        -0.5000 
     74 N          -2.8505  -21.9701  -46.4715 N.am      13 UNK        -0.5000 
     75 CA         -3.9048  -22.9832  -46.3866 C.3       13 UNK         0.1400 
     76 CB         -3.8863  -23.6413  -44.9994 C.3       13 UNK        -0.1800 
     77 C          -3.8063  -24.0433  -47.4996 C.2       13 UNK         0.5000 
     78 O          -4.8345  -24.4443  -48.0450 O.2       13 UNK        -0.5000 
     79 N          -2.5746  -24.4264  -47.8674 N.am      14 UNK        -0.5000 
     80 CA         -2.2885  -25.3221  -48.9926 C.3       14 UNK         0.1400 
     81 CB         -0.8321  -25.8019  -48.9023 C.3       14 UNK        -0.1800 
     82 C          -2.5702  -24.6753  -50.3656 C.2       14 UNK         0.5000 
     83 O          -2.8526  -25.3902  -51.3269 O.2       14 UNK        -0.5000 
     84 N          -2.5216  -23.3382  -50.4226 N.am      15 UNK        -0.5000 
     85 CA         -2.8641  -22.5146  -51.5833 C.3       15 UNK         0.1400 
     86 CB         -1.9794  -21.2587  -51.5491 C.3       15 UNK        -0.1800 
     87 C          -4.3533  -22.1127  -51.6041 C.2       15 UNK         0.5000 
     88 O          -4.7511  -21.3263  -52.4667 O.2       15 UNK        -0.5000 
     89 N          -5.1377  -22.5991  -50.6289 N.am      16 UNK        -0.5000 
     90 CA         -6.5478  -22.2863  -50.3813 C.3       16 UNK         0.1400 
     91 CB         -7.4319  -22.8982  -51.4874 C.3       16 UNK        -0.1800 
     92 C          -6.7938  -20.7763  -50.1701 C.2       16 UNK         0.5000 
     93 O          -7.7657  -20.2297  -50.6899 O.2       16 UNK        -0.5000 
     94 N          -5.8706  -20.1159  -49.4545 N.am      17 UNK        -0.5000 
     95 CA         -5.8100  -18.6698  -49.2077 C.3       17 UNK         0.1400 
     96 CB         -6.9803  -18.2118  -48.3139 C.3       17 UNK        -0.1800 
     97 C          -5.6766  -17.8445  -50.5071 C.2       17 UNK         0.5000 
     98 O          -6.2077  -16.7371  -50.5954 O.2       17 UNK        -0.5000 
     99 N          -4.9595  -18.4194  -51.4826 N.am      18 UNK        -0.5000 
    100 CA        -4.7138  -17.9398  -52.8444 C.3       18 UNK         0.1400 
    101 CB        -4.1524  -16.5039  -52.8814 C.3       18 UNK        -0.1800 
    102 C         -5.8975  -18.1438  -53.8107 C.2       18 UNK         0.5000 
    103 O         -5.8478  -17.6305  -54.9291 O.2       18 UNK        -0.5000 
    104 N         -6.9101  -18.9355  -53.4235 N.am      19 UNK        -0.5000 
    105 CA        -7.9589  -19.3994  -54.3405 C.3       19 UNK         0.1400 
    106 CB        -9.1653  -19.9172  -53.5446 C.3       19 UNK        -0.1800 
    107 C         -7.4465  -20.4771  -55.3197 C.2       19 UNK         0.5000 
    108 O         -8.0237  -20.6398  -56.3953 O.2       19 UNK        -0.5000 
    109 N         -6.3630  -21.1692  -54.9451 N.am      20 UNK        -0.5000 
    110 CA        -5.6369  -22.1408  -55.7569 C.3       20 UNK         0.1400 
    111 CB        -5.9764  -23.5600  -55.2647 C.3       20 UNK        -0.1800 
    112 C         -4.1339  -21.8163  -55.6753 C.2       20 UNK         0.5000 
    113 O         -3.3284  -22.7078  -55.4012 O.2       20 UNK        -0.5000 
    114 N         -3.8104  -20.5255  -55.8663 N.am      21 UNK        -0.5000 
    115 CA        -2.5133  -19.8604  -55.6903 C.3       21 UNK         0.1400 
    116 CB        -2.6032  -18.4381  -56.2705 C.3       21 UNK        -0.1800 
    117 C         -1.3003  -20.6187  -56.2641 C.2       21 UNK         0.5000 
    118 O         -0.9210  -20.4044  -57.4173 O.2       21 UNK        -0.5000 
    119 N         -0.7279  -21.4920  -55.4283 N.am      22 UNK        -0.5000 
    120 CA         0.4403  -22.3416  -55.7074 C.3       22 UNK         0.1400 
    121 C          0.1974  -23.4016  -56.8250 C.2       22 UNK         0.5000 
    122 N         -1.0407  -23.8258  -57.0538 N.am      22 UNK        -0.7600 
    123 O          1.1332  -23.8677  -57.4698 O.2       22 UNK        -0.5000 
    124 C124        1.7523  -21.5200  -55.8905 C.3       23 UNK        -0.0398 
    125 S125        2.1633  -20.3337  -54.5475 S.3       23 UNK        -0.2404 
    126 C126        1.5567  -21.1633  -53.0438 C.3       23 UNK        -0.0205 
    127 H127       -5.4507  -13.0169  -52.2241 H         1 UNK         0.0600 
    128 H128       -5.3403  -11.9453  -50.8228 H         1 UNK         0.0600 
    129 H129       -5.8363  -13.6292  -50.6152 H         1 UNK         0.0600 
    130 H130       -4.2135  -14.8199  -49.6925 H         1 UNK         0.3000 
    131 H131       -1.6063  -14.9914  -50.8509 H         1 UNK         0.0600 
    132 H132       -1.7081  -16.3067  -48.2225 H         1 UNK         0.0800 
    133 H133       -3.2087  -16.5822  -49.0251 H         1 UNK         0.0800 
    134 H134        0.7181  -16.5349  -50.2488 H         1 UNK         0.0800 
    135 H135        0.4051  -17.2952  -48.7062 H         1 UNK         0.0800 
    136 H136        0.1972  -19.0075  -52.0711 H         1 UNK         0.1150 
    137 H137        3.5255  -21.5630  -51.2145 H         1 UNK         0.1150 
    138 H138        2.4270  -18.4926  -48.4395 H         1 UNK         0.1150 
    139 H139        5.1459  -20.6331  -49.4567 H         1 UNK         0.0800 
    140 H140        4.5092  -19.6976  -48.1306 H         1 UNK         0.0800 
    141 H141        2.5957  -20.3833  -46.7222 H         1 UNK         0.0800 
    142 H142        3.4655  -21.4858  -45.7053 H         1 UNK         0.0800 
    143 H143        1.7963  -23.3267  -46.6953 H         1 UNK         0.0600 
    144 H144        1.6350  -21.7011  -44.3663 H         1 UNK         0.3000 
    145 H145       -1.0732  -23.4363  -42.8227 H         1 UNK         0.0600 
    146 H146        0.6273  -23.6367  -41.0310 H         1 UNK         0.0600 
    147 H147        0.9738  -24.7772  -42.3225 H         1 UNK         0.0600 
    148 H148        1.9213  -23.3014  -42.1785 H         1 UNK         0.0600 
    149 H149        0.5188  -21.2476  -41.9380 H         1 UNK         0.3000 
    150 H150       -1.4409  -18.6433  -43.4635 H         1 UNK         0.0600 
    151 H151       -2.5694  -19.2137  -41.3273 H         1 UNK         0.0600 
    152 H152       -1.4411  -17.8847  -41.1007 H         1 UNK         0.0600 
    153 H153       -1.0155  -19.5062  -40.5577 H         1 UNK         0.0600 
    154 H154        0.8805  -18.4649  -41.8633 H         1 UNK         0.3000 
    155 H155        3.3130  -18.7401  -44.4839 H         1 UNK         0.0600 
    156 H156        2.3520  -16.4081  -42.7393 H         1 UNK         0.0600 
    157 H157        3.9494  -16.5603  -43.4684 H         1 UNK         0.0600 
    158 H158        2.5299  -16.3856  -44.4879 H         1 UNK         0.0600 
    159 H159        3.4565  -18.3702  -41.6303 H         1 UNK         0.3000 
    160 H160        3.7896  -21.8218  -40.7890 H         1 UNK         0.0600 
    161 H161        5.8097  -19.5124  -40.8136 H         1 UNK         0.0600 
    162 H162        6.0556  -21.0916  -41.5500 H         1 UNK         0.0600 
    163 H163        5.8951  -20.9576  -39.8062 H         1 UNK         0.0600 
    164 H164        3.8878  -19.4047  -39.2498 H         1 UNK         0.3000 
    165 H165        0.4035  -19.1753  -38.5479 H         1 UNK         0.0600 
    166 H166        1.2330  -19.3114  -36.2221 H         1 UNK         0.0600 
    167 H167        1.2717  -20.9031  -36.9625 H         1 UNK         0.0600 
    168 H168        2.7648  -19.9919  -36.7718 H         1 UNK         0.0600 
    169 H169        2.5444  -17.6276  -37.5739 H         1 UNK         0.3000 
    170 H170        2.5502  -15.3874  -38.2111 H         1 UNK         0.0600 
    171 H171        4.1840  -16.0544  -40.7303 H         1 UNK         0.0600 
    172 H172        4.5812  -14.8095  -39.5471 H         1 UNK         0.0600 
    173 H173        4.6183  -16.5020  -39.0851 H         1 UNK         0.0600 
    174 H174        2.4377  -14.3483  -40.8902 H         1 UNK         0.3000 
    175 H175       -0.9296  -13.1003  -40.6408 H         1 UNK         0.0600 
    176 H176        0.3128  -11.1428  -41.5162 H         1 UNK         0.0600 
    177 H177        1.8553  -11.8938  -41.1157 H         1 UNK         0.0600 
    178 H178        0.7477  -11.4093  -39.8360 H         1 UNK         0.0600 
    179 H179        0.9365  -14.5543  -42.3013 H         1 UNK         0.3000 
    180 H180        0.7852  -14.4268  -44.6751 H         1 UNK         0.0600 
    181 H181       -1.9647  -15.7552  -44.3515 H         1 UNK         0.0600 
    182 H182       -0.5037  -16.2693  -43.5231 H         1 UNK         0.0600 
    183 H183       -0.5941  -16.3789  -45.2723 H         1 UNK         0.0600 
    184 H184       -1.7590  -14.0604  -46.0327 H         1 UNK         0.3000 
    185 H185       -2.0636  -11.4736  -46.9555 H         1 UNK         0.0600 
    186 H186       -0.1385  -10.1214  -47.6639 H         1 UNK         0.0600 
    187 H187        0.4186  -11.3894  -48.7461 H         1 UNK         0.0600 
    188 H188       -1.0971  -10.5501  -49.0710 H         1 UNK         0.0600 
    189 H189       -2.8606  -13.0145  -48.3266 H         1 UNK         0.3000 
    190 H190        0.0485  -20.2743  -46.0137 H         1 UNK         0.3000 
    191 H191       -1.2089  -19.9687  -48.5110 H         1 UNK         0.0600 
    192 H192       -1.0265  -18.1653  -46.8188 H         1 UNK         0.0600 
    193 H193       -2.7155  -18.4140  -47.2466 H         1 UNK         0.0600 
    194 H194       -2.0978  -19.0381  -45.7267 H         1 UNK         0.0600 
    195 H195       -2.2482  -21.8650  -45.6611 H         1 UNK         0.3000 
    196 H196       -4.8622  -22.4713  -46.5043 H         1 UNK         0.0600 
    197 H197       -4.6881  -24.3747  -44.9052 H         1 UNK         0.0600 
    198 H198       -4.0281  -22.9027  -44.2104 H         1 UNK         0.0600 
    199 H199       -2.9459  -24.1581  -44.8094 H         1 UNK         0.0600 
    200 H200       -1.7780  -24.0350  -47.3812 H         1 UNK         0.3000 
    201 H201       -2.9376  -26.1957  -48.9021 H         1 UNK         0.0600 
    202 H202       -0.6333  -26.2849  -47.9454 H         1 UNK         0.0600 
    203 H203       -0.1269  -24.9785  -49.0152 H         1 UNK         0.0600 
    204 H204       -0.6129  -26.5285  -49.6856 H         1 UNK         0.0600 
    205 H205       -2.2888  -22.8329  -49.5779 H         1 UNK         0.3000 
    206 H206       -2.6516  -23.0667  -52.5010 H         1 UNK         0.0600 
    207 H207       -0.9409  -21.5165  -51.3466 H         1 UNK         0.0600 
    208 H208       -2.0145  -20.7254  -52.4979 H         1 UNK         0.0600 
    209 H209       -2.2945  -20.5594  -50.7750 H         1 UNK         0.0600 
    210 H210       -4.7085  -23.2085  -49.9448 H         1 UNK         0.3000 
    211 H211       -6.8111  -22.7707  -49.4400 H         1 UNK         0.0600 
    212 H212       -7.2316  -22.4511  -52.4606 H         1 UNK         0.0600 
    213 H213       -8.4906  -22.7536  -51.2697 H         1 UNK         0.0600 
    214 H214       -7.2635  -23.9715  -51.5746 H         1 UNK         0.0600 
    215 H215       -5.0692  -20.6404  -49.1050 H         1 UNK         0.3000 
    216 H216       -4.8879  -18.5011  -48.6503 H         1 UNK         0.0600 
    217 H217       -6.8570  -17.1715  -48.0110 H         1 UNK         0.0600 
    218 H218       -7.0374  -18.8090  -47.4039 H         1 UNK         0.0600 
    219 H219       -7.9386  -18.2903  -48.8281 H         1 UNK         0.0600 
    220 H220       -4.6152  -19.3541  -51.3061 H         1 UNK         0.3000 
    221 H221       -3.9261  -18.5910  -53.2228 H         1 UNK         0.0600 
    222 H222       -4.9048  -15.7647  -52.6084 H         1 UNK         0.0600 
    223 H223       -3.3055  -16.3943  -52.2070 H         1 UNK         0.0600 
    224 H224       -3.7991  -16.2461  -53.8799 H         1 UNK         0.0600 
    225 H225       -6.9187  -19.3198  -52.4861 H         1 UNK         0.3000 
    226 H226       -8.2972  -18.5478  -54.9347 H         1 UNK         0.0600 
    227 H227       -9.5160  -19.1748  -52.8275 H         1 UNK         0.0600 
    228 H228       -9.9983  -20.1469  -54.2100 H         1 UNK         0.0600 
    229 H229       -8.9286  -20.8285  -52.9974 H         1 UNK         0.0600 
    230 H230       -5.9424  -20.9771  -54.0400 H         1 UNK         0.3000 
    231 H231       -5.9238  -22.0568  -56.8069 H         1 UNK         0.0600 
    232 H232       -5.6740  -23.7067  -54.2268 H         1 UNK         0.0600 
    233 H233       -5.4709  -24.3157  -55.8669 H         1 UNK         0.0600 
    234 H234       -7.0470  -23.7535  -55.3310 H         1 UNK         0.0600 
    235 H235       -4.5722  -19.9050  -56.0995 H         1 UNK         0.3000 
    236 H236       -2.3518  -19.7576  -54.6170 H         1 UNK         0.0600 
    237 H237       -3.3497  -17.8405  -55.7510 H         1 UNK         0.0600 
    238 H238       -1.6514  -17.9141  -56.1730 H         1 UNK         0.0600 
    239 H239       -2.8642  -18.4513  -57.3294 H         1 UNK         0.0600 
    240 H240       -1.1898  -21.6690  -54.5496 H         1 UNK         0.3000 
    241 H241        0.5708  -22.9596  -54.8199 H         1 UNK         0.0600 
    242 H242       -1.8155  -23.4595  -56.5092 H         1 UNK         0.3800 
    243 H243       -1.2086  -24.5180  -57.7663 H         1 UNK         0.3800 
    244 H244        2.6016  -22.1984  -55.9847 H         1 UNK         0.0800 
    245 H245        1.7147  -20.9629  -56.8276 H         1 UNK         0.0800 
    246 H246        2.0093  -22.1536  -52.9726 H         1 UNK         0.0800 
    247 H247        0.4839  -21.3185  -53.1151 H         1 UNK         0.0800 
@<TRIPOS>BOND
     1    1    2 1    
     2    1  127 1    
     3    1  128 1    
     4    1  129 1    
     5    2    3 2    
     6    2    4 am   BACKBONE|DICT|INTERRES
     7    4    5 1    
     8    4  130 1    
     9    5    6 1    
    10    5   65 1    
    11    5  131 1    
    12    6    7 1    
    13    6  132 1    
    14    6  133 1    
    15    7    8 1    
    16    8    9 1    
    17    8  134 1    
    18    8  135 1    
    19    9   10 ar   
    20    9   14 ar   
    21   10   11 ar   
    22   10  136 1    
    23   11   12 ar   
    24   11  126 1    
    25   12   13 ar   
    26   12  137 1    
    27   13   14 ar   
    28   13   15 1    
    29   14  138 1    
    30   15   16 1    
    31   15  139 1    
    32   15  140 1    
    33   16   17 1    
    34   17   18 1    
    35   17  141 1    
    36   17  142 1    
    37   18   19 1    
    38   18   67 1    
    39   18  143 1    
    40   19   20 am   BACKBONE|DICT|INTERRES
    41   19  144 1    
    42   20   21 2    
    43   20   22 1    
    44   22   23 1    
    45   22   24 1    
    46   22  145 1    
    47   23  146 1    
    48   23  147 1    
    49   23  148 1    
    50   24   25 am   BACKBONE|DICT|INTERRES
    51   24  149 1    
    52   25   26 2    
    53   25   27 1    
    54   27   28 1    
    55   27   29 1    
    56   27  150 1    
    57   28  151 1    
    58   28  152 1    
    59   28  153 1    
    60   29   30 am   BACKBONE|DICT|INTERRES
    61   29  154 1    
    62   30   31 2    
    63   30   32 1    
    64   32   33 1    
    65   32   34 1    
    66   32  155 1    
    67   33  156 1    
    68   33  157 1    
    69   33  158 1    
    70   34   35 am   BACKBONE|DICT|INTERRES
    71   34  159 1    
    72   35   36 2    
    73   35   37 1    
    74   37   38 1    
    75   37   39 1    
    76   37  160 1    
    77   38  161 1    
    78   38  162 1    
    79   38  163 1    
    80   39   40 am   BACKBONE|DICT|INTERRES
    81   39  164 1    
    82   40   41 2    
    83   40   42 1    
    84   42   43 1    
    85   42   44 1    
    86   42  165 1    
    87   43  166 1    
    88   43  167 1    
    89   43  168 1    
    90   44   45 am   BACKBONE|DICT|INTERRES
    91   44  169 1    
    92   45   46 2    
    93   45   47 1    
    94   47   48 1    
    95   47   49 1    
    96   47  170 1    
    97   48  171 1    
    98   48  172 1    
    99   48  173 1    
   100   49   50 am   BACKBONE|DICT|INTERRES
   101   49  174 1    
   102   50   51 2    
   103   50   52 1    
   104   52   53 1    
   105   52   54 1    
   106   52  175 1    
   107   53  176 1    
   108   53  177 1    
   109   53  178 1    
   110   54   55 am   BACKBONE|DICT|INTERRES
   111   54  179 1    
   112   55   56 2    
   113   55   57 1    
   114   57   58 1    
   115   57   59 1    
   116   57  180 1    
   117   58  181 1    
   118   58  182 1    
   119   58  183 1    
   120   59   60 am   BACKBONE|DICT|INTERRES
   121   59  184 1    
   122   60   61 2    
   123   60   62 1    
   124   62   63 1    
   125   62   64 1    
   126   62  185 1    
   127   63  186 1    
   128   63  187 1    
   129   63  188 1    
   130   64   65 am   BACKBONE|DICT|INTERRES
   131   64  189 1    
   132   65   66 2    
   133   67   68 2    
   134   67   69 am   BACKBONE|DICT|INTERRES
   135   69   70 1    
   136   69  190 1    
   137   70   71 1    
   138   70   72 1    
   139   70  191 1    
   140   71  192 1    
   141   71  193 1    
   142   71  194 1    
   143   72   73 2    
   144   72   74 am   BACKBONE|DICT|INTERRES
   145   74   75 1    
   146   74  195 1    
   147   75   76 1    
   148   75   77 1    
   149   75  196 1    
   150   76  197 1    
   151   76  198 1    
   152   76  199 1    
   153   77   78 2    
   154   77   79 am   BACKBONE|DICT|INTERRES
   155   79   80 1    
   156   79  200 1    
   157   80   81 1    
   158   80   82 1    
   159   80  201 1    
   160   81  202 1    
   161   81  203 1    
   162   81  204 1    
   163   82   83 2    
   164   82   84 am   BACKBONE|DICT|INTERRES
   165   84   85 1    
   166   84  205 1    
   167   85   86 1    
   168   85   87 1    
   169   85  206 1    
   170   86  207 1    
   171   86  208 1    
   172   86  209 1    
   173   87   88 2    
   174   87   89 am   BACKBONE|DICT|INTERRES
   175   89   90 1    
   176   89  210 1    
   177   90   91 1    
   178   90   92 1    
   179   90  211 1    
   180   91  212 1    
   181   91  213 1    
   182   91  214 1    
   183   92   93 2    
   184   92   94 am   BACKBONE|DICT|INTERRES
   185   94   95 1    
   186   94  215 1    
   187   95   96 1    
   188   95   97 1    
   189   95  216 1    
   190   96  217 1    
   191   96  218 1    
   192   96  219 1    
   193   97   98 2    
   194   97   99 am   BACKBONE|DICT|INTERRES
   195   99  100 1    
   196   99  220 1    
   197  100  101 1    
   198  100  102 1    
   199  100  221 1    
   200  101  222 1    
   201  101  223 1    
   202  101  224 1    
   203  102  103 2    
   204  102  104 am   BACKBONE|DICT|INTERRES
   205  104  105 1    
   206  104  225 1    
   207  105  106 1    
   208  105  107 1    
   209  105  226 1    
   210  106  227 1    
   211  106  228 1    
   212  106  229 1    
   213  107  108 2    
   214  107  109 am   BACKBONE|DICT|INTERRES
   215  109  110 1    
   216  109  230 1    
   217  110  111 1    
   218  110  112 1    
   219  110  231 1    
   220  111  232 1    
   221  111  233 1    
   222  111  234 1    
   223  112  113 2    
   224  112  114 am   BACKBONE|DICT|INTERRES
   225  114  115 1    
   226  114  235 1    
   227  115  116 1    
   228  115  117 1    
   229  115  236 1    
   230  116  237 1    
   231  116  238 1    
   232  116  239 1    
   233  117  118 2    
   234  117  119 am   BACKBONE|DICT|INTERRES
   235  119  120 1    
   236  119  240 1    
   237  120  121 1    
   238  120  124 1    
   239  120  241 1    
   240  121  122 am   BACKBONE|DICT|INTERRES
   241  121  123 2    
   242  122  242 1    
   243  122  243 1    
   244  124  125 1    
   245  124  244 1    
   246  124  245 1    
   247  125  126 1    
   248  126  246 1    
   249  126  247 1    
@<TRIPOS>SUBSTRUCTURE
     1 UNK         1 GROUP             0       ****    0 ROOT    
