@<TRIPOS>MOLECULE
3R540
247   249    1
SMALL
USER_CHARGES


@<TRIPOS>ATOM
      1 CA         -4.9579  -16.6900  -47.7621 C.3       0 UNK        -0.1800 
      2 C          -3.9023  -15.5968  -47.6751 C.2       0 UNK         0.5000 
      3 O          -4.0482  -14.6740  -46.8732 O.2       0 UNK        -0.5000 
      4 N          -2.8546  -15.7068  -48.5044 N.am      1 UNK        -0.5000 
      5 CA         -1.7041  -14.8029  -48.6395 C.3       1 UNK         0.1400 
      6 C6         -0.6397  -15.3919  -49.5998 C.3       23 UNK        -0.0398 
      7 S7         -1.2559  -15.5943  -51.3012 S.3       23 UNK        -0.2404 
      8 C8          0.3010  -15.4979  -52.2377 C.3       23 UNK        -0.0205 
      9 C9          1.1029  -16.7894  -52.1551 C.ar      23 UNK        -0.0193 
     10 C10         0.8590  -17.8111  -53.0746 C.ar      23 UNK        -0.1150 
     11 C11         1.6236  -18.9800  -53.0610 C.ar      23 UNK        -0.0193 
     12 C12         2.6355  -19.1251  -52.1079 C.ar      23 UNK        -0.1150 
     13 C13         2.8840  -18.1189  -51.1664 C.ar      23 UNK        -0.0193 
     14 C14         2.1110  -16.9518  -51.1981 C.ar      23 UNK        -0.1150 
     15 C15         4.0406  -18.2397  -50.1756 C.3       23 UNK        -0.0205 
     16 S16         4.2099  -19.8878  -49.4041 S.3       23 UNK        -0.2404 
     17 C17         3.1508  -19.7455  -47.9266 C.3       23 UNK        -0.0398 
     18 CA          2.3431  -21.0412  -47.6469 C.3       11 UNK         0.1400 
     19 N           2.1204  -21.2478  -46.2126 N.am      11 UNK        -0.5000 
     20 C           1.7424  -22.4055  -45.6518 C.2       10 UNK         0.5000 
     21 O           1.6266  -23.4606  -46.2752 O.2       10 UNK        -0.5000 
     22 CA          1.4141  -22.3811  -44.1445 C.3       10 UNK         0.1400 
     23 CB          2.6559  -22.7294  -43.3104 C.3       10 UNK        -0.1800 
     24 N           0.8699  -21.0986  -43.6936 N.am      10 UNK        -0.5000 
     25 C          -0.3138  -20.6011  -44.0785 C.2       9 UNK         0.5000 
     26 O          -1.1021  -21.2060  -44.8012 O.2       9 UNK        -0.5000 
     27 CA         -0.6498  -19.1674  -43.6329 C.3       9 UNK         0.1400 
     28 CB         -1.2400  -19.1761  -42.2157 C.3       9 UNK        -0.1800 
     29 N           0.5095  -18.2741  -43.6876 N.am      9 UNK        -0.5000 
     30 C           1.2073  -17.9906  -44.7984 C.2       8 UNK         0.5000 
     31 O           0.9108  -18.4187  -45.9133 O.2       8 UNK        -0.5000 
     32 CA          2.5042  -17.1804  -44.6205 C.3       8 UNK         0.1400 
     33 CB          2.2334  -15.6764  -44.5366 C.3       8 UNK        -0.1800 
     34 N           3.2273  -17.5952  -43.4228 N.am      8 UNK        -0.5000 
     35 C           3.9500  -18.7176  -43.3288 C.2       7 UNK         0.5000 
     36 O           4.1161  -19.5037  -44.2613 O.2       7 UNK        -0.5000 
     37 CA          4.5622  -19.0212  -41.9488 C.3       7 UNK         0.1400 
     38 CB          5.9378  -18.3527  -41.8091 C.3       7 UNK        -0.1800 
     39 N           3.7003  -18.5914  -40.8441 N.am      7 UNK        -0.5000 
     40 C           2.5220  -19.1577  -40.5502 C.2       6 UNK         0.5000 
     41 O           2.0520  -20.1106  -41.1714 O.2       6 UNK        -0.5000 
     42 CA          1.7189  -18.5332  -39.3942 C.3       6 UNK         0.1400 
     43 CB          2.1784  -19.1092  -38.0466 C.3       6 UNK        -0.1800 
     44 N           1.7843  -17.0684  -39.3449 N.am      6 UNK        -0.5000 
     45 C           1.3148  -16.2539  -40.2986 C.2       5 UNK         0.5000 
     46 O           0.8658  -16.6510  -41.3755 O.2       5 UNK        -0.5000 
     47 CA          1.3753  -14.7447  -40.0181 C.3       5 UNK         0.1400 
     48 CB          2.4794  -14.0817  -40.8554 C.3       5 UNK        -0.1800 
     49 N           0.0892  -14.1424  -40.3578 N.am      5 UNK        -0.5000 
     50 C          -0.9392  -14.0111  -39.5062 C.2       4 UNK         0.5000 
     51 O          -0.8653  -14.2636  -38.3029 O.2       4 UNK        -0.5000 
     52 CA         -2.2860  -13.5408  -40.0973 C.3       4 UNK         0.1400 
     53 CB         -2.3987  -12.0100  -40.0384 C.3       4 UNK        -0.1800 
     54 N          -2.4563  -13.9798  -41.4815 N.am      4 UNK        -0.5000 
     55 C          -2.6336  -15.2528  -41.8547 C.2       3 UNK         0.5000 
     56 O          -2.9406  -16.1427  -41.0608 O.2       3 UNK        -0.5000 
     57 CA         -2.3961  -15.6095  -43.3414 C.3       3 UNK         0.1400 
     58 CB         -3.5361  -16.4683  -43.9136 C.3       3 UNK        -0.1800 
     59 N          -2.1418  -14.4904  -44.2580 N.am      3 UNK        -0.5000 
     60 C          -1.0789  -13.6716  -44.2412 C.2       2 UNK         0.5000 
     61 O          -0.2709  -13.6302  -43.3118 O.2       2 UNK        -0.5000 
     62 CA         -0.9049  -12.7345  -45.4578 C.3       2 UNK         0.1400 
     63 CB          0.5456  -12.2368  -45.6230 C.3       2 UNK        -0.1800 
     64 N          -1.3941  -13.2970  -46.7240 N.am      2 UNK        -0.5000 
     65 C          -1.0486  -14.4674  -47.2843 C.2       1 UNK         0.5000 
     66 O          -0.2680  -15.2737  -46.7818 O.2       1 UNK        -0.5000 
     67 C           1.0110  -21.0559  -48.4248 C.2       11 UNK         0.5000 
     68 O           0.9283  -21.6755  -49.4848 O.2       11 UNK        -0.5000 
     69 N          -0.0047  -20.3777  -47.8727 N.am      12 UNK        -0.5000 
     70 CA         -1.3360  -20.2545  -48.4602 C.3       12 UNK         0.1400 
     71 CB         -2.0584  -19.0648  -47.8135 C.3       12 UNK        -0.1800 
     72 C          -2.1921  -21.5271  -48.3407 C.2       12 UNK         0.5000 
     73 O          -2.9693  -21.8145  -49.2533 O.2       12 UNK        -0.5000 
     74 N          -2.0300  -22.2524  -47.2270 N.am      13 UNK        -0.5000 
     75 CA         -2.7809  -23.4325  -46.7920 C.3       13 UNK         0.1400 
     76 CB         -2.6597  -24.5827  -47.8133 C.3       13 UNK        -0.1800 
     77 C          -4.2505  -23.1215  -46.4375 C.2       13 UNK         0.5000 
     78 O          -4.7182  -21.9879  -46.5847 O.2       13 UNK        -0.5000 
     79 N          -4.9559  -24.1492  -45.9451 N.am      14 UNK        -0.5000 
     80 CA         -6.3727  -24.1004  -45.5828 C.3       14 UNK         0.1400 
     81 CB         -6.7934  -25.4582  -45.0007 C.3       14 UNK        -0.1800 
     82 C          -7.2523  -23.7311  -46.7898 C.2       14 UNK         0.5000 
     83 O          -7.0620  -24.2883  -47.8727 O.2       14 UNK        -0.5000 
     84 N          -8.1641  -22.7702  -46.5863 N.am      15 UNK        -0.5000 
     85 CA         -9.0764  -22.1966  -47.5860 C.3       15 UNK         0.1400 
     86 CB        -10.1252  -23.2432  -48.0181 C.3       15 UNK        -0.1800 
     87 C          -8.3625  -21.5449  -48.7946 C.2       15 UNK         0.5000 
     88 O          -8.9712  -21.4126  -49.8575 O.2       15 UNK        -0.5000 
     89 N          -7.0878  -21.1588  -48.6130 N.am      16 UNK        -0.5000 
     90 CA         -6.1739  -20.6070  -49.6198 C.3       16 UNK         0.1400 
     91 CB         -6.6804  -19.2383  -50.1251 C.3       16 UNK        -0.1800 
     92 C          -5.8644  -21.5927  -50.7709 C.2       16 UNK         0.5000 
     93 O          -5.5603  -21.1566  -51.8827 O.2       16 UNK        -0.5000 
     94 N          -5.9484  -22.9037  -50.4949 N.am      17 UNK        -0.5000 
     95 CA         -5.8241  -23.9766  -51.4836 C.3       17 UNK         0.1400 
     96 CB         -6.1467  -25.3219  -50.8171 C.3       17 UNK        -0.1800 
     97 C          -4.4597  -24.0451  -52.1931 C.2       17 UNK         0.5000 
     98 O          -4.4208  -24.3689  -53.3809 O.2       17 UNK        -0.5000 
     99 N          -3.3736  -23.7372  -51.4716 N.am      18 UNK        -0.5000 
    100 CA        -2.0252  -23.6809  -52.0352 C.3       18 UNK         0.1400 
    101 CB        -0.9870  -24.0830  -50.9798 C.3       18 UNK        -0.1800 
    102 C         -1.7269  -22.2940  -52.6234 C.2       18 UNK         0.5000 
    103 O         -1.0588  -22.2196  -53.6521 O.2       18 UNK        -0.5000 
    104 N         -2.2727  -21.2289  -52.0142 N.am      19 UNK        -0.5000 
    105 CA        -2.2048  -19.8500  -52.5126 C.3       19 UNK         0.1400 
    106 CB        -2.8853  -18.8808  -51.5298 C.3       19 UNK        -0.1800 
    107 C         -2.7845  -19.6954  -53.9304 C.2       19 UNK         0.5000 
    108 O         -2.1849  -19.0221  -54.7685 O.2       19 UNK        -0.5000 
    109 N         -3.9091  -20.3771  -54.1806 N.am      20 UNK        -0.5000 
    110 CA        -4.5955  -20.4439  -55.4697 C.3       20 UNK         0.1400 
    111 CB        -5.9442  -21.1517  -55.2648 C.3       20 UNK        -0.1800 
    112 C         -3.7937  -21.1322  -56.5957 C.2       20 UNK         0.5000 
    113 O         -4.1371  -20.9458  -57.7640 O.2       20 UNK        -0.5000 
    114 N         -2.7624  -21.9187  -56.2508 N.am      21 UNK        -0.5000 
    115 CA        -1.9139  -22.6198  -57.2173 C.3       21 UNK         0.1400 
    116 CB        -1.2373  -23.8185  -56.5342 C.3       21 UNK        -0.1800 
    117 C         -0.8615  -21.7037  -57.8718 C.2       21 UNK         0.5000 
    118 O         -0.4093  -22.0093  -58.9765 O.2       21 UNK        -0.5000 
    119 N         -0.4850  -20.6109  -57.1951 N.am      22 UNK        -0.5000 
    120 CA         0.4374  -19.5920  -57.7182 C.3       22 UNK         0.1400 
    121 C         -0.2812  -18.6198  -58.6931 C.2       22 UNK         0.5000 
    122 N          0.3956  -18.1735  -59.7426 N.am      22 UNK        -0.7600 
    123 O         -1.4297  -18.2331  -58.4893 O.2       22 UNK        -0.5000 
    124 C124        1.1380  -18.8077  -56.5807 C.3       23 UNK        -0.0398 
    125 S125        2.2797  -19.8585  -55.6149 S.3       23 UNK        -0.2404 
    126 C126        1.3559  -20.0904  -54.0666 C.3       23 UNK        -0.0205 
    127 H127       -5.9544  -16.2497  -47.7972 H         1 UNK         0.0600 
    128 H128       -4.9011  -17.3391  -46.8884 H         1 UNK         0.0600 
    129 H129       -4.8300  -17.3024  -48.6545 H         1 UNK         0.0600 
    130 H130       -2.8319  -16.4894  -49.1401 H         1 UNK         0.3000 
    131 H131       -2.0743  -13.8725  -49.0747 H         1 UNK         0.0600 
    132 H132       -0.2863  -16.3624  -49.2456 H         1 UNK         0.0800 
    133 H133        0.2363  -14.7411  -49.6283 H         1 UNK         0.0800 
    134 H134        0.8978  -14.6524  -51.8928 H         1 UNK         0.0800 
    135 H135        0.0626  -15.2857  -53.2811 H         1 UNK         0.0800 
    136 H136        0.0722  -17.6889  -53.8047 H         1 UNK         0.1150 
    137 H137        3.2388  -20.0218  -52.1080 H         1 UNK         0.1150 
    138 H138        2.3110  -16.1558  -50.4947 H         1 UNK         0.1150 
    139 H139        4.9629  -18.0243  -50.7164 H         1 UNK         0.0800 
    140 H140        3.9662  -17.4820  -49.3939 H         1 UNK         0.0800 
    141 H141        2.5000  -18.8732  -48.0120 H         1 UNK         0.0800 
    142 H142        3.8188  -19.5325  -47.0907 H         1 UNK         0.0800 
    143 H143        2.9318  -21.8937  -47.9935 H         1 UNK         0.0600 
    144 H144        2.1934  -20.4300  -45.6231 H         1 UNK         0.3000 
    145 H145        0.6578  -23.1471  -43.9613 H         1 UNK         0.0600 
    146 H146        2.4154  -22.7813  -42.2484 H         1 UNK         0.0600 
    147 H147        3.0615  -23.6995  -43.6002 H         1 UNK         0.0600 
    148 H148        3.4476  -21.9913  -43.4380 H         1 UNK         0.0600 
    149 H149        1.4278  -20.5720  -43.0289 H         1 UNK         0.3000 
    150 H150       -1.4019  -18.7691  -44.3166 H         1 UNK         0.0600 
    151 H151       -2.1812  -19.7264  -42.1912 H         1 UNK         0.0600 
    152 H152       -1.4432  -18.1680  -41.8606 H         1 UNK         0.0600 
    153 H153       -0.5678  -19.6478  -41.5000 H         1 UNK         0.0600 
    154 H154        0.7869  -17.8360  -42.8125 H         1 UNK         0.3000 
    155 H155        3.1398  -17.3595  -45.4905 H         1 UNK         0.0600 
    156 H156        1.4772  -15.4505  -43.7869 H         1 UNK         0.0600 
    157 H157        1.8810  -15.2992  -45.4936 H         1 UNK         0.0600 
    158 H158        3.1358  -15.1185  -44.2869 H         1 UNK         0.0600 
    159 H159        3.0981  -17.0309  -42.5963 H         1 UNK         0.3000 
    160 H160        4.6981  -20.1025  -41.8768 H         1 UNK         0.0600 
    161 H161        5.8648  -17.2652  -41.8524 H         1 UNK         0.0600 
    162 H162        6.6080  -18.6691  -42.6095 H         1 UNK         0.0600 
    163 H163        6.4122  -18.6206  -40.8648 H         1 UNK         0.0600 
    164 H164        4.0180  -17.8129  -40.2857 H         1 UNK         0.3000 
    165 H165        0.6726  -18.8096  -39.5384 H         1 UNK         0.0600 
    166 H166        1.5493  -18.7537  -37.2304 H         1 UNK         0.0600 
    167 H167        2.1211  -20.1986  -38.0477 H         1 UNK         0.0600 
    168 H168        3.2096  -18.8349  -37.8206 H         1 UNK         0.0600 
    169 H169        2.1482  -16.6655  -38.4933 H         1 UNK         0.3000 
    170 H170        1.5998  -14.5794  -38.9623 H         1 UNK         0.0600 
    171 H171        3.4519  -14.5310  -40.6509 H         1 UNK         0.0600 
    172 H172        2.2890  -14.1772  -41.9244 H         1 UNK         0.0600 
    173 H173        2.5574  -13.0185  -40.6277 H         1 UNK         0.0600 
    174 H174       -0.0667  -13.9675  -41.3464 H         1 UNK         0.3000 
    175 H175       -3.0886  -13.9695  -39.4935 H         1 UNK         0.0600 
    176 H176       -1.6249  -11.5260  -40.6358 H         1 UNK         0.0600 
    177 H177       -3.3679  -11.6715  -40.4053 H         1 UNK         0.0600 
    178 H178       -2.2957  -11.6509  -39.0136 H         1 UNK         0.0600 
    179 H179       -2.1658  -13.3296  -42.1978 H         1 UNK         0.3000 
    180 H180       -1.4919  -16.2202  -43.3496 H         1 UNK         0.0600 
    181 H181       -3.2788  -16.8477  -44.9025 H         1 UNK         0.0600 
    182 H182       -4.4616  -15.8982  -44.0009 H         1 UNK         0.0600 
    183 H183       -3.7392  -17.3357  -43.2844 H         1 UNK         0.0600 
    184 H184       -2.7596  -14.4321  -45.0596 H         1 UNK         0.3000 
    185 H185       -1.5278  -11.8635  -45.2503 H         1 UNK         0.0600 
    186 H186        0.8926  -11.7240  -44.7251 H         1 UNK         0.0600 
    187 H187        1.2348  -13.0575  -45.8184 H         1 UNK         0.0600 
    188 H188        0.6268  -11.5298  -46.4485 H         1 UNK         0.0600 
    189 H189       -2.0994  -12.7448  -47.1923 H         1 UNK         0.3000 
    190 H190        0.1736  -19.8459  -47.0256 H         1 UNK         0.3000 
    191 H191       -1.2016  -20.0510  -49.5218 H         1 UNK         0.0600 
    192 H192       -3.0339  -18.9093  -48.2738 H         1 UNK         0.0600 
    193 H193       -1.4841  -18.1457  -47.9270 H         1 UNK         0.0600 
    194 H194       -2.2207  -19.2249  -46.7469 H         1 UNK         0.0600 
    195 H195       -1.4408  -21.8530  -46.5006 H         1 UNK         0.3000 
    196 H196       -2.2998  -23.7542  -45.8672 H         1 UNK         0.0600 
    197 H197       -3.2334  -24.3865  -48.7182 H         1 UNK         0.0600 
    198 H198       -1.6204  -24.7466  -48.0971 H         1 UNK         0.0600 
    199 H199       -3.0266  -25.5216  -47.3985 H         1 UNK         0.0600 
    200 H200       -4.5113  -25.0518  -45.8690 H         1 UNK         0.3000 
    201 H201       -6.4910  -23.3401  -44.8080 H         1 UNK         0.0600 
    202 H202       -6.6684  -26.2629  -45.7265 H         1 UNK         0.0600 
    203 H203       -7.8425  -25.4462  -44.7020 H         1 UNK         0.0600 
    204 H204       -6.2073  -25.7085  -44.1163 H         1 UNK         0.0600 
    205 H205       -8.2260  -22.3592  -45.6649 H         1 UNK         0.3000 
    206 H206       -9.6076  -21.3875  -47.0829 H         1 UNK         0.0600 
    207 H207      -10.6207  -23.6856  -47.1539 H         1 UNK         0.0600 
    208 H208      -10.9010  -22.7906  -48.6367 H         1 UNK         0.0600 
    209 H209       -9.6761  -24.0507  -48.5972 H         1 UNK         0.0600 
    210 H210       -6.6636  -21.3418  -47.7117 H         1 UNK         0.3000 
    211 H211       -5.2298  -20.4348  -49.1025 H         1 UNK         0.0600 
    212 H212       -5.9299  -18.7353  -50.7340 H         1 UNK         0.0600 
    213 H213       -6.9203  -18.5750  -49.2944 H         1 UNK         0.0600 
    214 H214       -7.5746  -19.3390  -50.7405 H         1 UNK         0.0600 
    215 H215       -6.2150  -23.1866  -49.5589 H         1 UNK         0.3000 
    216 H216       -6.5769  -23.7938  -52.2531 H         1 UNK         0.0600 
    217 H217       -5.4711  -25.5303  -49.9863 H         1 UNK         0.0600 
    218 H218       -6.0597  -26.1446  -51.5279 H         1 UNK         0.0600 
    219 H219       -7.1662  -25.3349  -50.4313 H         1 UNK         0.0600 
    220 H220       -3.4871  -23.3950  -50.5241 H         1 UNK         0.3000 
    221 H221       -1.9433  -24.4029  -52.8509 H         1 UNK         0.0600 
    222 H222       -1.1636  -25.0967  -50.6207 H         1 UNK         0.0600 
    223 H223       -0.9996  -23.4160  -50.1210 H         1 UNK         0.0600 
    224 H224        0.0209  -24.0547  -51.3956 H         1 UNK         0.0600 
    225 H225       -2.7915  -21.3860  -51.1569 H         1 UNK         0.3000 
    226 H226       -1.1525  -19.5785  -52.5623 H         1 UNK         0.0600 
    227 H227       -3.7229  -19.3445  -51.0137 H         1 UNK         0.0600 
    228 H228       -2.1820  -18.5275  -50.7788 H         1 UNK         0.0600 
    229 H229       -3.2626  -17.9899  -52.0344 H         1 UNK         0.0600 
    230 H230       -4.3595  -20.8572  -53.4057 H         1 UNK         0.3000 
    231 H231       -4.7913  -19.4199  -55.7936 H         1 UNK         0.0600 
    232 H232       -5.8089  -22.1716  -54.9020 H         1 UNK         0.0600 
    233 H233       -6.5079  -21.2047  -56.1971 H         1 UNK         0.0600 
    234 H234       -6.5629  -20.6197  -54.5417 H         1 UNK         0.0600 
    235 H235       -2.5091  -22.0090  -55.2745 H         1 UNK         0.3000 
    236 H236       -2.5506  -23.0118  -58.0135 H         1 UNK         0.0600 
    237 H237       -1.9634  -24.4433  -56.0135 H         1 UNK         0.0600 
    238 H238       -0.7337  -24.4471  -57.2694 H         1 UNK         0.0600 
    239 H239       -0.4842  -23.5019  -55.8129 H         1 UNK         0.0600 
    240 H240       -0.9517  -20.3908  -56.3259 H         1 UNK         0.3000 
    241 H241        1.2165  -20.1053  -58.2860 H         1 UNK         0.0600 
    242 H242       -0.0531  -17.5304  -60.3767 H         1 UNK         0.3800 
    243 H243        1.3415  -18.4703  -59.9293 H         1 UNK         0.3800 
    244 H244        0.3982  -18.3409  -55.9311 H         1 UNK         0.0800 
    245 H245        1.7334  -17.9906  -56.9920 H         1 UNK         0.0800 
    246 H246        0.2936  -20.1480  -54.2945 H         1 UNK         0.0800 
    247 H247        1.6242  -21.0555  -53.6339 H         1 UNK         0.0800 
@<TRIPOS>BOND
     1    1    2 1    
     2    1  127 1    
     3    1  128 1    
     4    1  129 1    
     5    2    3 2    
     6    2    4 am   BACKBONE|DICT|INTERRES
     7    4    5 1    
     8    4  130 1    
     9    5    6 1    
    10    5   65 1    
    11    5  131 1    
    12    6    7 1    
    13    6  132 1    
    14    6  133 1    
    15    7    8 1    
    16    8    9 1    
    17    8  134 1    
    18    8  135 1    
    19    9   10 ar   
    20    9   14 ar   
    21   10   11 ar   
    22   10  136 1    
    23   11   12 ar   
    24   11  126 1    
    25   12   13 ar   
    26   12  137 1    
    27   13   14 ar   
    28   13   15 1    
    29   14  138 1    
    30   15   16 1    
    31   15  139 1    
    32   15  140 1    
    33   16   17 1    
    34   17   18 1    
    35   17  141 1    
    36   17  142 1    
    37   18   19 1    
    38   18   67 1    
    39   18  143 1    
    40   19   20 am   BACKBONE|DICT|INTERRES
    41   19  144 1    
    42   20   21 2    
    43   20   22 1    
    44   22   23 1    
    45   22   24 1    
    46   22  145 1    
    47   23  146 1    
    48   23  147 1    
    49   23  148 1    
    50   24   25 am   BACKBONE|DICT|INTERRES
    51   24  149 1    
    52   25   26 2    
    53   25   27 1    
    54   27   28 1    
    55   27   29 1    
    56   27  150 1    
    57   28  151 1    
    58   28  152 1    
    59   28  153 1    
    60   29   30 am   BACKBONE|DICT|INTERRES
    61   29  154 1    
    62   30   31 2    
    63   30   32 1    
    64   32   33 1    
    65   32   34 1    
    66   32  155 1    
    67   33  156 1    
    68   33  157 1    
    69   33  158 1    
    70   34   35 am   BACKBONE|DICT|INTERRES
    71   34  159 1    
    72   35   36 2    
    73   35   37 1    
    74   37   38 1    
    75   37   39 1    
    76   37  160 1    
    77   38  161 1    
    78   38  162 1    
    79   38  163 1    
    80   39   40 am   BACKBONE|DICT|INTERRES
    81   39  164 1    
    82   40   41 2    
    83   40   42 1    
    84   42   43 1    
    85   42   44 1    
    86   42  165 1    
    87   43  166 1    
    88   43  167 1    
    89   43  168 1    
    90   44   45 am   BACKBONE|DICT|INTERRES
    91   44  169 1    
    92   45   46 2    
    93   45   47 1    
    94   47   48 1    
    95   47   49 1    
    96   47  170 1    
    97   48  171 1    
    98   48  172 1    
    99   48  173 1    
   100   49   50 am   BACKBONE|DICT|INTERRES
   101   49  174 1    
   102   50   51 2    
   103   50   52 1    
   104   52   53 1    
   105   52   54 1    
   106   52  175 1    
   107   53  176 1    
   108   53  177 1    
   109   53  178 1    
   110   54   55 am   BACKBONE|DICT|INTERRES
   111   54  179 1    
   112   55   56 2    
   113   55   57 1    
   114   57   58 1    
   115   57   59 1    
   116   57  180 1    
   117   58  181 1    
   118   58  182 1    
   119   58  183 1    
   120   59   60 am   BACKBONE|DICT|INTERRES
   121   59  184 1    
   122   60   61 2    
   123   60   62 1    
   124   62   63 1    
   125   62   64 1    
   126   62  185 1    
   127   63  186 1    
   128   63  187 1    
   129   63  188 1    
   130   64   65 am   BACKBONE|DICT|INTERRES
   131   64  189 1    
   132   65   66 2    
   133   67   68 2    
   134   67   69 am   BACKBONE|DICT|INTERRES
   135   69   70 1    
   136   69  190 1    
   137   70   71 1    
   138   70   72 1    
   139   70  191 1    
   140   71  192 1    
   141   71  193 1    
   142   71  194 1    
   143   72   73 2    
   144   72   74 am   BACKBONE|DICT|INTERRES
   145   74   75 1    
   146   74  195 1    
   147   75   76 1    
   148   75   77 1    
   149   75  196 1    
   150   76  197 1    
   151   76  198 1    
   152   76  199 1    
   153   77   78 2    
   154   77   79 am   BACKBONE|DICT|INTERRES
   155   79   80 1    
   156   79  200 1    
   157   80   81 1    
   158   80   82 1    
   159   80  201 1    
   160   81  202 1    
   161   81  203 1    
   162   81  204 1    
   163   82   83 2    
   164   82   84 am   BACKBONE|DICT|INTERRES
   165   84   85 1    
   166   84  205 1    
   167   85   86 1    
   168   85   87 1    
   169   85  206 1    
   170   86  207 1    
   171   86  208 1    
   172   86  209 1    
   173   87   88 2    
   174   87   89 am   BACKBONE|DICT|INTERRES
   175   89   90 1    
   176   89  210 1    
   177   90   91 1    
   178   90   92 1    
   179   90  211 1    
   180   91  212 1    
   181   91  213 1    
   182   91  214 1    
   183   92   93 2    
   184   92   94 am   BACKBONE|DICT|INTERRES
   185   94   95 1    
   186   94  215 1    
   187   95   96 1    
   188   95   97 1    
   189   95  216 1    
   190   96  217 1    
   191   96  218 1    
   192   96  219 1    
   193   97   98 2    
   194   97   99 am   BACKBONE|DICT|INTERRES
   195   99  100 1    
   196   99  220 1    
   197  100  101 1    
   198  100  102 1    
   199  100  221 1    
   200  101  222 1    
   201  101  223 1    
   202  101  224 1    
   203  102  103 2    
   204  102  104 am   BACKBONE|DICT|INTERRES
   205  104  105 1    
   206  104  225 1    
   207  105  106 1    
   208  105  107 1    
   209  105  226 1    
   210  106  227 1    
   211  106  228 1    
   212  106  229 1    
   213  107  108 2    
   214  107  109 am   BACKBONE|DICT|INTERRES
   215  109  110 1    
   216  109  230 1    
   217  110  111 1    
   218  110  112 1    
   219  110  231 1    
   220  111  232 1    
   221  111  233 1    
   222  111  234 1    
   223  112  113 2    
   224  112  114 am   BACKBONE|DICT|INTERRES
   225  114  115 1    
   226  114  235 1    
   227  115  116 1    
   228  115  117 1    
   229  115  236 1    
   230  116  237 1    
   231  116  238 1    
   232  116  239 1    
   233  117  118 2    
   234  117  119 am   BACKBONE|DICT|INTERRES
   235  119  120 1    
   236  119  240 1    
   237  120  121 1    
   238  120  124 1    
   239  120  241 1    
   240  121  122 am   BACKBONE|DICT|INTERRES
   241  121  123 2    
   242  122  242 1    
   243  122  243 1    
   244  124  125 1    
   245  124  244 1    
   246  124  245 1    
   247  125  126 1    
   248  126  246 1    
   249  126  247 1    
@<TRIPOS>SUBSTRUCTURE
     1 UNK         1 GROUP             0       ****    0 ROOT    
