@<TRIPOS>MOLECULE
3R540
247   249    1
SMALL
USER_CHARGES


@<TRIPOS>ATOM
      1 CA         -1.8327  -13.9947  -46.0544 C.3       0 UNK        -0.1800 
      2 C          -0.5729  -13.6138  -46.8181 C.2       0 UNK         0.5000 
      3 O           0.2763  -12.9035  -46.2823 O.2       0 UNK        -0.5000 
      4 N          -0.4473  -14.0820  -48.0675 N.am      1 UNK        -0.5000 
      5 CA          0.6793  -13.8183  -48.9729 C.3       1 UNK         0.1400 
      6 C6          2.0036  -14.4686  -48.4683 C.3       23 UNK        -0.0398 
      7 S7          3.0493  -15.0661  -49.8420 S.3       23 UNK        -0.2404 
      8 C8          3.5889  -16.7059  -49.2358 C.3       23 UNK        -0.0205 
      9 C9          2.5668  -17.8430  -49.3353 C.ar      23 UNK        -0.0193 
     10 C10         1.1874  -17.6213  -49.4412 C.ar      23 UNK        -0.1150 
     11 C11         0.2860  -18.6870  -49.4686 C.ar      23 UNK        -0.0193 
     12 C12         0.7720  -19.9951  -49.3996 C.ar      23 UNK        -0.1150 
     13 C13         2.1446  -20.2408  -49.3179 C.ar      23 UNK        -0.0193 
     14 C14         3.0328  -19.1616  -49.2829 C.ar      23 UNK        -0.1150 
     15 C15         2.6619  -21.6730  -49.2738 C.3       23 UNK        -0.0205 
     16 S16         3.4451  -22.1108  -47.6845 S.3       23 UNK        -0.2404 
     17 C17         2.1364  -21.7425  -46.4675 C.3       23 UNK        -0.0398 
     18 CA          1.2676  -22.9654  -46.0885 C.3       11 UNK         0.1400 
     19 N           0.6228  -22.7803  -44.7877 N.am      11 UNK        -0.5000 
     20 C          -0.1223  -23.6900  -44.1447 C.2       10 UNK         0.5000 
     21 O          -0.2896  -24.8437  -44.5374 O.2       10 UNK        -0.5000 
     22 CA         -0.8602  -23.2006  -42.8857 C.3       10 UNK         0.1400 
     23 CB          0.0566  -23.2317  -41.6536 C.3       10 UNK        -0.1800 
     24 N          -1.4025  -21.8529  -43.0718 N.am      10 UNK        -0.5000 
     25 C          -2.4054  -21.5594  -43.9123 C.2       9 UNK         0.5000 
     26 O          -3.0295  -22.4091  -44.5482 O.2       9 UNK        -0.5000 
     27 CA         -2.7310  -20.0680  -44.1114 C.3       9 UNK         0.1400 
     28 CB         -3.7060  -19.5739  -43.0329 C.3       9 UNK        -0.1800 
     29 N          -1.5246  -19.2361  -44.1119 N.am      9 UNK        -0.5000 
     30 C          -0.6449  -19.2042  -45.1255 C.2       8 UNK         0.5000 
     31 O          -0.7949  -19.8444  -46.1645 O.2       8 UNK        -0.5000 
     32 CA          0.6385  -18.3661  -44.9400 C.3       8 UNK         0.1400 
     33 CB          0.4303  -16.9382  -45.4631 C.3       8 UNK        -0.1800 
     34 N           1.1040  -18.3138  -43.5522 N.am      8 UNK        -0.5000 
     35 C           1.4604  -19.3879  -42.8301 C.2       7 UNK         0.5000 
     36 O           1.5280  -20.5214  -43.3026 O.2       7 UNK        -0.5000 
     37 CA          1.7261  -19.1929  -41.3221 C.3       7 UNK         0.1400 
     38 CB          3.2358  -19.1208  -41.0515 C.3       7 UNK        -0.1800 
     39 N           1.0846  -18.0086  -40.7479 N.am      7 UNK        -0.5000 
     40 C          -0.2250  -17.7217  -40.7836 C.2       6 UNK         0.5000 
     41 O          -1.0765  -18.4958  -41.2209 O.2       6 UNK        -0.5000 
     42 CA         -0.6496  -16.3121  -40.3192 C.3       6 UNK         0.1400 
     43 CB         -1.3084  -16.3826  -38.9335 C.3       6 UNK        -0.1800 
     44 N           0.4340  -15.3195  -40.2823 N.am      6 UNK        -0.5000 
     45 C           1.2049  -14.9512  -41.3162 C.2       5 UNK         0.5000 
     46 O           1.1147  -15.4441  -42.4446 O.2       5 UNK        -0.5000 
     47 CA          2.3039  -13.9167  -40.9961 C.3       5 UNK         0.1400 
     48 CB          3.4092  -14.5571  -40.1389 C.3       5 UNK        -0.1800 
     49 N           2.9225  -13.3649  -42.2007 N.am      5 UNK        -0.5000 
     50 C           2.3217  -12.5393  -43.0652 C.2       4 UNK         0.5000 
     51 O           1.1989  -12.0598  -42.8809 O.2       4 UNK        -0.5000 
     52 CA          3.1281  -12.2031  -44.3361 C.3       4 UNK         0.1400 
     53 CB          3.5089  -13.4775  -45.1121 C.3       4 UNK        -0.1800 
     54 N           2.3633  -11.3333  -45.2252 N.am      4 UNK        -0.5000 
     55 C           2.3658   -9.9964  -45.1881 C.2       3 UNK         0.5000 
     56 O           3.1020   -9.3342  -44.4529 O.2       3 UNK        -0.5000 
     57 CA          1.3799   -9.2967  -46.1491 C.3       3 UNK         0.1400 
     58 CB          1.4815   -7.7571  -46.1122 C.3       3 UNK        -0.1800 
     59 N           1.4850   -9.7908  -47.5274 N.am      3 UNK        -0.5000 
     60 C           2.5590   -9.7607  -48.3308 C.2       2 UNK         0.5000 
     61 O           3.6425   -9.2677  -48.0124 O.2       2 UNK        -0.5000 
     62 CA          2.3879  -10.4261  -49.7155 C.3       2 UNK         0.1400 
     63 CB          3.6513  -10.3224  -50.5892 C.3       2 UNK        -0.1800 
     64 N           2.0331  -11.8388  -49.5752 N.am      2 UNK        -0.5000 
     65 C           0.8099  -12.3077  -49.2995 C.2       1 UNK         0.5000 
     66 O          -0.1890  -11.5830  -49.2709 O.2       1 UNK        -0.5000 
     67 C           0.2366  -23.2983  -47.1867 C.2       11 UNK         0.5000 
     68 O           0.4281  -24.2711  -47.9143 O.2       11 UNK        -0.5000 
     69 N          -0.8582  -22.5243  -47.2536 N.am      12 UNK        -0.5000 
     70 CA         -1.9790  -22.7394  -48.1717 C.3       12 UNK         0.1400 
     71 CB         -3.0160  -21.6206  -48.0034 C.3       12 UNK        -0.1800 
     72 C          -2.6523  -24.1079  -47.9875 C.2       12 UNK         0.5000 
     73 O          -2.9293  -24.7805  -48.9801 O.2       12 UNK        -0.5000 
     74 N          -2.8743  -24.5037  -46.7265 N.am      13 UNK        -0.5000 
     75 CA         -3.4307  -25.8033  -46.3539 C.3       13 UNK         0.1400 
     76 CB         -3.7570  -25.8130  -44.8528 C.3       13 UNK        -0.1800 
     77 C          -2.5029  -26.9745  -46.7262 C.2       13 UNK         0.5000 
     78 O          -2.9798  -27.9729  -47.2660 O.2       13 UNK        -0.5000 
     79 N          -1.1976  -26.8211  -46.4616 N.am      14 UNK        -0.5000 
     80 CA         -0.1584  -27.7990  -46.7899 C.3       14 UNK         0.1400 
     81 CB          1.1572  -27.3977  -46.1054 C.3       14 UNK        -0.1800 
     82 C           0.0468  -27.9704  -48.3064 C.2       14 UNK         0.5000 
     83 O           0.1892  -29.0995  -48.7773 O.2       14 UNK        -0.5000 
     84 N           0.0401  -26.8518  -49.0432 N.am      15 UNK        -0.5000 
     85 CA          0.1571  -26.8111  -50.5019 C.3       15 UNK         0.1400 
     86 CB          0.5304  -25.3818  -50.9287 C.3       15 UNK        -0.1800 
     87 C          -1.1234  -27.2598  -51.2327 C.2       15 UNK         0.5000 
     88 O          -1.0472  -27.6027  -52.4132 O.2       15 UNK        -0.5000 
     89 N          -2.2669  -27.2184  -50.5317 N.am      16 UNK        -0.5000 
     90 CA         -3.6325  -27.3972  -51.0351 C.3       16 UNK         0.1400 
     91 CB         -3.8627  -28.8402  -51.5299 C.3       16 UNK        -0.1800 
     92 C          -3.9900  -26.3188  -52.0801 C.2       16 UNK         0.5000 
     93 O          -4.5103  -26.6302  -53.1537 O.2       16 UNK        -0.5000 
     94 N          -3.6566  -25.0646  -51.7490 N.am      17 UNK        -0.5000 
     95 CA         -3.8506  -23.8880  -52.5919 C.3       17 UNK         0.1400 
     96 CB         -3.0672  -22.7110  -51.9912 C.3       17 UNK        -0.1800 
     97 C          -5.3373  -23.5220  -52.7466 C.2       17 UNK         0.5000 
     98 O          -6.1172  -23.6818  -51.8038 O.2       17 UNK        -0.5000 
     99 N          -5.6909  -23.0123  -53.9313 N.am      18 UNK        -0.5000 
    100 CA        -7.0195  -22.4932  -54.2485 C.3       18 UNK         0.1400 
    101 CB        -7.1535  -22.3998  -55.7772 C.3       18 UNK        -0.1800 
    102 C         -7.2479  -21.1096  -53.6159 C.2       18 UNK         0.5000 
    103 O         -6.2849  -20.3818  -53.3615 O.2       18 UNK        -0.5000 
    104 N         -8.5229  -20.7333  -53.4538 N.am      19 UNK        -0.5000 
    105 CA        -8.9528  -19.4264  -52.9403 C.3       19 UNK         0.1400 
    106 CB       -10.4775  -19.4404  -52.7519 C.3       19 UNK        -0.1800 
    107 C         -8.5302  -18.2357  -53.8274 C.2       19 UNK         0.5000 
    108 O         -8.3942  -17.1197  -53.3268 O.2       19 UNK        -0.5000 
    109 N         -8.3170  -18.4969  -55.1246 N.am      20 UNK        -0.5000 
    110 CA        -7.7819  -17.5377  -56.0902 C.3       20 UNK         0.1400 
    111 CB        -8.1139  -18.0269  -57.5085 C.3       20 UNK        -0.1800 
    112 C         -6.2626  -17.3179  -55.9407 C.2       20 UNK         0.5000 
    113 O         -5.7704  -16.2583  -56.3303 O.2       20 UNK        -0.5000 
    114 N         -5.5475  -18.3141  -55.3988 N.am      21 UNK        -0.5000 
    115 CA        -4.1055  -18.2656  -55.1620 C.3       21 UNK         0.1400 
    116 CB        -3.5089  -19.6736  -55.3295 C.3       21 UNK        -0.1800 
    117 C         -3.7971  -17.7001  -53.7672 C.2       21 UNK         0.5000 
    118 O         -2.9572  -16.8072  -53.6473 O.2       21 UNK        -0.5000 
    119 N         -4.4945  -18.2186  -52.7509 N.am      22 UNK        -0.5000 
    120 CA        -4.3741  -17.8216  -51.3458 C.3       22 UNK         0.1400 
    121 C         -5.7628  -17.3661  -50.8361 C.2       22 UNK         0.5000 
    122 N         -6.0191  -16.0660  -50.7881 N.am      22 UNK        -0.7600 
    123 O         -6.6034  -18.1800  -50.4636 O.2       22 UNK        -0.5000 
    124 C124       -3.7935  -18.9656  -50.4758 C.3       23 UNK        -0.0398 
    125 S125       -2.0468  -19.3272  -50.8604 S.3       23 UNK        -0.2404 
    126 C126       -1.2109  -18.4129  -49.5232 C.3       23 UNK        -0.0205 
    127 H127       -2.5101  -13.1425  -46.0031 H         1 UNK         0.0600 
    128 H128       -1.5798  -14.2901  -45.0361 H         1 UNK         0.0600 
    129 H129       -2.3568  -14.8248  -46.5285 H         1 UNK         0.0600 
    130 H130       -1.2069  -14.6135  -48.4672 H         1 UNK         0.3000 
    131 H131        0.3942  -14.2930  -49.9129 H         1 UNK         0.0600 
    132 H132        1.7796  -15.3162  -47.8199 H         1 UNK         0.0800 
    133 H133        2.5782  -13.7880  -47.8401 H         1 UNK         0.0800 
    134 H134        3.9141  -16.6140  -48.1986 H         1 UNK         0.0800 
    135 H135        4.4756  -16.9835  -49.8079 H         1 UNK         0.0800 
    136 H136        0.7944  -16.6202  -49.4892 H         1 UNK         0.1150 
    137 H137        0.0760  -20.8213  -49.4117 H         1 UNK         0.1150 
    138 H138        4.0938  -19.3534  -49.2028 H         1 UNK         0.1150 
    139 H139        1.8597  -22.3811  -49.4858 H         1 UNK         0.0800 
    140 H140        3.3948  -21.8064  -50.0705 H         1 UNK         0.0800 
    141 H141        1.5256  -20.9049  -46.7998 H         1 UNK         0.0800 
    142 H142        2.6578  -21.3814  -45.5803 H         1 UNK         0.0800 
    143 H143        1.9247  -23.8312  -45.9826 H         1 UNK         0.0600 
    144 H144        0.7611  -21.8775  -44.3414 H         1 UNK         0.3000 
    145 H145       -1.6950  -23.8805  -42.7023 H         1 UNK         0.0600 
    146 H146        0.4239  -24.2423  -41.4710 H         1 UNK         0.0600 
    147 H147        0.9266  -22.5867  -41.7740 H         1 UNK         0.0600 
    148 H148       -0.4761  -22.9130  -40.7576 H         1 UNK         0.0600 
    149 H149       -0.9259  -21.0962  -42.6038 H         1 UNK         0.3000 
    150 H150       -3.2221  -19.9597  -45.0810 H         1 UNK         0.0600 
    151 H151       -4.6443  -20.1282  -43.0762 H         1 UNK         0.0600 
    152 H152       -3.9444  -18.5189  -43.1684 H         1 UNK         0.0600 
    153 H153       -3.2996  -19.7006  -42.0292 H         1 UNK         0.0600 
    154 H154       -1.3198  -18.7334  -43.2553 H         1 UNK         0.3000 
    155 H155        1.4252  -18.8312  -45.5367 H         1 UNK         0.0600 
    156 H156       -0.3200  -16.4058  -44.8782 H         1 UNK         0.0600 
    157 H157        1.3553  -16.3630  -45.4204 H         1 UNK         0.0600 
    158 H158        0.0983  -16.9452  -46.5023 H         1 UNK         0.0600 
    159 H159        1.0856  -17.4036  -43.1027 H         1 UNK         0.3000 
    160 H160        1.3239  -20.0672  -40.8067 H         1 UNK         0.0600 
    161 H161        3.6863  -18.2447  -41.5200 H         1 UNK         0.0600 
    162 H162        3.7460  -20.0019  -41.4433 H         1 UNK         0.0600 
    163 H163        3.4442  -19.0755  -39.9824 H         1 UNK         0.0600 
    164 H164        1.7030  -17.3045  -40.3750 H         1 UNK         0.3000 
    165 H165       -1.3935  -15.9545  -41.0339 H         1 UNK         0.0600 
    166 H166       -1.7082  -15.4130  -38.6358 H         1 UNK         0.0600 
    167 H167       -2.1400  -17.0888  -38.9303 H         1 UNK         0.0600 
    168 H168       -0.6010  -16.7050  -38.1684 H         1 UNK         0.0600 
    169 H169        0.5911  -14.8786  -39.3872 H         1 UNK         0.3000 
    170 H170        1.8502  -13.0975  -40.4344 H         1 UNK         0.0600 
    171 H171        3.0144  -14.9321  -39.1940 H         1 UNK         0.0600 
    172 H172        3.8823  -15.3954  -40.6525 H         1 UNK         0.0600 
    173 H173        4.1869  -13.8332  -39.8941 H         1 UNK         0.0600 
    174 H174        3.8328  -13.7308  -42.4364 H         1 UNK         0.3000 
    175 H175        4.0469  -11.6990  -44.0297 H         1 UNK         0.0600 
    176 H176        2.6282  -14.0652  -45.3740 H         1 UNK         0.0600 
    177 H177        4.0399  -13.2317  -46.0317 H         1 UNK         0.0600 
    178 H178        4.1682  -14.1206  -44.5289 H         1 UNK         0.0600 
    179 H179        1.6451  -11.8039  -45.7729 H         1 UNK         0.3000 
    180 H180        0.3804   -9.5662  -45.8044 H         1 UNK         0.0600 
    181 H181        2.4693   -7.4067  -46.4129 H         1 UNK         0.0600 
    182 H182        1.2930   -7.3784  -45.1070 H         1 UNK         0.0600 
    183 H183        0.7472   -7.2979  -46.7739 H         1 UNK         0.0600 
    184 H184        0.6618  -10.2627  -47.8864 H         1 UNK         0.3000 
    185 H185        1.5832   -9.9002  -50.2336 H         1 UNK         0.0600 
    186 H186        3.9356   -9.2808  -50.7440 H         1 UNK         0.0600 
    187 H187        4.5010  -10.8322  -50.1333 H         1 UNK         0.0600 
    188 H188        3.4863  -10.7617  -51.5732 H         1 UNK         0.0600 
    189 H189        2.8043  -12.4920  -49.5927 H         1 UNK         0.3000 
    190 H190       -0.9161  -21.7019  -46.6595 H         1 UNK         0.3000 
    191 H191       -1.5838  -22.6931  -49.1882 H         1 UNK         0.0600 
    192 H192       -2.5630  -20.6430  -48.1389 H         1 UNK         0.0600 
    193 H193       -3.4763  -21.6353  -47.0165 H         1 UNK         0.0600 
    194 H194       -3.8175  -21.7143  -48.7365 H         1 UNK         0.0600 
    195 H195       -2.6571  -23.8642  -45.9694 H         1 UNK         0.3000 
    196 H196       -4.3655  -25.9336  -46.9030 H         1 UNK         0.0600 
    197 H197       -4.2065  -26.7617  -44.5574 H         1 UNK         0.0600 
    198 H198       -4.4649  -25.0237  -44.5990 H         1 UNK         0.0600 
    199 H199       -2.8648  -25.6685  -44.2436 H         1 UNK         0.0600 
    200 H200       -0.8927  -25.9835  -45.9730 H         1 UNK         0.3000 
    201 H201       -0.4687  -28.7649  -46.3861 H         1 UNK         0.0600 
    202 H202        1.0408  -27.3579  -45.0222 H         1 UNK         0.0600 
    203 H203        1.5029  -26.4189  -46.4396 H         1 UNK         0.0600 
    204 H204        1.9471  -28.1180  -46.3220 H         1 UNK         0.0600 
    205 H205       -0.0135  -25.9519  -48.5698 H         1 UNK         0.3000 
    206 H206        0.9642  -27.4815  -50.8041 H         1 UNK         0.0600 
    207 H207        1.4657  -25.0634  -50.4677 H         1 UNK         0.0600 
    208 H208        0.6613  -25.3154  -52.0094 H         1 UNK         0.0600 
    209 H209       -0.2425  -24.6653  -50.6467 H         1 UNK         0.0600 
    210 H210       -2.2069  -26.8752  -49.5817 H         1 UNK         0.3000 
    211 H211       -4.2945  -27.2314  -50.1838 H         1 UNK         0.0600 
    212 H212       -3.2740  -29.0671  -52.4190 H         1 UNK         0.0600 
    213 H213       -4.9110  -29.0004  -51.7842 H         1 UNK         0.0600 
    214 H214       -3.6008  -29.5656  -50.7596 H         1 UNK         0.0600 
    215 H215       -3.2947  -24.9019  -50.8126 H         1 UNK         0.3000 
    216 H216       -3.4373  -24.1109  -53.5778 H         1 UNK         0.0600 
    217 H217       -3.1530  -21.8219  -52.6172 H         1 UNK         0.0600 
    218 H218       -2.0061  -22.9436  -51.8998 H         1 UNK         0.0600 
    219 H219       -3.4399  -22.4480  -51.0015 H         1 UNK         0.0600 
    220 H220       -4.9831  -22.8832  -54.6387 H         1 UNK         0.3000 
    221 H221       -7.7724  -23.1862  -53.8668 H         1 UNK         0.0600 
    222 H222       -6.4289  -21.7051  -56.2048 H         1 UNK         0.0600 
    223 H223       -7.0011  -23.3723  -56.2457 H         1 UNK         0.0600 
    224 H224       -8.1476  -22.0566  -56.0663 H         1 UNK         0.0600 
    225 H225       -9.2591  -21.3793  -53.7006 H         1 UNK         0.3000 
    226 H226       -8.4903  -19.2861  -51.9621 H         1 UNK         0.0600 
    227 H227      -10.7827  -20.2242  -52.0584 H         1 UNK         0.0600 
    228 H228      -10.8289  -18.4923  -52.3426 H         1 UNK         0.0600 
    229 H229      -10.9984  -19.6037  -53.6962 H         1 UNK         0.0600 
    230 H230       -8.4830  -19.4345  -55.4579 H         1 UNK         0.3000 
    231 H231       -8.2739  -16.5746  -55.9375 H         1 UNK         0.0600 
    232 H232       -7.7527  -17.3226  -58.2591 H         1 UNK         0.0600 
    233 H233       -9.1902  -18.1265  -57.6498 H         1 UNK         0.0600 
    234 H234       -7.6557  -18.9943  -57.7188 H         1 UNK         0.0600 
    235 H235       -6.0337  -19.1190  -55.0263 H         1 UNK         0.3000 
    236 H236       -3.6333  -17.6163  -55.9025 H         1 UNK         0.0600 
    237 H237       -3.6896  -20.0602  -56.3325 H         1 UNK         0.0600 
    238 H238       -2.4293  -19.6580  -55.1758 H         1 UNK         0.0600 
    239 H239       -3.9285  -20.3838  -54.6171 H         1 UNK         0.0600 
    240 H240       -5.1806  -18.9457  -52.9408 H         1 UNK         0.3000 
    241 H241       -3.7000  -16.9679  -51.2521 H         1 UNK         0.0600 
    242 H242       -5.3483  -15.3830  -51.1039 H         1 UNK         0.3800 
    243 H243       -6.9231  -15.7597  -50.4644 H         1 UNK         0.3800 
    244 H244       -3.8804  -18.7247  -49.4150 H         1 UNK         0.0800 
    245 H245       -4.3697  -19.8811  -50.6220 H         1 UNK         0.0800 
    246 H246       -1.4027  -17.3487  -49.6671 H         1 UNK         0.0800 
    247 H247       -1.6395  -18.6710  -48.5557 H         1 UNK         0.0800 
@<TRIPOS>BOND
     1    1    2 1    
     2    1  127 1    
     3    1  128 1    
     4    1  129 1    
     5    2    3 2    
     6    2    4 am   BACKBONE|DICT|INTERRES
     7    4    5 1    
     8    4  130 1    
     9    5    6 1    
    10    5   65 1    
    11    5  131 1    
    12    6    7 1    
    13    6  132 1    
    14    6  133 1    
    15    7    8 1    
    16    8    9 1    
    17    8  134 1    
    18    8  135 1    
    19    9   10 ar   
    20    9   14 ar   
    21   10   11 ar   
    22   10  136 1    
    23   11   12 ar   
    24   11  126 1    
    25   12   13 ar   
    26   12  137 1    
    27   13   14 ar   
    28   13   15 1    
    29   14  138 1    
    30   15   16 1    
    31   15  139 1    
    32   15  140 1    
    33   16   17 1    
    34   17   18 1    
    35   17  141 1    
    36   17  142 1    
    37   18   19 1    
    38   18   67 1    
    39   18  143 1    
    40   19   20 am   BACKBONE|DICT|INTERRES
    41   19  144 1    
    42   20   21 2    
    43   20   22 1    
    44   22   23 1    
    45   22   24 1    
    46   22  145 1    
    47   23  146 1    
    48   23  147 1    
    49   23  148 1    
    50   24   25 am   BACKBONE|DICT|INTERRES
    51   24  149 1    
    52   25   26 2    
    53   25   27 1    
    54   27   28 1    
    55   27   29 1    
    56   27  150 1    
    57   28  151 1    
    58   28  152 1    
    59   28  153 1    
    60   29   30 am   BACKBONE|DICT|INTERRES
    61   29  154 1    
    62   30   31 2    
    63   30   32 1    
    64   32   33 1    
    65   32   34 1    
    66   32  155 1    
    67   33  156 1    
    68   33  157 1    
    69   33  158 1    
    70   34   35 am   BACKBONE|DICT|INTERRES
    71   34  159 1    
    72   35   36 2    
    73   35   37 1    
    74   37   38 1    
    75   37   39 1    
    76   37  160 1    
    77   38  161 1    
    78   38  162 1    
    79   38  163 1    
    80   39   40 am   BACKBONE|DICT|INTERRES
    81   39  164 1    
    82   40   41 2    
    83   40   42 1    
    84   42   43 1    
    85   42   44 1    
    86   42  165 1    
    87   43  166 1    
    88   43  167 1    
    89   43  168 1    
    90   44   45 am   BACKBONE|DICT|INTERRES
    91   44  169 1    
    92   45   46 2    
    93   45   47 1    
    94   47   48 1    
    95   47   49 1    
    96   47  170 1    
    97   48  171 1    
    98   48  172 1    
    99   48  173 1    
   100   49   50 am   BACKBONE|DICT|INTERRES
   101   49  174 1    
   102   50   51 2    
   103   50   52 1    
   104   52   53 1    
   105   52   54 1    
   106   52  175 1    
   107   53  176 1    
   108   53  177 1    
   109   53  178 1    
   110   54   55 am   BACKBONE|DICT|INTERRES
   111   54  179 1    
   112   55   56 2    
   113   55   57 1    
   114   57   58 1    
   115   57   59 1    
   116   57  180 1    
   117   58  181 1    
   118   58  182 1    
   119   58  183 1    
   120   59   60 am   BACKBONE|DICT|INTERRES
   121   59  184 1    
   122   60   61 2    
   123   60   62 1    
   124   62   63 1    
   125   62   64 1    
   126   62  185 1    
   127   63  186 1    
   128   63  187 1    
   129   63  188 1    
   130   64   65 am   BACKBONE|DICT|INTERRES
   131   64  189 1    
   132   65   66 2    
   133   67   68 2    
   134   67   69 am   BACKBONE|DICT|INTERRES
   135   69   70 1    
   136   69  190 1    
   137   70   71 1    
   138   70   72 1    
   139   70  191 1    
   140   71  192 1    
   141   71  193 1    
   142   71  194 1    
   143   72   73 2    
   144   72   74 am   BACKBONE|DICT|INTERRES
   145   74   75 1    
   146   74  195 1    
   147   75   76 1    
   148   75   77 1    
   149   75  196 1    
   150   76  197 1    
   151   76  198 1    
   152   76  199 1    
   153   77   78 2    
   154   77   79 am   BACKBONE|DICT|INTERRES
   155   79   80 1    
   156   79  200 1    
   157   80   81 1    
   158   80   82 1    
   159   80  201 1    
   160   81  202 1    
   161   81  203 1    
   162   81  204 1    
   163   82   83 2    
   164   82   84 am   BACKBONE|DICT|INTERRES
   165   84   85 1    
   166   84  205 1    
   167   85   86 1    
   168   85   87 1    
   169   85  206 1    
   170   86  207 1    
   171   86  208 1    
   172   86  209 1    
   173   87   88 2    
   174   87   89 am   BACKBONE|DICT|INTERRES
   175   89   90 1    
   176   89  210 1    
   177   90   91 1    
   178   90   92 1    
   179   90  211 1    
   180   91  212 1    
   181   91  213 1    
   182   91  214 1    
   183   92   93 2    
   184   92   94 am   BACKBONE|DICT|INTERRES
   185   94   95 1    
   186   94  215 1    
   187   95   96 1    
   188   95   97 1    
   189   95  216 1    
   190   96  217 1    
   191   96  218 1    
   192   96  219 1    
   193   97   98 2    
   194   97   99 am   BACKBONE|DICT|INTERRES
   195   99  100 1    
   196   99  220 1    
   197  100  101 1    
   198  100  102 1    
   199  100  221 1    
   200  101  222 1    
   201  101  223 1    
   202  101  224 1    
   203  102  103 2    
   204  102  104 am   BACKBONE|DICT|INTERRES
   205  104  105 1    
   206  104  225 1    
   207  105  106 1    
   208  105  107 1    
   209  105  226 1    
   210  106  227 1    
   211  106  228 1    
   212  106  229 1    
   213  107  108 2    
   214  107  109 am   BACKBONE|DICT|INTERRES
   215  109  110 1    
   216  109  230 1    
   217  110  111 1    
   218  110  112 1    
   219  110  231 1    
   220  111  232 1    
   221  111  233 1    
   222  111  234 1    
   223  112  113 2    
   224  112  114 am   BACKBONE|DICT|INTERRES
   225  114  115 1    
   226  114  235 1    
   227  115  116 1    
   228  115  117 1    
   229  115  236 1    
   230  116  237 1    
   231  116  238 1    
   232  116  239 1    
   233  117  118 2    
   234  117  119 am   BACKBONE|DICT|INTERRES
   235  119  120 1    
   236  119  240 1    
   237  120  121 1    
   238  120  124 1    
   239  120  241 1    
   240  121  122 am   BACKBONE|DICT|INTERRES
   241  121  123 2    
   242  122  242 1    
   243  122  243 1    
   244  124  125 1    
   245  124  244 1    
   246  124  245 1    
   247  125  126 1    
   248  126  246 1    
   249  126  247 1    
@<TRIPOS>SUBSTRUCTURE
     1 UNK         1 GROUP             0       ****    0 ROOT    
