@<TRIPOS>MOLECULE
3R540
247   249    1
SMALL
USER_CHARGES


@<TRIPOS>ATOM
      1 CA          0.1917  -12.9414  -53.0396 C.3       0 UNK        -0.1800 
      2 C          -0.7198  -13.4957  -51.9538 C.2       0 UNK         0.5000 
      3 O          -1.8798  -13.8008  -52.2319 O.2       0 UNK        -0.5000 
      4 N          -0.1909  -13.6325  -50.7306 N.am      1 UNK        -0.5000 
      5 CA         -0.8910  -14.0723  -49.5137 C.3       1 UNK         0.1400 
      6 C6         -1.4204  -15.5350  -49.5714 C.3       23 UNK        -0.0398 
      7 S7         -0.1324  -16.7146  -50.1069 S.3       23 UNK        -0.2404 
      8 C8         -0.1033  -17.9398  -48.7662 C.3       23 UNK        -0.0205 
      9 C9          0.6812  -19.1663  -49.2059 C.ar      23 UNK        -0.0193 
     10 C10         0.0581  -20.1354  -49.9960 C.ar      23 UNK        -0.1150 
     11 C11         0.7770  -21.2290  -50.4821 C.ar      23 UNK        -0.0193 
     12 C12         2.1252  -21.3700  -50.1437 C.ar      23 UNK        -0.1150 
     13 C13         2.7603  -20.4153  -49.3427 C.ar      23 UNK        -0.0193 
     14 C14         2.0324  -19.3151  -48.8742 C.ar      23 UNK        -0.1150 
     15 C15         4.2472  -20.5478  -49.0375 C.3       23 UNK        -0.0205 
     16 S16         4.5797  -21.1095  -47.3386 S.3       23 UNK        -0.2404 
     17 C17         3.7618  -22.7405  -47.3163 C.3       23 UNK        -0.0398 
     18 CA          4.1431  -23.5790  -46.0692 C.3       11 UNK         0.1400 
     19 N           3.6932  -22.9387  -44.8264 N.am      11 UNK        -0.5000 
     20 C           4.1507  -23.2036  -43.5953 C.2       10 UNK         0.5000 
     21 O           5.0773  -23.9800  -43.3625 O.2       10 UNK        -0.5000 
     22 CA          3.4030  -22.5337  -42.4242 C.3       10 UNK         0.1400 
     23 CB          3.9433  -21.1197  -42.1642 C.3       10 UNK        -0.1800 
     24 N           1.9522  -22.4798  -42.6379 N.am      10 UNK        -0.5000 
     25 C           1.1541  -23.5566  -42.7008 C.2       9 UNK         0.5000 
     26 O           1.5522  -24.7092  -42.5384 O.2       9 UNK        -0.5000 
     27 CA         -0.3221  -23.3198  -43.0631 C.3       9 UNK         0.1400 
     28 CB         -1.1600  -23.0096  -41.8141 C.3       9 UNK        -0.1800 
     29 N          -0.4717  -22.2454  -44.0428 N.am      9 UNK        -0.5000 
     30 C          -0.1903  -22.3780  -45.3461 C.2       8 UNK         0.5000 
     31 O           0.1608  -23.4409  -45.8601 O.2       8 UNK        -0.5000 
     32 CA         -0.2990  -21.1143  -46.2183 C.3       8 UNK         0.1400 
     33 CB         -1.7354  -20.9560  -46.7300 C.3       8 UNK        -0.1800 
     34 N           0.1219  -19.8926  -45.5250 N.am      8 UNK        -0.5000 
     35 C           1.3662  -19.6988  -45.0591 C.2       7 UNK         0.5000 
     36 O           2.2686  -20.5189  -45.1948 O.2       7 UNK        -0.5000 
     37 CA          1.6426  -18.4304  -44.2301 C.3       7 UNK         0.1400 
     38 CB          2.1141  -17.2869  -45.1393 C.3       7 UNK        -0.1800 
     39 N           0.4982  -17.9913  -43.4317 N.am      7 UNK        -0.5000 
     40 C          -0.1603  -18.7527  -42.5434 C.2       6 UNK         0.5000 
     41 O           0.2047  -19.8862  -42.2284 O.2       6 UNK        -0.5000 
     42 CA         -1.4676  -18.1950  -41.9405 C.3       6 UNK         0.1400 
     43 CB         -1.2476  -17.7845  -40.4770 C.3       6 UNK        -0.1800 
     44 N          -2.0434  -17.0602  -42.6674 N.am      6 UNK        -0.5000 
     45 C          -2.4173  -17.0461  -43.9556 C.2       5 UNK         0.5000 
     46 O          -2.3692  -18.0310  -44.6940 O.2       5 UNK        -0.5000 
     47 CA         -2.8469  -15.6799  -44.5293 C.3       5 UNK         0.1400 
     48 CB         -4.3680  -15.5038  -44.4046 C.3       5 UNK        -0.1800 
     49 N          -2.1953  -14.5159  -43.9127 N.am      5 UNK        -0.5000 
     50 C          -0.8763  -14.3192  -43.7559 C.2       4 UNK         0.5000 
     51 O          -0.0202  -15.1504  -44.0589 O.2       4 UNK        -0.5000 
     52 CA         -0.4668  -12.9513  -43.1666 C.3       4 UNK         0.1400 
     53 CB          1.0608  -12.7322  -43.1441 C.3       4 UNK        -0.1800 
     54 N          -1.1512  -11.8404  -43.8407 N.am      4 UNK        -0.5000 
     55 C          -1.0942  -11.5554  -45.1492 C.2       3 UNK         0.5000 
     56 O          -0.3608  -12.1325  -45.9562 O.2       3 UNK        -0.5000 
     57 CA         -2.0504  -10.4646  -45.6563 C.3       3 UNK         0.1400 
     58 CB         -1.2805   -9.2051  -46.0811 C.3       3 UNK        -0.1800 
     59 N          -2.7764  -10.9963  -46.8033 N.am      3 UNK        -0.5000 
     60 C          -3.7977  -11.8563  -46.7266 C.2       2 UNK         0.5000 
     61 O          -4.3915  -12.1157  -45.6801 O.2       2 UNK        -0.5000 
     62 CA         -4.1869  -12.5819  -48.0285 C.3       2 UNK         0.1400 
     63 CB         -4.7239  -11.5950  -49.0877 C.3       2 UNK        -0.1800 
     64 N          -3.0965  -13.4210  -48.5522 N.am      2 UNK        -0.5000 
     65 C          -1.9379  -13.0107  -49.0957 C.2       1 UNK         0.5000 
     66 O          -1.6557  -11.8188  -49.2541 O.2       1 UNK        -0.5000 
     67 C           3.6217  -25.0294  -46.2174 C.2       11 UNK         0.5000 
     68 O           4.0456  -25.7219  -47.1432 O.2       11 UNK        -0.5000 
     69 N           2.7147  -25.4599  -45.3250 N.am      12 UNK        -0.5000 
     70 CA          2.0546  -26.7695  -45.2659 C.3       12 UNK         0.1400 
     71 CB          3.0788  -27.8982  -45.0254 C.3       12 UNK        -0.1800 
     72 C           1.1190  -27.0491  -46.4613 C.2       12 UNK         0.5000 
     73 O           0.8301  -28.2102  -46.7563 O.2       12 UNK        -0.5000 
     74 N           0.6424  -25.9824  -47.1141 N.am      13 UNK        -0.5000 
     75 CA         -0.3387  -26.0364  -48.1940 C.3       13 UNK         0.1400 
     76 CB         -0.1080  -24.8494  -49.1410 C.3       13 UNK        -0.1800 
     77 C          -1.7721  -26.0072  -47.6407 C.2       13 UNK         0.5000 
     78 O          -2.6450  -26.6835  -48.1861 O.2       13 UNK        -0.5000 
     79 N          -1.9817  -25.2153  -46.5768 N.am      14 UNK        -0.5000 
     80 CA         -3.2305  -24.9107  -45.8634 C.3       14 UNK         0.1400 
     81 CB         -3.8461  -26.1753  -45.2370 C.3       14 UNK        -0.1800 
     82 C          -4.2630  -24.1333  -46.7056 C.2       14 UNK         0.5000 
     83 O          -4.7838  -23.1179  -46.2429 O.2       14 UNK        -0.5000 
     84 N          -4.5192  -24.6044  -47.9298 N.am      15 UNK        -0.5000 
     85 CA         -5.2733  -23.9134  -48.9709 C.3       15 UNK         0.1400 
     86 CB         -5.6210  -24.9279  -50.0718 C.3       15 UNK        -0.1800 
     87 C          -4.4710  -22.7354  -49.5564 C.2       15 UNK         0.5000 
     88 O          -3.2461  -22.6957  -49.4212 O.2       15 UNK        -0.5000 
     89 N          -5.1859  -21.8157  -50.2209 N.am      16 UNK        -0.5000 
     90 CA         -4.6699  -20.5917  -50.8507 C.3       16 UNK         0.1400 
     91 CB         -3.6564  -20.9197  -51.9650 C.3       16 UNK        -0.1800 
     92 C          -4.1477  -19.5540  -49.8324 C.2       16 UNK         0.5000 
     93 O          -3.2482  -18.7728  -50.1372 O.2       16 UNK        -0.5000 
     94 N          -4.7521  -19.5439  -48.6380 N.am      17 UNK        -0.5000 
     95 CA         -4.4849  -18.5786  -47.5728 C.3       17 UNK         0.1400 
     96 CB         -5.1383  -19.1029  -46.2838 C.3       17 UNK        -0.1800 
     97 C          -5.0026  -17.1709  -47.9277 C.2       17 UNK         0.5000 
     98 O          -4.3013  -16.1788  -47.7193 O.2       17 UNK        -0.5000 
     99 N          -6.2238  -17.1226  -48.4789 N.am      18 UNK        -0.5000 
    100 CA        -6.9389  -15.8970  -48.8396 C.3       18 UNK         0.1400 
    101 CB        -8.4235  -16.2342  -49.0462 C.3       18 UNK        -0.1800 
    102 C         -6.3735  -15.1822  -50.0813 C.2       18 UNK         0.5000 
    103 O         -6.6049  -13.9844  -50.2328 O.2       18 UNK        -0.5000 
    104 N         -5.6548  -15.9178  -50.9350 N.am      19 UNK        -0.5000 
    105 CA        -4.9638  -15.4518  -52.1329 C.3       19 UNK         0.1400 
    106 CB        -5.9574  -14.9528  -53.2004 C.3       19 UNK        -0.1800 
    107 C         -4.1595  -16.6366  -52.6787 C.2       19 UNK         0.5000 
    108 O         -4.6658  -17.7607  -52.6379 O.2       19 UNK        -0.5000 
    109 N         -2.9488  -16.3712  -53.1860 N.am      20 UNK        -0.5000 
    110 CA        -1.9813  -17.3463  -53.7066 C.3       20 UNK         0.1400 
    111 CB        -0.6220  -16.6471  -53.8873 C.3       20 UNK        -0.1800 
    112 C         -2.4287  -18.0635  -55.0034 C.2       20 UNK         0.5000 
    113 O         -1.7816  -17.9364  -56.0444 O.2       20 UNK        -0.5000 
    114 N         -3.5321  -18.8118  -54.9188 N.am      21 UNK        -0.5000 
    115 CA        -4.0897  -19.6466  -55.9830 C.3       21 UNK         0.1400 
    116 CB        -5.5591  -19.9420  -55.6430 C.3       21 UNK        -0.1800 
    117 C         -3.3129  -20.9621  -56.2051 C.2       21 UNK         0.5000 
    118 O         -3.5009  -21.6017  -57.2412 O.2       21 UNK        -0.5000 
    119 N         -2.4816  -21.3568  -55.2317 N.am      22 UNK        -0.5000 
    120 CA        -1.6129  -22.5421  -55.2769 C.3       22 UNK         0.1400 
    121 C         -0.4865  -22.4614  -56.3497 C.2       22 UNK         0.5000 
    122 N          0.0225  -23.5997  -56.8031 N.am      22 UNK        -0.7600 
    123 O         -0.0502  -21.3875  -56.7588 O.2       22 UNK        -0.5000 
    124 C124       -1.0556  -22.8933  -53.8705 C.3       23 UNK        -0.0398 
    125 S125       -0.1282  -21.5391  -53.0684 S.3       23 UNK        -0.2404 
    126 C126        0.0996  -22.2323  -51.4005 C.3       23 UNK        -0.0205 
    127 H127        0.2937  -13.6617  -53.8507 H         1 UNK         0.0600 
    128 H128        1.1879  -12.7167  -52.6580 H         1 UNK         0.0600 
    129 H129       -0.2305  -12.0238  -53.4490 H         1 UNK         0.0600 
    130 H130        0.7651  -13.3432  -50.5835 H         1 UNK         0.3000 
    131 H131       -0.1379  -14.0442  -48.7244 H         1 UNK         0.0600 
    132 H132       -1.7859  -15.8443  -48.5917 H         1 UNK         0.0800 
    133 H133       -2.2637  -15.6220  -50.2578 H         1 UNK         0.0800 
    134 H134        0.3340  -17.4980  -47.8710 H         1 UNK         0.0800 
    135 H135       -1.1247  -18.2236  -48.5131 H         1 UNK         0.0800 
    136 H136       -0.9805  -20.0167  -50.2700 H         1 UNK         0.1150 
    137 H137        2.6872  -22.2109  -50.5251 H         1 UNK         0.1150 
    138 H138        2.5247  -18.5653  -48.2713 H         1 UNK         0.1150 
    139 H139        4.7296  -19.5807  -49.1858 H         1 UNK         0.0800 
    140 H140        4.7247  -21.2329  -49.7397 H         1 UNK         0.0800 
    141 H141        2.6812  -22.5916  -47.3599 H         1 UNK         0.0800 
    142 H142        4.0406  -23.2618  -48.2339 H         1 UNK         0.0800 
    143 H143        5.2323  -23.6487  -46.0334 H         1 UNK         0.0600 
    144 H144        3.0026  -22.1983  -44.9355 H         1 UNK         0.3000 
    145 H145        3.5823  -23.1323  -41.5286 H         1 UNK         0.0600 
    146 H146        3.3979  -20.6268  -41.3591 H         1 UNK         0.0600 
    147 H147        3.8760  -20.4918  -43.0518 H         1 UNK         0.0600 
    148 H148        4.9937  -21.1557  -41.8731 H         1 UNK         0.0600 
    149 H149        1.5383  -21.5642  -42.7646 H         1 UNK         0.3000 
    150 H150       -0.7088  -24.2430  -43.5006 H         1 UNK         0.0600 
    151 H151       -1.1138  -23.8351  -41.1027 H         1 UNK         0.0600 
    152 H152       -2.2089  -22.8599  -42.0703 H         1 UNK         0.0600 
    153 H153       -0.8093  -22.1162  -41.2979 H         1 UNK         0.0600 
    154 H154       -0.6844  -21.3265  -43.6776 H         1 UNK         0.3000 
    155 H155        0.3569  -21.2583  -47.0794 H         1 UNK         0.0600 
    156 H156       -2.0977  -21.8848  -47.1710 H         1 UNK         0.0600 
    157 H157       -1.7953  -20.1956  -47.5053 H         1 UNK         0.0600 
    158 H158       -2.4222  -20.6832  -45.9285 H         1 UNK         0.0600 
    159 H159       -0.5916  -19.1982  -45.3360 H         1 UNK         0.3000 
    160 H160        2.4505  -18.6626  -43.5348 H         1 UNK         0.0600 
    161 H161        1.3161  -16.9417  -45.7964 H         1 UNK         0.0600 
    162 H162        2.9486  -17.6018  -45.7675 H         1 UNK         0.0600 
    163 H163        2.4534  -16.4333  -44.5522 H         1 UNK         0.0600 
    164 H164        0.1552  -17.0545  -43.6248 H         1 UNK         0.3000 
    165 H165       -2.1998  -19.0044  -41.9647 H         1 UNK         0.0600 
    166 H166       -2.1825  -17.4786  -40.0071 H         1 UNK         0.0600 
    167 H167       -0.8496  -18.6154  -39.8926 H         1 UNK         0.0600 
    168 H168       -0.5417  -16.9571  -40.3942 H         1 UNK         0.0600 
    169 H169       -2.1059  -16.1923  -42.1564 H         1 UNK         0.3000 
    170 H170       -2.5827  -15.6760  -45.5885 H         1 UNK         0.0600 
    171 H171       -4.9055  -16.3321  -44.8612 H         1 UNK         0.0600 
    172 H172       -4.6829  -15.4437  -43.3622 H         1 UNK         0.0600 
    173 H173       -4.7038  -14.5997  -44.9101 H         1 UNK         0.0600 
    174 H174       -2.8139  -13.7619  -43.6506 H         1 UNK         0.3000 
    175 H175       -0.8125  -12.9484  -42.1319 H         1 UNK         0.0600 
    176 H176        1.4951  -12.7768  -44.1432 H         1 UNK         0.0600 
    177 H177        1.3139  -11.7646  -42.7112 H         1 UNK         0.0600 
    178 H178        1.5541  -13.4962  -42.5420 H         1 UNK         0.0600 
    179 H179       -1.7863  -11.3074  -43.2625 H         1 UNK         0.3000 
    180 H180       -2.7589  -10.1939  -44.8705 H         1 UNK         0.0600 
    181 H181       -1.9589   -8.4334  -46.4451 H         1 UNK         0.0600 
    182 H182       -0.5616   -9.4196  -46.8732 H         1 UNK         0.0600 
    183 H183       -0.7282   -8.7843  -45.2400 H         1 UNK         0.0600 
    184 H184       -2.2957  -10.9486  -47.6980 H         1 UNK         0.3000 
    185 H185       -4.9952  -13.2731  -47.7847 H         1 UNK         0.0600 
    186 H186       -4.8689  -12.0832  -50.0505 H         1 UNK         0.0600 
    187 H187       -5.6864  -11.1868  -48.7784 H         1 UNK         0.0600 
    188 H188       -4.0539  -10.7509  -49.2519 H         1 UNK         0.0600 
    189 H189       -3.2509  -14.4143  -48.4193 H         1 UNK         0.3000 
    190 H190        2.4401  -24.8164  -44.5943 H         1 UNK         0.3000 
    191 H191        1.4045  -26.7332  -44.3911 H         1 UNK         0.0600 
    192 H192        2.5773  -28.8422  -44.8095 H         1 UNK         0.0600 
    193 H193        3.7206  -27.6720  -44.1738 H         1 UNK         0.0600 
    194 H194        3.7170  -28.0606  -45.8942 H         1 UNK         0.0600 
    195 H195        0.8716  -25.0602  -46.7590 H         1 UNK         0.3000 
    196 H196       -0.2098  -26.9583  -48.7651 H         1 UNK         0.0600 
    197 H197       -0.2368  -23.8919  -48.6339 H         1 UNK         0.0600 
    198 H198       -0.8132  -24.8753  -49.9727 H         1 UNK         0.0600 
    199 H199        0.8971  -24.8719  -49.5624 H         1 UNK         0.0600 
    200 H200       -1.1801  -24.6757  -46.2618 H         1 UNK         0.3000 
    201 H201       -2.9417  -24.2512  -45.0433 H         1 UNK         0.0600 
    202 H202       -4.1761  -26.8884  -45.9928 H         1 UNK         0.0600 
    203 H203       -4.7148  -25.9224  -44.6282 H         1 UNK         0.0600 
    204 H204       -3.1304  -26.6810  -44.5888 H         1 UNK         0.0600 
    205 H205       -3.9951  -25.4258  -48.2195 H         1 UNK         0.3000 
    206 H206       -6.1974  -23.5279  -48.5353 H         1 UNK         0.0600 
    207 H207       -6.2025  -25.7590  -49.6722 H         1 UNK         0.0600 
    208 H208       -6.2156  -24.4671  -50.8615 H         1 UNK         0.0600 
    209 H209       -4.7230  -25.3400  -50.5345 H         1 UNK         0.0600 
    210 H210       -6.1846  -21.9510  -50.2969 H         1 UNK         0.3000 
    211 H211       -5.5264  -20.1171  -51.3316 H         1 UNK         0.0600 
    212 H212       -2.7596  -21.3872  -51.5678 H         1 UNK         0.0600 
    213 H213       -3.3337  -20.0187  -52.4804 H         1 UNK         0.0600 
    214 H214       -4.0879  -21.5893  -52.7086 H         1 UNK         0.0600 
    215 H215       -5.4589  -20.2398  -48.4539 H         1 UNK         0.3000 
    216 H216       -3.4074  -18.5102  -47.4157 H         1 UNK         0.0600 
    217 H217       -4.7873  -20.1071  -46.0451 H         1 UNK         0.0600 
    218 H218       -6.2252  -19.1429  -46.3642 H         1 UNK         0.0600 
    219 H219       -4.8967  -18.4741  -45.4301 H         1 UNK         0.0600 
    220 H220       -6.7178  -17.9900  -48.6262 H         1 UNK         0.3000 
    221 H221       -6.8615  -15.2012  -48.0013 H         1 UNK         0.0600 
    222 H222       -8.9985  -15.3384  -49.2850 H         1 UNK         0.0600 
    223 H223       -8.5653  -16.9422  -49.8637 H         1 UNK         0.0600 
    224 H224       -8.8596  -16.6670  -48.1457 H         1 UNK         0.0600 
    225 H225       -5.5176  -16.9017  -50.7430 H         1 UNK         0.3000 
    226 H226       -4.2885  -14.6438  -51.8496 H         1 UNK         0.0600 
    227 H227       -6.4958  -14.0654  -52.8695 H         1 UNK         0.0600 
    228 H228       -5.4365  -14.6840  -54.1202 H         1 UNK         0.0600 
    229 H229       -6.6929  -15.7182  -53.4510 H         1 UNK         0.0600 
    230 H230       -2.6149  -15.4136  -53.1281 H         1 UNK         0.3000 
    231 H231       -1.8502  -18.1172  -52.9440 H         1 UNK         0.0600 
    232 H232        0.1384  -17.3498  -54.2307 H         1 UNK         0.0600 
    233 H233       -0.2631  -16.2267  -52.9503 H         1 UNK         0.0600 
    234 H234       -0.6805  -15.8389  -54.6170 H         1 UNK         0.0600 
    235 H235       -4.0552  -18.7637  -54.0471 H         1 UNK         0.3000 
    236 H236       -4.0593  -19.0841  -56.9184 H         1 UNK         0.0600 
    237 H237       -5.6510  -20.4962  -54.7079 H         1 UNK         0.0600 
    238 H238       -6.1335  -19.0207  -55.5437 H         1 UNK         0.0600 
    239 H239       -6.0317  -20.5363  -56.4262 H         1 UNK         0.0600 
    240 H240       -2.3543  -20.7510  -54.4359 H         1 UNK         0.3000 
    241 H241       -2.2555  -23.3721  -55.5774 H         1 UNK         0.0600 
    242 H242        0.7593  -23.5646  -57.4907 H         1 UNK         0.3800 
    243 H243       -0.3139  -24.4967  -56.4879 H         1 UNK         0.3800 
    244 H244       -0.4153  -23.7757  -53.9178 H         1 UNK         0.0800 
    245 H245       -1.8854  -23.1691  -53.2183 H         1 UNK         0.0800 
    246 H246        0.6906  -23.1462  -51.4731 H         1 UNK         0.0800 
    247 H247       -0.8630  -22.5177  -50.9752 H         1 UNK         0.0800 
@<TRIPOS>BOND
     1    1    2 1    
     2    1  127 1    
     3    1  128 1    
     4    1  129 1    
     5    2    3 2    
     6    2    4 am   BACKBONE|DICT|INTERRES
     7    4    5 1    
     8    4  130 1    
     9    5    6 1    
    10    5   65 1    
    11    5  131 1    
    12    6    7 1    
    13    6  132 1    
    14    6  133 1    
    15    7    8 1    
    16    8    9 1    
    17    8  134 1    
    18    8  135 1    
    19    9   10 ar   
    20    9   14 ar   
    21   10   11 ar   
    22   10  136 1    
    23   11   12 ar   
    24   11  126 1    
    25   12   13 ar   
    26   12  137 1    
    27   13   14 ar   
    28   13   15 1    
    29   14  138 1    
    30   15   16 1    
    31   15  139 1    
    32   15  140 1    
    33   16   17 1    
    34   17   18 1    
    35   17  141 1    
    36   17  142 1    
    37   18   19 1    
    38   18   67 1    
    39   18  143 1    
    40   19   20 am   BACKBONE|DICT|INTERRES
    41   19  144 1    
    42   20   21 2    
    43   20   22 1    
    44   22   23 1    
    45   22   24 1    
    46   22  145 1    
    47   23  146 1    
    48   23  147 1    
    49   23  148 1    
    50   24   25 am   BACKBONE|DICT|INTERRES
    51   24  149 1    
    52   25   26 2    
    53   25   27 1    
    54   27   28 1    
    55   27   29 1    
    56   27  150 1    
    57   28  151 1    
    58   28  152 1    
    59   28  153 1    
    60   29   30 am   BACKBONE|DICT|INTERRES
    61   29  154 1    
    62   30   31 2    
    63   30   32 1    
    64   32   33 1    
    65   32   34 1    
    66   32  155 1    
    67   33  156 1    
    68   33  157 1    
    69   33  158 1    
    70   34   35 am   BACKBONE|DICT|INTERRES
    71   34  159 1    
    72   35   36 2    
    73   35   37 1    
    74   37   38 1    
    75   37   39 1    
    76   37  160 1    
    77   38  161 1    
    78   38  162 1    
    79   38  163 1    
    80   39   40 am   BACKBONE|DICT|INTERRES
    81   39  164 1    
    82   40   41 2    
    83   40   42 1    
    84   42   43 1    
    85   42   44 1    
    86   42  165 1    
    87   43  166 1    
    88   43  167 1    
    89   43  168 1    
    90   44   45 am   BACKBONE|DICT|INTERRES
    91   44  169 1    
    92   45   46 2    
    93   45   47 1    
    94   47   48 1    
    95   47   49 1    
    96   47  170 1    
    97   48  171 1    
    98   48  172 1    
    99   48  173 1    
   100   49   50 am   BACKBONE|DICT|INTERRES
   101   49  174 1    
   102   50   51 2    
   103   50   52 1    
   104   52   53 1    
   105   52   54 1    
   106   52  175 1    
   107   53  176 1    
   108   53  177 1    
   109   53  178 1    
   110   54   55 am   BACKBONE|DICT|INTERRES
   111   54  179 1    
   112   55   56 2    
   113   55   57 1    
   114   57   58 1    
   115   57   59 1    
   116   57  180 1    
   117   58  181 1    
   118   58  182 1    
   119   58  183 1    
   120   59   60 am   BACKBONE|DICT|INTERRES
   121   59  184 1    
   122   60   61 2    
   123   60   62 1    
   124   62   63 1    
   125   62   64 1    
   126   62  185 1    
   127   63  186 1    
   128   63  187 1    
   129   63  188 1    
   130   64   65 am   BACKBONE|DICT|INTERRES
   131   64  189 1    
   132   65   66 2    
   133   67   68 2    
   134   67   69 am   BACKBONE|DICT|INTERRES
   135   69   70 1    
   136   69  190 1    
   137   70   71 1    
   138   70   72 1    
   139   70  191 1    
   140   71  192 1    
   141   71  193 1    
   142   71  194 1    
   143   72   73 2    
   144   72   74 am   BACKBONE|DICT|INTERRES
   145   74   75 1    
   146   74  195 1    
   147   75   76 1    
   148   75   77 1    
   149   75  196 1    
   150   76  197 1    
   151   76  198 1    
   152   76  199 1    
   153   77   78 2    
   154   77   79 am   BACKBONE|DICT|INTERRES
   155   79   80 1    
   156   79  200 1    
   157   80   81 1    
   158   80   82 1    
   159   80  201 1    
   160   81  202 1    
   161   81  203 1    
   162   81  204 1    
   163   82   83 2    
   164   82   84 am   BACKBONE|DICT|INTERRES
   165   84   85 1    
   166   84  205 1    
   167   85   86 1    
   168   85   87 1    
   169   85  206 1    
   170   86  207 1    
   171   86  208 1    
   172   86  209 1    
   173   87   88 2    
   174   87   89 am   BACKBONE|DICT|INTERRES
   175   89   90 1    
   176   89  210 1    
   177   90   91 1    
   178   90   92 1    
   179   90  211 1    
   180   91  212 1    
   181   91  213 1    
   182   91  214 1    
   183   92   93 2    
   184   92   94 am   BACKBONE|DICT|INTERRES
   185   94   95 1    
   186   94  215 1    
   187   95   96 1    
   188   95   97 1    
   189   95  216 1    
   190   96  217 1    
   191   96  218 1    
   192   96  219 1    
   193   97   98 2    
   194   97   99 am   BACKBONE|DICT|INTERRES
   195   99  100 1    
   196   99  220 1    
   197  100  101 1    
   198  100  102 1    
   199  100  221 1    
   200  101  222 1    
   201  101  223 1    
   202  101  224 1    
   203  102  103 2    
   204  102  104 am   BACKBONE|DICT|INTERRES
   205  104  105 1    
   206  104  225 1    
   207  105  106 1    
   208  105  107 1    
   209  105  226 1    
   210  106  227 1    
   211  106  228 1    
   212  106  229 1    
   213  107  108 2    
   214  107  109 am   BACKBONE|DICT|INTERRES
   215  109  110 1    
   216  109  230 1    
   217  110  111 1    
   218  110  112 1    
   219  110  231 1    
   220  111  232 1    
   221  111  233 1    
   222  111  234 1    
   223  112  113 2    
   224  112  114 am   BACKBONE|DICT|INTERRES
   225  114  115 1    
   226  114  235 1    
   227  115  116 1    
   228  115  117 1    
   229  115  236 1    
   230  116  237 1    
   231  116  238 1    
   232  116  239 1    
   233  117  118 2    
   234  117  119 am   BACKBONE|DICT|INTERRES
   235  119  120 1    
   236  119  240 1    
   237  120  121 1    
   238  120  124 1    
   239  120  241 1    
   240  121  122 am   BACKBONE|DICT|INTERRES
   241  121  123 2    
   242  122  242 1    
   243  122  243 1    
   244  124  125 1    
   245  124  244 1    
   246  124  245 1    
   247  125  126 1    
   248  126  246 1    
   249  126  247 1    
@<TRIPOS>SUBSTRUCTURE
     1 UNK         1 GROUP             0       ****    0 ROOT    
