@<TRIPOS>MOLECULE
3R540
247   249    1
SMALL
USER_CHARGES


@<TRIPOS>ATOM
      1 CA          4.3362  -10.2350  -48.8322 C.3       0 UNK        -0.1800 
      2 C           4.1157  -11.6985  -49.1883 C.2       0 UNK         0.5000 
      3 O           4.7255  -12.1979  -50.1346 O.2       0 UNK        -0.5000 
      4 N           3.2398  -12.3813  -48.4414 N.am      1 UNK        -0.5000 
      5 CA          2.9305  -13.8071  -48.5928 C.3       1 UNK         0.1400 
      6 C6          1.6588  -14.2067  -47.8012 C.3       23 UNK        -0.0398 
      7 S7          0.1773  -13.2434  -48.2770 S.3       23 UNK        -0.2404 
      8 C8         -0.2418  -13.9045  -49.9258 C.3       23 UNK        -0.0205 
      9 C9         -0.7563  -15.3324  -49.8521 C.ar      23 UNK        -0.0193 
     10 C10        -2.1210  -15.5862  -49.6877 C.ar      23 UNK        -0.1150 
     11 C11        -2.5882  -16.8988  -49.5717 C.ar      23 UNK        -0.0193 
     12 C12        -1.6753  -17.9585  -49.6026 C.ar      23 UNK        -0.1150 
     13 C13        -0.3094  -17.7143  -49.7739 C.ar      23 UNK        -0.0193 
     14 C14         0.1379  -16.4019  -49.9294 C.ar      23 UNK        -0.1150 
     15 C15         0.6939  -18.8572  -49.7597 C.3       23 UNK        -0.0205 
     16 S16         1.7814  -18.8006  -48.2919 S.3       23 UNK        -0.2404 
     17 C17         0.6011  -18.9563  -46.9081 C.3       23 UNK        -0.0398 
     18 CA          0.4280  -20.4146  -46.4196 C.3       11 UNK         0.1400 
     19 N          -0.0870  -20.4779  -45.0502 N.am      11 UNK        -0.5000 
     20 C          -0.2787  -21.6100  -44.3556 C.2       10 UNK         0.5000 
     21 O           0.0484  -22.7285  -44.7524 O.2       10 UNK        -0.5000 
     22 CA         -1.0184  -21.4715  -43.0172 C.3       10 UNK         0.1400 
     23 CB         -0.0373  -21.1046  -41.8996 C.3       10 UNK        -0.1800 
     24 N          -2.0857  -20.4724  -43.0925 N.am      10 UNK        -0.5000 
     25 C          -3.2280  -20.6524  -43.7719 C.2       9 UNK         0.5000 
     26 O          -3.5107  -21.6934  -44.3657 O.2       9 UNK        -0.5000 
     27 CA         -4.1952  -19.4550  -43.8347 C.3       9 UNK         0.1400 
     28 CB         -5.0191  -19.3526  -42.5425 C.3       9 UNK        -0.1800 
     29 N          -3.5088  -18.1845  -44.0750 N.am      9 UNK        -0.5000 
     30 C          -2.8444  -17.8827  -45.1994 C.2       8 UNK         0.5000 
     31 O          -2.7814  -18.6321  -46.1711 O.2       8 UNK        -0.5000 
     32 CA         -2.0885  -16.5409  -45.2388 C.3       8 UNK         0.1400 
     33 CB         -2.9445  -15.4580  -45.9107 C.3       8 UNK        -0.1800 
     34 N          -1.6509  -16.0598  -43.9260 N.am      8 UNK        -0.5000 
     35 C          -0.8067  -16.7000  -43.1056 C.2       7 UNK         0.5000 
     36 O          -0.3330  -17.8125  -43.3532 O.2       7 UNK        -0.5000 
     37 CA         -0.4699  -15.9474  -41.8033 C.3       7 UNK         0.1400 
     38 CB         -1.6851  -15.8749  -40.8552 C.3       7 UNK        -0.1800 
     39 N           0.7246  -16.4620  -41.1294 N.am      7 UNK        -0.5000 
     40 C           0.8846  -17.5928  -40.4252 C.2       6 UNK         0.5000 
     41 O          -0.0353  -18.3512  -40.1182 O.2       6 UNK        -0.5000 
     42 CA          2.3201  -17.9336  -39.9684 C.3       6 UNK         0.1400 
     43 CB          2.7577  -19.3106  -40.4947 C.3       6 UNK        -0.1800 
     44 N           3.2923  -16.9398  -40.4276 N.am      6 UNK        -0.5000 
     45 C           3.8321  -15.9740  -39.6721 C.2       5 UNK         0.5000 
     46 O           3.6156  -15.8478  -38.4664 O.2       5 UNK        -0.5000 
     47 CA          4.7608  -14.9639  -40.3804 C.3       5 UNK         0.1400 
     48 CB          6.2316  -15.3638  -40.1882 C.3       5 UNK        -0.1800 
     49 N           4.4945  -14.8144  -41.8141 N.am      5 UNK        -0.5000 
     50 C           3.3629  -14.3262  -42.3410 C.2       4 UNK         0.5000 
     51 O           2.4206  -13.9114  -41.6668 O.2       4 UNK        -0.5000 
     52 CA          3.2342  -14.3553  -43.8770 C.3       4 UNK         0.1400 
     53 CB          3.7328  -13.0233  -44.4596 C.3       4 UNK        -0.1800 
     54 N           3.9224  -15.4752  -44.5382 N.am      4 UNK        -0.5000 
     55 C           3.7629  -16.7772  -44.2428 C.2       3 UNK         0.5000 
     56 O           3.0307  -17.1786  -43.3392 O.2       3 UNK        -0.5000 
     57 CA          4.5595  -17.7893  -45.0845 C.3       3 UNK         0.1400 
     58 CB          4.0350  -19.2315  -44.9525 C.3       3 UNK        -0.1800 
     59 N           4.5547  -17.3883  -46.4890 N.am      3 UNK        -0.5000 
     60 C           5.6325  -17.3332  -47.2796 C.2       2 UNK         0.5000 
     61 O           6.7571  -17.6953  -46.9312 O.2       2 UNK        -0.5000 
     62 CA          5.4357  -16.7491  -48.6943 C.3       2 UNK         0.1400 
     63 CB          5.3242  -17.8743  -49.7348 C.3       2 UNK        -0.1800 
     64 N           4.2892  -15.8421  -48.8420 N.am      2 UNK        -0.5000 
     65 C           4.1361  -14.6830  -48.1853 C.2       1 UNK         0.5000 
     66 O           4.8875  -14.3115  -47.2802 O.2       1 UNK        -0.5000 
     67 C          -0.4576  -21.2291  -47.3828 C.2       11 UNK         0.5000 
     68 O           0.0562  -22.0795  -48.1075 O.2       11 UNK        -0.5000 
     69 N          -1.7750  -20.9867  -47.3386 N.am      12 UNK        -0.5000 
     70 CA         -2.7716  -21.6747  -48.1526 C.3       12 UNK         0.1400 
     71 CB         -4.1469  -21.0284  -47.9561 C.3       12 UNK        -0.1800 
     72 C          -2.8484  -23.1821  -47.8871 C.2       12 UNK         0.5000 
     73 O          -2.9738  -23.9448  -48.8440 O.2       12 UNK        -0.5000 
     74 N          -2.7436  -23.5813  -46.6128 N.am      13 UNK        -0.5000 
     75 CA         -2.6976  -24.9802  -46.1900 C.3       13 UNK         0.1400 
     76 CB         -2.7989  -25.0569  -44.6591 C.3       13 UNK        -0.1800 
     77 C          -1.4392  -25.7114  -46.6938 C.2       13 UNK         0.5000 
     78 O          -1.5401  -26.8595  -47.1273 O.2       13 UNK        -0.5000 
     79 N          -0.2855  -25.0314  -46.6444 N.am      14 UNK        -0.5000 
     80 CA          0.9977  -25.5461  -47.1194 C.3       14 UNK         0.1400 
     81 CB          2.1342  -24.6746  -46.5614 C.3       14 UNK        -0.1800 
     82 C           1.0743  -25.6261  -48.6550 C.2       14 UNK         0.5000 
     83 O           1.5097  -26.6463  -49.1903 O.2       14 UNK        -0.5000 
     84 N           0.6612  -24.5481  -49.3334 N.am      15 UNK        -0.5000 
     85 CA          0.7429  -24.4022  -50.7876 C.3       15 UNK         0.1400 
     86 CB          0.7475  -22.9038  -51.1321 C.3       15 UNK        -0.1800 
     87 C          -0.3884  -25.1145  -51.5519 C.2       15 UNK         0.5000 
     88 O          -0.2395  -25.3373  -52.7539 O.2       15 UNK        -0.5000 
     89 N          -1.4986  -25.4217  -50.8627 N.am      16 UNK        -0.5000 
     90 CA         -2.7802  -25.8894  -51.4064 C.3       16 UNK         0.1400 
     91 CB         -2.6458  -27.2826  -52.0558 C.3       16 UNK        -0.1800 
     92 C          -3.4000  -24.8291  -52.3413 C.2       16 UNK         0.5000 
     93 O          -3.7841  -25.1314  -53.4729 O.2       16 UNK        -0.5000 
     94 N          -3.4532  -23.5825  -51.8510 N.am      17 UNK        -0.5000 
     95 CA         -3.7827  -22.3640  -52.6013 C.3       17 UNK         0.1400 
     96 CB         -3.1955  -21.1506  -51.8626 C.3       17 UNK        -0.1800 
     97 C          -5.2854  -22.1850  -52.9196 C.2       17 UNK         0.5000 
     98 O          -5.8040  -21.0670  -52.8701 O.2       17 UNK        -0.5000 
     99 N          -5.9611  -23.2803  -53.2853 N.am      18 UNK        -0.5000 
    100 CA        -7.3503  -23.2923  -53.7462 C.3       18 UNK         0.1400 
    101 CB        -7.8429  -24.7440  -53.8356 C.3       18 UNK        -0.1800 
    102 C         -7.5192  -22.5726  -55.0974 C.2       18 UNK         0.5000 
    103 O         -8.5212  -21.8884  -55.3024 O.2       18 UNK        -0.5000 
    104 N         -6.5074  -22.6915  -55.9703 N.am      19 UNK        -0.5000 
    105 CA        -6.4314  -22.0194  -57.2707 C.3       19 UNK         0.1400 
    106 CB        -5.2741  -22.6261  -58.0784 C.3       19 UNK        -0.1800 
    107 C         -6.2685  -20.4896  -57.1611 C.2       19 UNK         0.5000 
    108 O         -6.6827  -19.7700  -58.0702 O.2       19 UNK        -0.5000 
    109 N         -5.6918  -20.0206  -56.0455 N.am      20 UNK        -0.5000 
    110 CA        -5.5618  -18.6022  -55.7029 C.3       20 UNK         0.1400 
    111 CB        -4.3423  -18.4245  -54.7853 C.3       20 UNK        -0.1800 
    112 C         -6.8290  -18.0373  -55.0281 C.2       20 UNK         0.5000 
    113 O         -6.9033  -16.8266  -54.8151 O.2       20 UNK        -0.5000 
    114 N         -7.7899  -18.9158  -54.7003 N.am      21 UNK        -0.5000 
    115 CA        -9.0558  -18.6453  -54.0156 C.3       21 UNK         0.1400 
    116 CB        -9.9726  -17.7525  -54.8785 C.3       21 UNK        -0.1800 
    117 C         -8.8671  -18.1204  -52.5769 C.2       21 UNK         0.5000 
    118 O         -9.6525  -17.2879  -52.1181 O.2       21 UNK        -0.5000 
    119 N         -7.8359  -18.6234  -51.8841 N.am      22 UNK        -0.5000 
    120 CA        -7.5872  -18.3606  -50.4588 C.3       22 UNK         0.1400 
    121 C         -8.7066  -18.9406  -49.5471 C.2       22 UNK         0.5000 
    122 N         -9.0720  -18.2409  -48.4816 N.am      22 UNK        -0.7600 
    123 O         -9.2146  -20.0370  -49.7725 O.2       22 UNK        -0.5000 
    124 C124       -6.2105  -18.9059  -50.0120 C.3       23 UNK        -0.0398 
    125 S125       -4.8047  -18.0388  -50.7900 S.3       23 UNK        -0.2404 
    126 C126       -4.0694  -17.1748  -49.3627 C.3       23 UNK        -0.0205 
    127 H127        3.7268   -9.9283  -47.9817 H         1 UNK         0.0600 
    128 H128        4.0810   -9.5995  -49.6802 H         1 UNK         0.0600 
    129 H129        5.3826  -10.0645  -48.5792 H         1 UNK         0.0600 
    130 H130        2.7686  -11.9124  -47.6820 H         1 UNK         0.3000 
    131 H131        2.7454  -13.9876  -49.6530 H         1 UNK         0.0600 
    132 H132        1.4446  -15.2701  -47.9013 H         1 UNK         0.0800 
    133 H133        1.8148  -14.0495  -46.7336 H         1 UNK         0.0800 
    134 H134       -1.0047  -13.2645  -50.3715 H         1 UNK         0.0800 
    135 H135        0.6215  -13.8423  -50.5887 H         1 UNK         0.0800 
    136 H136       -2.8159  -14.7600  -49.6332 H         1 UNK         0.1150 
    137 H137       -2.0327  -18.9713  -49.4837 H         1 UNK         0.1150 
    138 H138        1.1925  -16.2138  -50.0672 H         1 UNK         0.1150 
    139 H139        0.1874  -19.8214  -49.8104 H         1 UNK         0.0800 
    140 H140        1.3132  -18.7970  -50.6556 H         1 UNK         0.0800 
    141 H141        0.9915  -18.3409  -46.0965 H         1 UNK         0.0800 
    142 H142       -0.3538  -18.5053  -47.1727 H         1 UNK         0.0800 
    143 H143        1.4113  -20.8896  -46.3994 H         1 UNK         0.0600 
    144 H144       -0.3576  -19.6023  -44.6179 H         1 UNK         0.3000 
    145 H145       -1.4652  -22.4379  -42.7744 H         1 UNK         0.0600 
    146 H146       -0.5433  -21.0212  -40.9378 H         1 UNK         0.0600 
    147 H147        0.7405  -21.8621  -41.7964 H         1 UNK         0.0600 
    148 H148        0.4550  -20.1546  -42.1059 H         1 UNK         0.0600 
    149 H149       -1.8930  -19.5714  -42.6769 H         1 UNK         0.3000 
    150 H150       -4.8831  -19.6283  -44.6651 H         1 UNK         0.0600 
    151 H151       -5.5524  -20.2836  -42.3454 H         1 UNK         0.0600 
    152 H152       -5.7651  -18.5608  -42.6126 H         1 UNK         0.0600 
    153 H153       -4.3891  -19.1451  -41.6765 H         1 UNK         0.0600 
    154 H154       -3.5104  -17.5125  -43.3225 H         1 UNK         0.3000 
    155 H155       -1.1955  -16.6884  -45.8485 H         1 UNK         0.0600 
    156 H156       -2.3736  -14.5415  -46.0622 H         1 UNK         0.0600 
    157 H157       -3.8262  -15.2142  -45.3170 H         1 UNK         0.0600 
    158 H158       -3.2905  -15.7850  -46.8908 H         1 UNK         0.0600 
    159 H159       -2.0023  -15.1545  -43.6493 H         1 UNK         0.3000 
    160 H160       -0.2134  -14.9261  -42.0888 H         1 UNK         0.0600 
    161 H161       -2.0909  -16.8619  -40.6318 H         1 UNK         0.0600 
    162 H162       -2.4923  -15.2893  -41.2961 H         1 UNK         0.0600 
    163 H163       -1.4216  -15.3980  -39.9110 H         1 UNK         0.0600 
    164 H164        1.5600  -15.9191  -41.3016 H         1 UNK         0.3000 
    165 H165        2.3084  -17.9778  -38.8777 H         1 UNK         0.0600 
    166 H166        2.7373  -19.3487  -41.5846 H         1 UNK         0.0600 
    167 H167        3.7696  -19.5530  -40.1703 H         1 UNK         0.0600 
    168 H168        2.1026  -20.0985  -40.1222 H         1 UNK         0.0600 
    169 H169        3.4843  -16.9552  -41.4248 H         1 UNK         0.3000 
    170 H170        4.6056  -13.9915  -39.9084 H         1 UNK         0.0600 
    171 H171        6.4766  -15.4563  -39.1292 H         1 UNK         0.0600 
    172 H172        6.4529  -16.3214  -40.6612 H         1 UNK         0.0600 
    173 H173        6.9029  -14.6160  -40.6109 H         1 UNK         0.0600 
    174 H174        5.2138  -15.1369  -42.4445 H         1 UNK         0.3000 
    175 H175        2.1710  -14.4515  -44.1058 H         1 UNK         0.0600 
    176 H176        4.8133  -12.9190  -44.3550 H         1 UNK         0.0600 
    177 H177        3.4899  -12.9309  -45.5159 H         1 UNK         0.0600 
    178 H178        3.2705  -12.1743  -43.9539 H         1 UNK         0.0600 
    179 H179        4.5370  -15.2262  -45.3050 H         1 UNK         0.3000 
    180 H180        5.5776  -17.7653  -44.6910 H         1 UNK         0.0600 
    181 H181        2.9903  -19.3083  -45.2486 H         1 UNK         0.0600 
    182 H182        4.1088  -19.5827  -43.9226 H         1 UNK         0.0600 
    183 H183        4.6104  -19.9195  -45.5718 H         1 UNK         0.0600 
    184 H184        3.6695  -17.0807  -46.8649 H         1 UNK         0.3000 
    185 H185        6.3333  -16.1707  -48.9227 H         1 UNK         0.0600 
    186 H186        5.2901  -17.4744  -50.7482 H         1 UNK         0.0600 
    187 H187        6.1843  -18.5430  -49.6808 H         1 UNK         0.0600 
    188 H188        4.4310  -18.4798  -49.5820 H         1 UNK         0.0600 
    189 H189        3.6282  -16.0902  -49.5631 H         1 UNK         0.3000 
    190 H190       -2.1225  -20.2370  -46.7439 H         1 UNK         0.3000 
    191 H191       -2.4693  -21.5455  -49.1906 H         1 UNK         0.0600 
    192 H192       -4.9032  -21.5146  -48.5734 H         1 UNK         0.0600 
    193 H193       -4.1187  -19.9801  -48.2386 H         1 UNK         0.0600 
    194 H194       -4.4772  -21.0862  -46.9187 H         1 UNK         0.0600 
    195 H195       -2.7010  -22.8792  -45.8821 H         1 UNK         0.3000 
    196 H196       -3.5679  -25.4858  -46.6134 H         1 UNK         0.0600 
    197 H197       -2.7980  -26.0932  -44.3191 H         1 UNK         0.0600 
    198 H198       -3.7208  -24.5975  -44.3018 H         1 UNK         0.0600 
    199 H199       -1.9640  -24.5510  -44.1738 H         1 UNK         0.0600 
    200 H200       -0.2798  -24.1023  -46.2355 H         1 UNK         0.3000 
    201 H201        1.1265  -26.5567  -46.7261 H         1 UNK         0.0600 
    202 H202        2.1365  -24.6831  -45.4713 H         1 UNK         0.0600 
    203 H203        2.0443  -23.6368  -46.8848 H         1 UNK         0.0600 
    204 H204        3.1069  -25.0402  -46.8925 H         1 UNK         0.0600 
    205 H205        0.3525  -23.7271  -48.8146 H         1 UNK         0.3000 
    206 H206        1.6883  -24.8290  -51.1290 H         1 UNK         0.0600 
    207 H207        1.5769  -22.3890  -50.6465 H         1 UNK         0.0600 
    208 H208        0.8504  -22.7463  -52.2064 H         1 UNK         0.0600 
    209 H209       -0.1762  -22.4191  -50.8157 H         1 UNK         0.0600 
    210 H210       -1.5311  -25.1468  -49.8884 H         1 UNK         0.3000 
    211 H211       -3.4594  -25.9905  -50.5589 H         1 UNK         0.0600 
    212 H212       -2.0320  -27.2595  -52.9565 H         1 UNK         0.0600 
    213 H213       -3.6236  -27.6725  -52.3404 H         1 UNK         0.0600 
    214 H214       -2.1998  -27.9970  -51.3640 H         1 UNK         0.0600 
    215 H215       -3.1805  -23.4596  -50.8829 H         1 UNK         0.3000 
    216 H216       -3.2735  -22.4289  -53.5649 H         1 UNK         0.0600 
    217 H217       -3.2327  -20.2573  -52.4845 H         1 UNK         0.0600 
    218 H218       -2.1499  -21.3059  -51.5995 H         1 UNK         0.0600 
    219 H219       -3.7532  -20.9325  -50.9528 H         1 UNK         0.0600 
    220 H220       -5.4419  -24.1512  -53.3434 H         1 UNK         0.3000 
    221 H221       -7.9597  -22.7660  -53.0082 H         1 UNK         0.0600 
    222 H222       -7.2518  -25.3280  -54.5422 H         1 UNK         0.0600 
    223 H223       -7.7892  -25.2379  -52.8653 H         1 UNK         0.0600 
    224 H224       -8.8825  -24.7841  -54.1634 H         1 UNK         0.0600 
    225 H225       -5.7246  -23.2770  -55.7174 H         1 UNK         0.3000 
    226 H226       -7.3628  -22.2132  -57.8069 H         1 UNK         0.0600 
    227 H227       -5.4164  -23.6965  -58.2289 H         1 UNK         0.0600 
    228 H228       -5.2039  -22.1673  -59.0656 H         1 UNK         0.0600 
    229 H229       -4.3150  -22.4807  -57.5797 H         1 UNK         0.0600 
    230 H230       -5.4030  -20.6788  -55.3368 H         1 UNK         0.3000 
    231 H231       -5.3872  -18.0271  -56.6146 H         1 UNK         0.0600 
    232 H232       -4.1420  -17.3680  -54.6031 H         1 UNK         0.0600 
    233 H233       -3.4430  -18.8554  -55.2254 H         1 UNK         0.0600 
    234 H234       -4.5047  -18.8926  -53.8154 H         1 UNK         0.0600 
    235 H235       -7.6337  -19.8887  -54.9295 H         1 UNK         0.3000 
    236 H236       -9.5506  -19.6120  -53.9136 H         1 UNK         0.0600 
    237 H237      -10.0883  -18.1612  -55.8823 H         1 UNK         0.0600 
    238 H238      -10.9695  -17.6800  -54.4424 H         1 UNK         0.0600 
    239 H239       -9.5833  -16.7384  -54.9710 H         1 UNK         0.0600 
    240 H240       -7.2291  -19.3036  -52.3249 H         1 UNK         0.3000 
    241 H241       -7.5796  -17.2767  -50.3266 H         1 UNK         0.0600 
    242 H242       -8.6706  -17.3394  -48.2746 H         1 UNK         0.3800 
    243 H243       -9.7868  -18.6125  -47.8752 H         1 UNK         0.3800 
    244 H244       -6.1138  -18.8372  -48.9277 H         1 UNK         0.0800 
    245 H245       -6.1298  -19.9677  -50.2513 H         1 UNK         0.0800 
    246 H246       -4.1775  -17.7602  -48.4509 H         1 UNK         0.0800 
    247 H247       -4.6193  -16.2480  -49.1936 H         1 UNK         0.0800 
@<TRIPOS>BOND
     1    1    2 1    
     2    1  127 1    
     3    1  128 1    
     4    1  129 1    
     5    2    3 2    
     6    2    4 am   BACKBONE|DICT|INTERRES
     7    4    5 1    
     8    4  130 1    
     9    5    6 1    
    10    5   65 1    
    11    5  131 1    
    12    6    7 1    
    13    6  132 1    
    14    6  133 1    
    15    7    8 1    
    16    8    9 1    
    17    8  134 1    
    18    8  135 1    
    19    9   10 ar   
    20    9   14 ar   
    21   10   11 ar   
    22   10  136 1    
    23   11   12 ar   
    24   11  126 1    
    25   12   13 ar   
    26   12  137 1    
    27   13   14 ar   
    28   13   15 1    
    29   14  138 1    
    30   15   16 1    
    31   15  139 1    
    32   15  140 1    
    33   16   17 1    
    34   17   18 1    
    35   17  141 1    
    36   17  142 1    
    37   18   19 1    
    38   18   67 1    
    39   18  143 1    
    40   19   20 am   BACKBONE|DICT|INTERRES
    41   19  144 1    
    42   20   21 2    
    43   20   22 1    
    44   22   23 1    
    45   22   24 1    
    46   22  145 1    
    47   23  146 1    
    48   23  147 1    
    49   23  148 1    
    50   24   25 am   BACKBONE|DICT|INTERRES
    51   24  149 1    
    52   25   26 2    
    53   25   27 1    
    54   27   28 1    
    55   27   29 1    
    56   27  150 1    
    57   28  151 1    
    58   28  152 1    
    59   28  153 1    
    60   29   30 am   BACKBONE|DICT|INTERRES
    61   29  154 1    
    62   30   31 2    
    63   30   32 1    
    64   32   33 1    
    65   32   34 1    
    66   32  155 1    
    67   33  156 1    
    68   33  157 1    
    69   33  158 1    
    70   34   35 am   BACKBONE|DICT|INTERRES
    71   34  159 1    
    72   35   36 2    
    73   35   37 1    
    74   37   38 1    
    75   37   39 1    
    76   37  160 1    
    77   38  161 1    
    78   38  162 1    
    79   38  163 1    
    80   39   40 am   BACKBONE|DICT|INTERRES
    81   39  164 1    
    82   40   41 2    
    83   40   42 1    
    84   42   43 1    
    85   42   44 1    
    86   42  165 1    
    87   43  166 1    
    88   43  167 1    
    89   43  168 1    
    90   44   45 am   BACKBONE|DICT|INTERRES
    91   44  169 1    
    92   45   46 2    
    93   45   47 1    
    94   47   48 1    
    95   47   49 1    
    96   47  170 1    
    97   48  171 1    
    98   48  172 1    
    99   48  173 1    
   100   49   50 am   BACKBONE|DICT|INTERRES
   101   49  174 1    
   102   50   51 2    
   103   50   52 1    
   104   52   53 1    
   105   52   54 1    
   106   52  175 1    
   107   53  176 1    
   108   53  177 1    
   109   53  178 1    
   110   54   55 am   BACKBONE|DICT|INTERRES
   111   54  179 1    
   112   55   56 2    
   113   55   57 1    
   114   57   58 1    
   115   57   59 1    
   116   57  180 1    
   117   58  181 1    
   118   58  182 1    
   119   58  183 1    
   120   59   60 am   BACKBONE|DICT|INTERRES
   121   59  184 1    
   122   60   61 2    
   123   60   62 1    
   124   62   63 1    
   125   62   64 1    
   126   62  185 1    
   127   63  186 1    
   128   63  187 1    
   129   63  188 1    
   130   64   65 am   BACKBONE|DICT|INTERRES
   131   64  189 1    
   132   65   66 2    
   133   67   68 2    
   134   67   69 am   BACKBONE|DICT|INTERRES
   135   69   70 1    
   136   69  190 1    
   137   70   71 1    
   138   70   72 1    
   139   70  191 1    
   140   71  192 1    
   141   71  193 1    
   142   71  194 1    
   143   72   73 2    
   144   72   74 am   BACKBONE|DICT|INTERRES
   145   74   75 1    
   146   74  195 1    
   147   75   76 1    
   148   75   77 1    
   149   75  196 1    
   150   76  197 1    
   151   76  198 1    
   152   76  199 1    
   153   77   78 2    
   154   77   79 am   BACKBONE|DICT|INTERRES
   155   79   80 1    
   156   79  200 1    
   157   80   81 1    
   158   80   82 1    
   159   80  201 1    
   160   81  202 1    
   161   81  203 1    
   162   81  204 1    
   163   82   83 2    
   164   82   84 am   BACKBONE|DICT|INTERRES
   165   84   85 1    
   166   84  205 1    
   167   85   86 1    
   168   85   87 1    
   169   85  206 1    
   170   86  207 1    
   171   86  208 1    
   172   86  209 1    
   173   87   88 2    
   174   87   89 am   BACKBONE|DICT|INTERRES
   175   89   90 1    
   176   89  210 1    
   177   90   91 1    
   178   90   92 1    
   179   90  211 1    
   180   91  212 1    
   181   91  213 1    
   182   91  214 1    
   183   92   93 2    
   184   92   94 am   BACKBONE|DICT|INTERRES
   185   94   95 1    
   186   94  215 1    
   187   95   96 1    
   188   95   97 1    
   189   95  216 1    
   190   96  217 1    
   191   96  218 1    
   192   96  219 1    
   193   97   98 2    
   194   97   99 am   BACKBONE|DICT|INTERRES
   195   99  100 1    
   196   99  220 1    
   197  100  101 1    
   198  100  102 1    
   199  100  221 1    
   200  101  222 1    
   201  101  223 1    
   202  101  224 1    
   203  102  103 2    
   204  102  104 am   BACKBONE|DICT|INTERRES
   205  104  105 1    
   206  104  225 1    
   207  105  106 1    
   208  105  107 1    
   209  105  226 1    
   210  106  227 1    
   211  106  228 1    
   212  106  229 1    
   213  107  108 2    
   214  107  109 am   BACKBONE|DICT|INTERRES
   215  109  110 1    
   216  109  230 1    
   217  110  111 1    
   218  110  112 1    
   219  110  231 1    
   220  111  232 1    
   221  111  233 1    
   222  111  234 1    
   223  112  113 2    
   224  112  114 am   BACKBONE|DICT|INTERRES
   225  114  115 1    
   226  114  235 1    
   227  115  116 1    
   228  115  117 1    
   229  115  236 1    
   230  116  237 1    
   231  116  238 1    
   232  116  239 1    
   233  117  118 2    
   234  117  119 am   BACKBONE|DICT|INTERRES
   235  119  120 1    
   236  119  240 1    
   237  120  121 1    
   238  120  124 1    
   239  120  241 1    
   240  121  122 am   BACKBONE|DICT|INTERRES
   241  121  123 2    
   242  122  242 1    
   243  122  243 1    
   244  124  125 1    
   245  124  244 1    
   246  124  245 1    
   247  125  126 1    
   248  126  246 1    
   249  126  247 1    
@<TRIPOS>SUBSTRUCTURE
     1 UNK         1 GROUP             0       ****    0 ROOT    
