@<TRIPOS>MOLECULE
3R540
247   249    1
SMALL
USER_CHARGES


@<TRIPOS>ATOM
      1 CA         -2.9722   -8.6053  -48.2832 C.3       0 UNK        -0.1800 
      2 C          -2.0846   -9.8401  -48.2299 C.2       0 UNK         0.5000 
      3 O          -0.8976   -9.7288  -47.9229 O.2       0 UNK        -0.5000 
      4 N          -2.6564  -11.0178  -48.5170 N.am      1 UNK        -0.5000 
      5 CA         -1.9657  -12.3159  -48.5507 C.3       1 UNK         0.1400 
      6 C6         -2.8818  -13.4559  -49.0572 C.3       23 UNK        -0.0398 
      7 S7         -3.6669  -13.1252  -50.6714 S.3       23 UNK        -0.2404 
      8 C8         -2.2948  -13.4059  -51.8362 C.3       23 UNK        -0.0205 
      9 C9         -1.6921  -14.7980  -51.7157 C.ar      23 UNK        -0.0193 
     10 C10        -2.3916  -15.9141  -52.1818 C.ar      23 UNK        -0.1150 
     11 C11        -1.8332  -17.1924  -52.0877 C.ar      23 UNK        -0.0193 
     12 C12        -0.5618  -17.3470  -51.5265 C.ar      23 UNK        -0.1150 
     13 C13         0.1489  -16.2372  -51.0577 C.ar      23 UNK        -0.0193 
     14 C14        -0.4247  -14.9667  -51.1514 C.ar      23 UNK        -0.1150 
     15 C15         1.5523  -16.3947  -50.4861 C.3       23 UNK        -0.0205 
     16 S16         1.6262  -17.5266  -49.0628 S.3       23 UNK        -0.2404 
     17 C17         0.5029  -16.7213  -47.8689 C.3       23 UNK        -0.0398 
     18 CA         -0.7963  -17.5251  -47.6433 C.3       11 UNK         0.1400 
     19 N          -0.5049  -18.9111  -47.2762 N.am      11 UNK        -0.5000 
     20 C          -1.3898  -19.8991  -47.1199 C.2       10 UNK         0.5000 
     21 O          -2.6060  -19.7486  -47.2465 O.2       10 UNK        -0.5000 
     22 CA         -0.8232  -21.2647  -46.6815 C.3       10 UNK         0.1400 
     23 CB          0.7150  -21.3717  -46.7943 C.3       10 UNK        -0.1800 
     24 N          -1.2459  -21.5971  -45.3213 N.am      10 UNK        -0.5000 
     25 C          -1.1029  -20.8549  -44.2158 C.2       9 UNK         0.5000 
     26 O          -0.5342  -19.7617  -44.1819 O.2       9 UNK        -0.5000 
     27 CA         -1.6874  -21.4417  -42.9218 C.3       9 UNK         0.1400 
     28 CB         -3.2251  -21.5185  -42.9744 C.3       9 UNK        -0.1800 
     29 N          -1.0820  -22.7231  -42.5457 N.am      9 UNK        -0.5000 
     30 C          -1.1562  -23.9183  -43.1514 C.2       8 UNK         0.5000 
     31 O          -1.8162  -24.1259  -44.1720 O.2       8 UNK        -0.5000 
     32 CA         -0.3210  -25.0596  -42.5278 C.3       8 UNK         0.1400 
     33 CB          0.1306  -26.0885  -43.5776 C.3       8 UNK        -0.1800 
     34 N           0.8689  -24.5430  -41.8480 N.am      8 UNK        -0.5000 
     35 C           0.9869  -24.3042  -40.5352 C.2       7 UNK         0.5000 
     36 O           0.1151  -24.5701  -39.7081 O.2       7 UNK        -0.5000 
     37 CA          2.2844  -23.6019  -40.0807 C.3       7 UNK         0.1400 
     38 CB          3.3261  -24.6366  -39.6291 C.3       7 UNK        -0.1800 
     39 N           2.8753  -22.7442  -41.1168 N.am      7 UNK        -0.5000 
     40 C           2.2926  -21.6477  -41.6204 C.2       6 UNK         0.5000 
     41 O           1.2036  -21.2165  -41.2315 O.2       6 UNK        -0.5000 
     42 CA          3.0203  -20.9587  -42.7850 C.3       6 UNK         0.1400 
     43 CB          3.0020  -21.8496  -44.0390 C.3       6 UNK        -0.1800 
     44 N           2.3482  -19.6978  -43.0822 N.am      6 UNK        -0.5000 
     45 C           2.9462  -18.5507  -43.4085 C.2       5 UNK         0.5000 
     46 O           4.1594  -18.4306  -43.6026 O.2       5 UNK        -0.5000 
     47 CA          2.0312  -17.3219  -43.4958 C.3       5 UNK         0.1400 
     48 CB          1.6175  -16.8528  -42.0868 C.3       5 UNK        -0.1800 
     49 N           2.7295  -16.2464  -44.1943 N.am      5 UNK        -0.5000 
     50 C           2.1352  -15.1911  -44.7569 C.2       4 UNK         0.5000 
     51 O           0.9137  -15.0235  -44.7535 O.2       4 UNK        -0.5000 
     52 CA          3.0509  -14.1747  -45.4610 C.3       4 UNK         0.1400 
     53 CB          3.3967  -14.6395  -46.8847 C.3       4 UNK        -0.1800 
     54 N           2.3530  -12.8968  -45.5469 N.am      4 UNK        -0.5000 
     55 C           2.7044  -11.7689  -44.9160 C.2       3 UNK         0.5000 
     56 O           3.7738  -11.6194  -44.3233 O.2       3 UNK        -0.5000 
     57 CA          1.6748  -10.6164  -44.9201 C.3       3 UNK         0.1400 
     58 CB          2.0020   -9.6048  -46.0283 C.3       3 UNK        -0.1800 
     59 N           0.2987  -11.0864  -45.0955 N.am      3 UNK        -0.5000 
     60 C          -0.3561  -11.8690  -44.2247 C.2       2 UNK         0.5000 
     61 O           0.0496  -12.0878  -43.0823 O.2       2 UNK        -0.5000 
     62 CA         -1.6575  -12.5494  -44.7026 C.3       2 UNK         0.1400 
     63 CB         -2.8477  -12.1662  -43.8086 C.3       2 UNK        -0.1800 
     64 N          -2.0215  -12.2949  -46.0989 N.am      2 UNK        -0.5000 
     65 C          -1.3535  -12.7052  -47.1879 C.2       1 UNK         0.5000 
     66 O          -0.2832  -13.3123  -47.1513 O.2       1 UNK        -0.5000 
     67 C          -1.7178  -16.8055  -46.6325 C.2       11 UNK         0.5000 
     68 O          -2.4443  -15.9007  -47.0371 O.2       11 UNK        -0.5000 
     69 N          -1.7371  -17.2466  -45.3634 N.am      12 UNK        -0.5000 
     70 CA         -2.6516  -16.7304  -44.3403 C.3       12 UNK         0.1400 
     71 CB         -2.2068  -17.2097  -42.9517 C.3       12 UNK        -0.1800 
     72 C          -4.1205  -17.1163  -44.6016 C.2       12 UNK         0.5000 
     73 O          -5.0171  -16.3463  -44.2567 O.2       12 UNK        -0.5000 
     74 N          -4.3378  -18.2837  -45.2232 N.am      13 UNK        -0.5000 
     75 CA         -5.6447  -18.7279  -45.7098 C.3       13 UNK         0.1400 
     76 CB         -5.7090  -20.2635  -45.6324 C.3       13 UNK        -0.1800 
     77 C          -5.9071  -18.2605  -47.1543 C.2       13 UNK         0.5000 
     78 O          -7.0651  -18.2090  -47.5686 O.2       13 UNK        -0.5000 
     79 N          -4.8244  -17.9756  -47.8960 N.am      14 UNK        -0.5000 
     80 CA         -4.7548  -17.7574  -49.3454 C.3       14 UNK         0.1400 
     81 CB         -5.5008  -16.4733  -49.7579 C.3       14 UNK        -0.1800 
     82 C          -5.2042  -19.0112  -50.1270 C.2       14 UNK         0.5000 
     83 O          -5.8048  -18.9016  -51.1966 O.2       14 UNK        -0.5000 
     84 N          -4.9071  -20.1827  -49.5539 N.am      15 UNK        -0.5000 
     85 CA         -5.3146  -21.5141  -49.9811 C.3       15 UNK         0.1400 
     86 CB         -6.8499  -21.6803  -49.9017 C.3       15 UNK        -0.1800 
     87 C          -4.5426  -22.5067  -49.0967 C.2       15 UNK         0.5000 
     88 O          -3.3617  -22.2731  -48.8369 O.2       15 UNK        -0.5000 
     89 N          -5.1915  -23.5877  -48.6405 N.am      16 UNK        -0.5000 
     90 CA         -4.6241  -24.6422  -47.7919 C.3       16 UNK         0.1400 
     91 CB         -4.3795  -24.1014  -46.3639 C.3       16 UNK        -0.1800 
     92 C          -3.3803  -25.2700  -48.4567 C.2       16 UNK         0.5000 
     93 O          -3.5002  -25.8046  -49.5592 O.2       16 UNK        -0.5000 
     94 N          -2.2045  -25.1439  -47.8293 N.am      17 UNK        -0.5000 
     95 CA         -0.9201  -25.5737  -48.3862 C.3       17 UNK         0.1400 
     96 CB          0.1477  -25.5016  -47.2865 C.3       17 UNK        -0.1800 
     97 C          -0.4734  -24.7914  -49.6413 C.2       17 UNK         0.5000 
     98 O           0.3089  -25.3270  -50.4271 O.2       17 UNK        -0.5000 
     99 N          -0.9793  -23.5630  -49.8314 N.am      18 UNK        -0.5000 
    100 CA        -0.6989  -22.7341  -51.0065 C.3       18 UNK         0.1400 
    101 CB        -0.7400  -21.2465  -50.6226 C.3       18 UNK        -0.1800 
    102 C         -1.6582  -23.0111  -52.1779 C.2       18 UNK         0.5000 
    103 O         -1.4027  -22.5237  -53.2793 O.2       18 UNK        -0.5000 
    104 N         -2.7279  -23.7949  -51.9604 N.am      19 UNK        -0.5000 
    105 CA        -3.7301  -24.1292  -52.9813 C.3       19 UNK         0.1400 
    106 CB        -4.9042  -24.8797  -52.3377 C.3       19 UNK        -0.1800 
    107 C         -3.1638  -24.9334  -54.1679 C.2       19 UNK         0.5000 
    108 O         -3.7221  -24.8678  -55.2622 O.2       19 UNK        -0.5000 
    109 N         -2.0393  -25.6300  -53.9520 N.am      20 UNK        -0.5000 
    110 CA        -1.2645  -26.3125  -54.9896 C.3       20 UNK         0.1400 
    111 CB        -0.1554  -27.1366  -54.3181 C.3       20 UNK        -0.1800 
    112 C         -0.6641  -25.3529  -56.0397 C.2       20 UNK         0.5000 
    113 O         -0.4481  -25.7703  -57.1783 O.2       20 UNK        -0.5000 
    114 N         -0.4170  -24.0956  -55.6464 N.am      21 UNK        -0.5000 
    115 CA         0.0523  -23.0243  -56.5216 C.3       21 UNK         0.1400 
    116 CB         1.1549  -22.2306  -55.8014 C.3       21 UNK        -0.1800 
    117 C         -1.1071  -22.0978  -56.9231 C.2       21 UNK         0.5000 
    118 O         -1.2353  -21.7637  -58.1017 O.2       21 UNK        -0.5000 
    119 N         -1.9192  -21.6914  -55.9391 N.am      22 UNK        -0.5000 
    120 CA        -3.0145  -20.7227  -56.1038 C.3       22 UNK         0.1400 
    121 C         -4.3063  -21.2861  -56.7625 C.2       22 UNK         0.5000 
    122 N         -4.5129  -22.5935  -56.8454 N.am      22 UNK        -0.7600 
    123 O         -5.1407  -20.5128  -57.2247 O.2       22 UNK        -0.5000 
    124 C124       -3.3386  -20.0033  -54.7702 C.3       23 UNK        -0.0398 
    125 S125       -1.9475  -18.9748  -54.1933 S.3       23 UNK        -0.2404 
    126 C126       -2.6032  -18.3991  -52.6002 C.3       23 UNK        -0.0205 
    127 H127       -3.9958   -8.8534  -48.5650 H         1 UNK         0.0600 
    128 H128       -2.5816   -7.8946  -49.0114 H         1 UNK         0.0600 
    129 H129       -2.9957   -8.1184  -47.3084 H         1 UNK         0.0600 
    130 H130       -3.6313  -11.0411  -48.7817 H         1 UNK         0.3000 
    131 H131       -1.1340  -12.2160  -49.2508 H         1 UNK         0.0600 
    132 H132       -3.6823  -13.6429  -48.3390 H         1 UNK         0.0800 
    133 H133       -2.3266  -14.3915  -49.1247 H         1 UNK         0.0800 
    134 H134       -1.5334  -12.6397  -51.6829 H         1 UNK         0.0800 
    135 H135       -2.6639  -13.2636  -52.8528 H         1 UNK         0.0800 
    136 H136       -3.3711  -15.7833  -52.6201 H         1 UNK         0.1150 
    137 H137       -0.1174  -18.3294  -51.4641 H         1 UNK         0.1150 
    138 H138        0.1214  -14.1043  -50.7955 H         1 UNK         0.1150 
    139 H139        2.2082  -16.7752  -51.2699 H         1 UNK         0.0800 
    140 H140        1.9628  -15.4293  -50.1857 H         1 UNK         0.0800 
    141 H141        0.2768  -15.7073  -48.2023 H         1 UNK         0.0800 
    142 H142        1.0446  -16.6231  -46.9301 H         1 UNK         0.0800 
    143 H143       -1.3372  -17.5568  -48.5913 H         1 UNK         0.0600 
    144 H144        0.4715  -19.1258  -47.1382 H         1 UNK         0.3000 
    145 H145       -1.2599  -22.0138  -47.3402 H         1 UNK         0.0600 
    146 H146        1.0561  -22.3718  -46.5315 H         1 UNK         0.0600 
    147 H147        1.0577  -21.1798  -47.8108 H         1 UNK         0.0600 
    148 H148        1.2268  -20.6704  -46.1346 H         1 UNK         0.0600 
    149 H149       -1.6923  -22.5007  -45.1970 H         1 UNK         0.3000 
    150 H150       -1.4276  -20.7485  -42.1202 H         1 UNK         0.0600 
    151 H151       -3.6535  -20.5309  -43.1482 H         1 UNK         0.0600 
    152 H152       -3.6319  -21.8862  -42.0325 H         1 UNK         0.0600 
    153 H153       -3.5827  -22.1727  -43.7699 H         1 UNK         0.0600 
    154 H154       -0.4573  -22.6557  -41.7523 H         1 UNK         0.3000 
    155 H155       -0.9683  -25.5714  -41.8132 H         1 UNK         0.0600 
    156 H156        0.7736  -25.6324  -44.3306 H         1 UNK         0.0600 
    157 H157       -0.7234  -26.5329  -44.0904 H         1 UNK         0.0600 
    158 H158        0.6862  -26.9038  -43.1140 H         1 UNK         0.0600 
    159 H159        1.6390  -24.2781  -42.4441 H         1 UNK         0.3000 
    160 H160        2.0341  -22.9717  -39.2247 H         1 UNK         0.0600 
    161 H161        3.6333  -25.2846  -40.4510 H         1 UNK         0.0600 
    162 H162        2.9260  -25.2748  -38.8399 H         1 UNK         0.0600 
    163 H163        4.2177  -24.1516  -39.2314 H         1 UNK         0.0600 
    164 H164        3.7713  -23.0354  -41.4813 H         1 UNK         0.3000 
    165 H165        4.0517  -20.7724  -42.4783 H         1 UNK         0.0600 
    166 H166        3.4230  -21.3306  -44.9003 H         1 UNK         0.0600 
    167 H167        3.5907  -22.7552  -43.8902 H         1 UNK         0.0600 
    168 H168        1.9870  -22.1565  -44.2927 H         1 UNK         0.0600 
    169 H169        1.3480  -19.7069  -42.9156 H         1 UNK         0.3000 
    170 H170        1.1427  -17.5988  -44.0671 H         1 UNK         0.0600 
    171 H171        2.4867  -16.5937  -41.4811 H         1 UNK         0.0600 
    172 H172        0.9706  -15.9766  -42.1291 H         1 UNK         0.0600 
    173 H173        1.0683  -17.6327  -41.5578 H         1 UNK         0.0600 
    174 H174        3.7315  -16.3780  -44.2624 H         1 UNK         0.3000 
    175 H175        3.9716  -14.0820  -44.8813 H         1 UNK         0.0600 
    176 H176        2.5135  -14.6712  -47.5229 H         1 UNK         0.0600 
    177 H177        4.1150  -13.9650  -47.3506 H         1 UNK         0.0600 
    178 H178        3.8402  -15.6360  -46.8821 H         1 UNK         0.0600 
    179 H179        1.4251  -12.9540  -45.9561 H         1 UNK         0.3000 
    180 H180        1.7409  -10.1072  -43.9565 H         1 UNK         0.0600 
    181 H181        1.3173   -8.7568  -46.0033 H         1 UNK         0.0600 
    182 H182        1.9353  -10.0589  -47.0180 H         1 UNK         0.0600 
    183 H183        3.0127   -9.2112  -45.9134 H         1 UNK         0.0600 
    184 H184       -0.1139  -10.9333  -46.0065 H         1 UNK         0.3000 
    185 H185       -1.4899  -13.6227  -44.6037 H         1 UNK         0.0600 
    186 H186       -3.7435  -12.7229  -44.0849 H         1 UNK         0.0600 
    187 H187       -2.6421  -12.3900  -42.7610 H         1 UNK         0.0600 
    188 H188       -3.0755  -11.1020  -43.8790 H         1 UNK         0.0600 
    189 H189       -2.8676  -11.7639  -46.2447 H         1 UNK         0.3000 
    190 H190       -1.1412  -18.0221  -45.0936 H         1 UNK         0.3000 
    191 H191       -2.5912  -15.6413  -44.3544 H         1 UNK         0.0600 
    192 H192       -2.8093  -16.7454  -42.1701 H         1 UNK         0.0600 
    193 H193       -1.1681  -16.9466  -42.7600 H         1 UNK         0.0600 
    194 H194       -2.3085  -18.2888  -42.8420 H         1 UNK         0.0600 
    195 H195       -3.5426  -18.8425  -45.5058 H         1 UNK         0.3000 
    196 H196       -6.4376  -18.3219  -45.0780 H         1 UNK         0.0600 
    197 H197       -4.9091  -20.7354  -46.2044 H         1 UNK         0.0600 
    198 H198       -5.6331  -20.6085  -44.6019 H         1 UNK         0.0600 
    199 H199       -6.6551  -20.6368  -46.0267 H         1 UNK         0.0600 
    200 H200       -3.9280  -18.1079  -47.4468 H         1 UNK         0.3000 
    201 H201       -3.6995  -17.6126  -49.5805 H         1 UNK         0.0600 
    202 H202       -6.5795  -16.5708  -49.6348 H         1 UNK         0.0600 
    203 H203       -5.3113  -16.2328  -50.8045 H         1 UNK         0.0600 
    204 H204       -5.1699  -15.6205  -49.1655 H         1 UNK         0.0600 
    205 H205       -4.3220  -20.1813  -48.7240 H         1 UNK         0.3000 
    206 H206       -4.9855  -21.6648  -51.0107 H         1 UNK         0.0600 
    207 H207       -7.1637  -22.6649  -50.2496 H         1 UNK         0.0600 
    208 H208       -7.2159  -21.5481  -48.8824 H         1 UNK         0.0600 
    209 H209       -7.3649  -20.9547  -50.5307 H         1 UNK         0.0600 
    210 H210       -6.1551  -23.7186  -48.9127 H         1 UNK         0.3000 
    211 H211       -5.3713  -25.4343  -47.7264 H         1 UNK         0.0600 
    212 H212       -4.0231  -24.8894  -45.6994 H         1 UNK         0.0600 
    213 H213       -5.3032  -23.7159  -45.9323 H         1 UNK         0.0600 
    214 H214       -3.6504  -23.2909  -46.3437 H         1 UNK         0.0600 
    215 H215       -2.1831  -24.6956  -46.9244 H         1 UNK         0.3000 
    216 H216       -1.0199  -26.6188  -48.6868 H         1 UNK         0.0600 
    217 H217        0.1948  -24.5123  -46.8328 H         1 UNK         0.0600 
    218 H218        1.1387  -25.7363  -47.6774 H         1 UNK         0.0600 
    219 H219       -0.0663  -26.2232  -46.4994 H         1 UNK         0.0600 
    220 H220       -1.6832  -23.2042  -49.1929 H         1 UNK         0.3000 
    221 H221        0.3099  -22.9478  -51.3660 H         1 UNK         0.0600 
    222 H222       -0.0138  -21.0161  -49.8458 H         1 UNK         0.0600 
    223 H223       -1.7231  -20.9362  -50.2708 H         1 UNK         0.0600 
    224 H224       -0.4923  -20.6247  -51.4832 H         1 UNK         0.0600 
    225 H225       -2.8524  -24.2139  -51.0475 H         1 UNK         0.3000 
    226 H226       -4.1129  -23.1889  -53.3833 H         1 UNK         0.0600 
    227 H227       -4.5978  -25.8549  -51.9585 H         1 UNK         0.0600 
    228 H228       -5.3359  -24.3161  -51.5120 H         1 UNK         0.0600 
    229 H229       -5.7004  -25.0499  -53.0636 H         1 UNK         0.0600 
    230 H230       -1.6512  -25.6331  -53.0200 H         1 UNK         0.3000 
    231 H231       -1.9338  -26.9977  -55.5139 H         1 UNK         0.0600 
    232 H232        0.5296  -26.5033  -53.7525 H         1 UNK         0.0600 
    233 H233        0.4335  -27.6779  -55.0598 H         1 UNK         0.0600 
    234 H234       -0.5721  -27.8756  -53.6335 H         1 UNK         0.0600 
    235 H235       -0.6620  -23.8229  -54.7023 H         1 UNK         0.3000 
    236 H236        0.4830  -23.4392  -57.4353 H         1 UNK         0.0600 
    237 H237        2.0035  -22.8700  -55.5584 H         1 UNK         0.0600 
    238 H238        1.5267  -21.4211  -56.4308 H         1 UNK         0.0600 
    239 H239        0.7957  -21.7852  -54.8726 H         1 UNK         0.0600 
    240 H240       -1.7257  -21.9838  -54.9843 H         1 UNK         0.3000 
    241 H241       -2.6607  -19.9563  -56.7967 H         1 UNK         0.0600 
    242 H242       -5.3546  -22.9255  -57.2879 H         1 UNK         0.3800 
    243 H243       -3.8872  -23.2662  -56.4171 H         1 UNK         0.3800 
    244 H244       -3.5968  -20.7272  -53.9956 H         1 UNK         0.0800 
    245 H245       -4.2044  -19.3480  -54.8835 H         1 UNK         0.0800 
    246 H246       -3.6574  -18.1448  -52.7182 H         1 UNK         0.0800 
    247 H247       -2.5591  -19.2097  -51.8727 H         1 UNK         0.0800 
@<TRIPOS>BOND
     1    1    2 1    
     2    1  127 1    
     3    1  128 1    
     4    1  129 1    
     5    2    3 2    
     6    2    4 am   BACKBONE|DICT|INTERRES
     7    4    5 1    
     8    4  130 1    
     9    5    6 1    
    10    5   65 1    
    11    5  131 1    
    12    6    7 1    
    13    6  132 1    
    14    6  133 1    
    15    7    8 1    
    16    8    9 1    
    17    8  134 1    
    18    8  135 1    
    19    9   10 ar   
    20    9   14 ar   
    21   10   11 ar   
    22   10  136 1    
    23   11   12 ar   
    24   11  126 1    
    25   12   13 ar   
    26   12  137 1    
    27   13   14 ar   
    28   13   15 1    
    29   14  138 1    
    30   15   16 1    
    31   15  139 1    
    32   15  140 1    
    33   16   17 1    
    34   17   18 1    
    35   17  141 1    
    36   17  142 1    
    37   18   19 1    
    38   18   67 1    
    39   18  143 1    
    40   19   20 am   BACKBONE|DICT|INTERRES
    41   19  144 1    
    42   20   21 2    
    43   20   22 1    
    44   22   23 1    
    45   22   24 1    
    46   22  145 1    
    47   23  146 1    
    48   23  147 1    
    49   23  148 1    
    50   24   25 am   BACKBONE|DICT|INTERRES
    51   24  149 1    
    52   25   26 2    
    53   25   27 1    
    54   27   28 1    
    55   27   29 1    
    56   27  150 1    
    57   28  151 1    
    58   28  152 1    
    59   28  153 1    
    60   29   30 am   BACKBONE|DICT|INTERRES
    61   29  154 1    
    62   30   31 2    
    63   30   32 1    
    64   32   33 1    
    65   32   34 1    
    66   32  155 1    
    67   33  156 1    
    68   33  157 1    
    69   33  158 1    
    70   34   35 am   BACKBONE|DICT|INTERRES
    71   34  159 1    
    72   35   36 2    
    73   35   37 1    
    74   37   38 1    
    75   37   39 1    
    76   37  160 1    
    77   38  161 1    
    78   38  162 1    
    79   38  163 1    
    80   39   40 am   BACKBONE|DICT|INTERRES
    81   39  164 1    
    82   40   41 2    
    83   40   42 1    
    84   42   43 1    
    85   42   44 1    
    86   42  165 1    
    87   43  166 1    
    88   43  167 1    
    89   43  168 1    
    90   44   45 am   BACKBONE|DICT|INTERRES
    91   44  169 1    
    92   45   46 2    
    93   45   47 1    
    94   47   48 1    
    95   47   49 1    
    96   47  170 1    
    97   48  171 1    
    98   48  172 1    
    99   48  173 1    
   100   49   50 am   BACKBONE|DICT|INTERRES
   101   49  174 1    
   102   50   51 2    
   103   50   52 1    
   104   52   53 1    
   105   52   54 1    
   106   52  175 1    
   107   53  176 1    
   108   53  177 1    
   109   53  178 1    
   110   54   55 am   BACKBONE|DICT|INTERRES
   111   54  179 1    
   112   55   56 2    
   113   55   57 1    
   114   57   58 1    
   115   57   59 1    
   116   57  180 1    
   117   58  181 1    
   118   58  182 1    
   119   58  183 1    
   120   59   60 am   BACKBONE|DICT|INTERRES
   121   59  184 1    
   122   60   61 2    
   123   60   62 1    
   124   62   63 1    
   125   62   64 1    
   126   62  185 1    
   127   63  186 1    
   128   63  187 1    
   129   63  188 1    
   130   64   65 am   BACKBONE|DICT|INTERRES
   131   64  189 1    
   132   65   66 2    
   133   67   68 2    
   134   67   69 am   BACKBONE|DICT|INTERRES
   135   69   70 1    
   136   69  190 1    
   137   70   71 1    
   138   70   72 1    
   139   70  191 1    
   140   71  192 1    
   141   71  193 1    
   142   71  194 1    
   143   72   73 2    
   144   72   74 am   BACKBONE|DICT|INTERRES
   145   74   75 1    
   146   74  195 1    
   147   75   76 1    
   148   75   77 1    
   149   75  196 1    
   150   76  197 1    
   151   76  198 1    
   152   76  199 1    
   153   77   78 2    
   154   77   79 am   BACKBONE|DICT|INTERRES
   155   79   80 1    
   156   79  200 1    
   157   80   81 1    
   158   80   82 1    
   159   80  201 1    
   160   81  202 1    
   161   81  203 1    
   162   81  204 1    
   163   82   83 2    
   164   82   84 am   BACKBONE|DICT|INTERRES
   165   84   85 1    
   166   84  205 1    
   167   85   86 1    
   168   85   87 1    
   169   85  206 1    
   170   86  207 1    
   171   86  208 1    
   172   86  209 1    
   173   87   88 2    
   174   87   89 am   BACKBONE|DICT|INTERRES
   175   89   90 1    
   176   89  210 1    
   177   90   91 1    
   178   90   92 1    
   179   90  211 1    
   180   91  212 1    
   181   91  213 1    
   182   91  214 1    
   183   92   93 2    
   184   92   94 am   BACKBONE|DICT|INTERRES
   185   94   95 1    
   186   94  215 1    
   187   95   96 1    
   188   95   97 1    
   189   95  216 1    
   190   96  217 1    
   191   96  218 1    
   192   96  219 1    
   193   97   98 2    
   194   97   99 am   BACKBONE|DICT|INTERRES
   195   99  100 1    
   196   99  220 1    
   197  100  101 1    
   198  100  102 1    
   199  100  221 1    
   200  101  222 1    
   201  101  223 1    
   202  101  224 1    
   203  102  103 2    
   204  102  104 am   BACKBONE|DICT|INTERRES
   205  104  105 1    
   206  104  225 1    
   207  105  106 1    
   208  105  107 1    
   209  105  226 1    
   210  106  227 1    
   211  106  228 1    
   212  106  229 1    
   213  107  108 2    
   214  107  109 am   BACKBONE|DICT|INTERRES
   215  109  110 1    
   216  109  230 1    
   217  110  111 1    
   218  110  112 1    
   219  110  231 1    
   220  111  232 1    
   221  111  233 1    
   222  111  234 1    
   223  112  113 2    
   224  112  114 am   BACKBONE|DICT|INTERRES
   225  114  115 1    
   226  114  235 1    
   227  115  116 1    
   228  115  117 1    
   229  115  236 1    
   230  116  237 1    
   231  116  238 1    
   232  116  239 1    
   233  117  118 2    
   234  117  119 am   BACKBONE|DICT|INTERRES
   235  119  120 1    
   236  119  240 1    
   237  120  121 1    
   238  120  124 1    
   239  120  241 1    
   240  121  122 am   BACKBONE|DICT|INTERRES
   241  121  123 2    
   242  122  242 1    
   243  122  243 1    
   244  124  125 1    
   245  124  244 1    
   246  124  245 1    
   247  125  126 1    
   248  126  246 1    
   249  126  247 1    
@<TRIPOS>SUBSTRUCTURE
     1 UNK         1 GROUP             0       ****    0 ROOT    
