@<TRIPOS>MOLECULE
3R540
247   249    1
SMALL
USER_CHARGES


@<TRIPOS>ATOM
      1 CA         -2.0927  -14.6863  -42.1993 C.3       0 UNK        -0.1800 
      2 C          -2.3029  -13.5893  -43.2340 C.2       0 UNK         0.5000 
      3 O          -2.7919  -12.5109  -42.8958 O.2       0 UNK        -0.5000 
      4 N          -1.9354  -13.8584  -44.4925 N.am      1 UNK        -0.5000 
      5 CA         -2.0981  -12.9720  -45.6509 C.3       1 UNK         0.1400 
      6 C6         -2.1187  -13.7726  -46.9789 C.3       23 UNK        -0.0398 
      7 S7         -3.5025  -14.9642  -47.0286 S.3       23 UNK        -0.2404 
      8 C8         -3.4616  -15.5149  -48.7618 C.3       23 UNK        -0.0205 
      9 C9         -2.4666  -16.6449  -48.9770 C.ar      23 UNK        -0.0193 
     10 C10        -1.1439  -16.3636  -49.3265 C.ar      23 UNK        -0.1150 
     11 C11        -0.2310  -17.3969  -49.5495 C.ar      23 UNK        -0.0193 
     12 C12        -0.6641  -18.7228  -49.4339 C.ar      23 UNK        -0.1150 
     13 C13        -1.9851  -19.0289  -49.0781 C.ar      23 UNK        -0.0193 
     14 C14        -2.8753  -17.9759  -48.8446 C.ar      23 UNK        -0.1150 
     15 C15        -2.5018  -20.4641  -48.9241 C.3       23 UNK        -0.0205 
     16 S16        -1.3807  -21.7965  -49.4854 S.3       23 UNK        -0.2404 
     17 C17        -0.1250  -21.7833  -48.1556 C.3       23 UNK        -0.0398 
     18 CA         -0.0217  -23.0427  -47.2591 C.3       11 UNK         0.1400 
     19 N           0.8916  -22.7892  -46.1423 N.am      11 UNK        -0.5000 
     20 C           1.3043  -23.6752  -45.2265 C.2       10 UNK         0.5000 
     21 O           0.9773  -24.8615  -45.2195 O.2       10 UNK        -0.5000 
     22 CA          2.2147  -23.1257  -44.1131 C.3       10 UNK         0.1400 
     23 CB          3.6594  -22.9612  -44.6098 C.3       10 UNK        -0.1800 
     24 N           1.7270  -21.8461  -43.5972 N.am      10 UNK        -0.5000 
     25 C           0.6525  -21.7152  -42.8063 C.2       9 UNK         0.5000 
     26 O           0.0050  -22.6669  -42.3691 O.2       9 UNK        -0.5000 
     27 CA          0.2117  -20.2793  -42.4622 C.3       9 UNK         0.1400 
     28 CB          0.9879  -19.7525  -41.2460 C.3       9 UNK        -0.1800 
     29 N           0.3651  -19.3421  -43.5760 N.am      9 UNK        -0.5000 
     30 C          -0.2838  -19.4349  -44.7450 C.2       8 UNK         0.5000 
     31 O          -1.1005  -20.3152  -45.0077 O.2       8 UNK        -0.5000 
     32 CA          0.0807  -18.4059  -45.8259 C.3       8 UNK         0.1400 
     33 CB         -0.6548  -17.0819  -45.5921 C.3       8 UNK        -0.1800 
     34 N           1.5196  -18.1684  -45.9255 N.am      8 UNK        -0.5000 
     35 C           2.4386  -19.0985  -46.2202 C.2       7 UNK         0.5000 
     36 O           2.1707  -20.2762  -46.4531 O.2       7 UNK        -0.5000 
     37 CA          3.9083  -18.6504  -46.1978 C.3       7 UNK         0.1400 
     38 CB          4.3067  -17.9749  -47.5181 C.3       7 UNK        -0.1800 
     39 N           4.1715  -17.7433  -45.0829 N.am      7 UNK        -0.5000 
     40 C           4.2866  -18.1324  -43.8062 C.2       6 UNK         0.5000 
     41 O           4.2449  -19.3080  -43.4413 O.2       6 UNK        -0.5000 
     42 CA          4.4435  -17.0123  -42.7600 C.3       6 UNK         0.1400 
     43 CB          5.9131  -16.5809  -42.6432 C.3       6 UNK        -0.1800 
     44 N           3.6156  -15.8392  -43.0526 N.am      6 UNK        -0.5000 
     45 C           2.2762  -15.8420  -43.0233 C.2       5 UNK         0.5000 
     46 O           1.6014  -16.8306  -42.7367 O.2       5 UNK        -0.5000 
     47 CA          1.5617  -14.5352  -43.4147 C.3       5 UNK         0.1400 
     48 CB          1.4121  -13.6228  -42.1895 C.3       5 UNK        -0.1800 
     49 N           2.1648  -13.7898  -44.5269 N.am      5 UNK        -0.5000 
     50 C           2.4527  -14.2952  -45.7383 C.2       4 UNK         0.5000 
     51 O           2.3141  -15.4850  -46.0172 O.2       4 UNK        -0.5000 
     52 CA          2.9725  -13.3405  -46.8301 C.3       4 UNK         0.1400 
     53 CB          2.2703  -13.6010  -48.1743 C.3       4 UNK        -0.1800 
     54 N           2.7941  -11.9350  -46.4721 N.am      4 UNK        -0.5000 
     55 C           3.7474  -11.1413  -45.9658 C.2       3 UNK         0.5000 
     56 O           4.9004  -11.5150  -45.7481 O.2       3 UNK        -0.5000 
     57 CA          3.3532   -9.6872  -45.6325 C.3       3 UNK         0.1400 
     58 CB          3.8461   -8.7329  -46.7311 C.3       3 UNK        -0.1800 
     59 N           1.9137   -9.4887  -45.4461 N.am      3 UNK        -0.5000 
     60 C           1.1865  -10.0213  -44.4556 C.2       2 UNK         0.5000 
     61 O           1.6677  -10.7343  -43.5754 O.2       2 UNK        -0.5000 
     62 CA         -0.3306   -9.7400  -44.4534 C.3       2 UNK         0.1400 
     63 CB         -0.7728   -8.6602  -45.4668 C.3       2 UNK        -0.1800 
     64 N          -1.1212  -10.9595  -44.6467 N.am      2 UNK        -0.5000 
     65 C          -1.0478  -11.8362  -45.6581 C.2       1 UNK         0.5000 
     66 O          -0.2097  -11.7703  -46.5597 O.2       1 UNK        -0.5000 
     67 C          -1.3889  -23.5667  -46.7730 C.2       11 UNK         0.5000 
     68 O          -1.8540  -24.5854  -47.2831 O.2       11 UNK        -0.5000 
     69 N          -1.9693  -22.9092  -45.7579 N.am      12 UNK        -0.5000 
     70 CA         -3.2798  -23.2030  -45.1647 C.3       12 UNK         0.1400 
     71 CB         -3.5436  -22.2049  -44.0261 C.3       12 UNK        -0.1800 
     72 C          -3.4815  -24.6478  -44.6602 C.2       12 UNK         0.5000 
     73 O          -4.6256  -25.0751  -44.4997 O.2       12 UNK        -0.5000 
     74 N          -2.3843  -25.3772  -44.4202 N.am      13 UNK        -0.5000 
     75 CA         -2.3927  -26.7842  -44.0287 C.3       13 UNK         0.1400 
     76 CB         -1.0222  -27.1378  -43.4308 C.3       13 UNK        -0.1800 
     77 C          -2.7414  -27.7504  -45.1810 C.2       13 UNK         0.5000 
     78 O          -3.1088  -28.8912  -44.8942 O.2       13 UNK        -0.5000 
     79 N          -2.6057  -27.3144  -46.4435 N.am      14 UNK        -0.5000 
     80 CA         -2.7737  -28.1707  -47.6236 C.3       14 UNK         0.1400 
     81 CB         -1.3929  -28.6865  -48.0641 C.3       14 UNK        -0.1800 
     82 C          -3.4958  -27.4943  -48.8034 C.2       14 UNK         0.5000 
     83 O          -4.0601  -28.2055  -49.6365 O.2       14 UNK        -0.5000 
     84 N          -3.4633  -26.1610  -48.8820 N.am      15 UNK        -0.5000 
     85 CA         -4.0084  -25.3582  -49.9733 C.3       15 UNK         0.1400 
     86 CB         -2.8544  -24.9734  -50.9182 C.3       15 UNK        -0.1800 
     87 C          -4.7518  -24.1297  -49.4189 C.2       15 UNK         0.5000 
     88 O          -4.8492  -23.9527  -48.2033 O.2       15 UNK        -0.5000 
     89 N          -5.2963  -23.3152  -50.3262 N.am      16 UNK        -0.5000 
     90 CA         -6.0956  -22.1266  -50.0501 C.3       16 UNK         0.1400 
     91 CB         -7.5180  -22.5447  -49.6245 C.3       16 UNK        -0.1800 
     92 C          -6.1262  -21.2603  -51.3189 C.2       16 UNK         0.5000 
     93 O          -5.5599  -21.6510  -52.3447 O.2       16 UNK        -0.5000 
     94 N          -6.8331  -20.1238  -51.2592 N.am      17 UNK        -0.5000 
     95 CA         -7.0816  -19.2294  -52.3978 C.3       17 UNK         0.1400 
     96 CB         -7.8333  -17.9834  -51.9088 C.3       17 UNK        -0.1800 
     97 C          -7.8364  -19.9015  -53.5636 C.2       17 UNK         0.5000 
     98 O          -7.6215  -19.5323  -54.7178 O.2       17 UNK        -0.5000 
     99 N          -8.6464  -20.9243  -53.2528 N.am      18 UNK        -0.5000 
    100 CA        -9.3092  -21.8049  -54.2200 C.3       18 UNK         0.1400 
    101 CB       -10.3044  -22.7029  -53.4695 C.3       18 UNK        -0.1800 
    102 C         -8.3282  -22.6646  -55.0479 C.2       18 UNK         0.5000 
    103 O         -8.6769  -23.0840  -56.1515 O.2       18 UNK        -0.5000 
    104 N         -7.1185  -22.8867  -54.5155 N.am      19 UNK        -0.5000 
    105 CA        -5.9977  -23.5592  -55.1744 C.3       19 UNK         0.1400 
    106 CB        -5.3946  -24.5818  -54.1947 C.3       19 UNK        -0.1800 
    107 C         -4.9413  -22.5427  -55.6629 C.2       19 UNK         0.5000 
    108 O         -3.8024  -22.9307  -55.9232 O.2       19 UNK        -0.5000 
    109 N         -5.3364  -21.2644  -55.7733 N.am      20 UNK        -0.5000 
    110 CA        -4.5553  -20.1030  -56.2114 C.3       20 UNK         0.1400 
    111 CB        -3.9821  -20.3043  -57.6304 C.3       20 UNK        -0.1800 
    112 C         -3.4922  -19.6235  -55.2011 C.2       20 UNK         0.5000 
    113 O         -2.6366  -18.8180  -55.5747 O.2       20 UNK        -0.5000 
    114 N         -3.5809  -20.0703  -53.9372 N.am      21 UNK        -0.5000 
    115 CA        -2.7267  -19.6738  -52.8118 C.3       21 UNK         0.1400 
    116 CB        -3.0619  -18.2204  -52.3975 C.3       21 UNK        -0.1800 
    117 C         -1.2275  -19.9226  -53.1003 C.2       21 UNK         0.5000 
    118 O         -0.8639  -21.0362  -53.4831 O.2       21 UNK        -0.5000 
    119 N         -0.3961  -18.8859  -52.9425 N.am      22 UNK        -0.5000 
    120 CA         1.0225  -18.8652  -53.3308 C.3       22 UNK         0.1400 
    121 C          1.2677  -18.7231  -54.8659 C.2       22 UNK         0.5000 
    122 N          0.2562  -18.5735  -55.7131 N.am      22 UNK        -0.7600 
    123 O          2.4134  -18.7605  -55.3070 O.2       22 UNK        -0.5000 
    124 C124        1.8071  -17.7859  -52.5357 C.3       23 UNK        -0.0398 
    125 S125        2.1497  -18.2846  -50.8140 S.3       23 UNK        -0.2404 
    126 C126        1.2283  -17.0488  -49.8331 C.3       23 UNK        -0.0205 
    127 H127       -3.0534  -15.0118  -41.8006 H         1 UNK         0.0600 
    128 H128       -1.4906  -14.3121  -41.3717 H         1 UNK         0.0600 
    129 H129       -1.5884  -15.5560  -42.6209 H         1 UNK         0.0600 
    130 H130       -1.5642  -14.7704  -44.7095 H         1 UNK         0.3000 
    131 H131       -3.0703  -12.4818  -45.5625 H         1 UNK         0.0600 
    132 H132       -2.2266  -13.0936  -47.8267 H         1 UNK         0.0800 
    133 H133       -1.1778  -14.3033  -47.1272 H         1 UNK         0.0800 
    134 H134       -4.4607  -15.8517  -49.0426 H         1 UNK         0.0800 
    135 H135       -3.2339  -14.6744  -49.4190 H         1 UNK         0.0800 
    136 H136       -0.8215  -15.3353  -49.4109 H         1 UNK         0.1150 
    137 H137        0.0474  -19.5137  -49.6028 H         1 UNK         0.1150 
    138 H138       -3.8978  -18.1922  -48.5685 H         1 UNK         0.1150 
    139 H139       -2.7661  -20.6387  -47.8798 H         1 UNK         0.0800 
    140 H140       -3.4262  -20.5567  -49.4937 H         1 UNK         0.0800 
    141 H141        0.8442  -21.5967  -48.6203 H         1 UNK         0.0800 
    142 H142       -0.3136  -20.9173  -47.5253 H         1 UNK         0.0800 
    143 H143        0.4235  -23.8379  -47.8604 H         1 UNK         0.0600 
    144 H144        1.2632  -21.8435  -46.0881 H         1 UNK         0.3000 
    145 H145        2.2199  -23.8502  -43.2958 H         1 UNK         0.0600 
    146 H146        4.3142  -22.6196  -43.8079 H         1 UNK         0.0600 
    147 H147        4.0564  -23.9098  -44.9732 H         1 UNK         0.0600 
    148 H148        3.7302  -22.2418  -45.4260 H         1 UNK         0.0600 
    149 H149        2.2008  -21.0120  -43.9159 H         1 UNK         0.3000 
    150 H150       -0.8483  -20.3142  -42.2021 H         1 UNK         0.0600 
    151 H151        0.8941  -20.4303  -40.3966 H         1 UNK         0.0600 
    152 H152        0.6098  -18.7803  -40.9292 H         1 UNK         0.0600 
    153 H153        2.0508  -19.6420  -41.4654 H         1 UNK         0.0600 
    154 H154        0.9846  -18.5514  -43.4218 H         1 UNK         0.3000 
    155 H155       -0.2482  -18.7994  -46.7842 H         1 UNK         0.0600 
    156 H156       -0.3750  -16.3440  -46.3426 H         1 UNK         0.0600 
    157 H157       -0.4347  -16.6726  -44.6083 H         1 UNK         0.0600 
    158 H158       -1.7343  -17.2233  -45.6579 H         1 UNK         0.0600 
    159 H159        1.8308  -17.2073  -45.8006 H         1 UNK         0.3000 
    160 H160        4.5257  -19.5433  -46.0777 H         1 UNK         0.0600 
    161 H161        3.7703  -17.0395  -47.6753 H         1 UNK         0.0600 
    162 H162        4.0938  -18.6246  -48.3679 H         1 UNK         0.0600 
    163 H163        5.3737  -17.7534  -47.5383 H         1 UNK         0.0600 
    164 H164        4.1370  -16.7547  -45.2875 H         1 UNK         0.3000 
    165 H165        4.1292  -17.4157  -41.7949 H         1 UNK         0.0600 
    166 H166        6.2801  -16.1412  -43.5715 H         1 UNK         0.0600 
    167 H167        6.0466  -15.8473  -41.8479 H         1 UNK         0.0600 
    168 H168        6.5521  -17.4331  -42.4083 H         1 UNK         0.0600 
    169 H169        4.0936  -14.9867  -43.3050 H         1 UNK         0.3000 
    170 H170        0.5615  -14.8154  -43.7383 H         1 UNK         0.0600 
    171 H171        1.0587  -14.1799  -41.3206 H         1 UNK         0.0600 
    172 H172        2.3587  -13.1548  -41.9172 H         1 UNK         0.0600 
    173 H173        0.6853  -12.8328  -42.3761 H         1 UNK         0.0600 
    174 H174        2.2925  -12.7966  -44.3793 H         1 UNK         0.3000 
    175 H175        4.0331  -13.5611  -46.9640 H         1 UNK         0.0600 
    176 H176        2.6108  -12.9039  -48.9399 H         1 UNK         0.0600 
    177 H177        2.4852  -14.6059  -48.5376 H         1 UNK         0.0600 
    178 H178        1.1873  -13.5062  -48.0916 H         1 UNK         0.0600 
    179 H179        1.8521  -11.5712  -46.5785 H         1 UNK         0.3000 
    180 H180        3.8525   -9.4211  -44.6985 H         1 UNK         0.0600 
    181 H181        3.3648   -8.9391  -47.6880 H         1 UNK         0.0600 
    182 H182        4.9228   -8.8279  -46.8781 H         1 UNK         0.0600 
    183 H183        3.6462   -7.6934  -46.4705 H         1 UNK         0.0600 
    184 H184        1.4402   -8.9342  -46.1445 H         1 UNK         0.3000 
    185 H185       -0.5681   -9.3722  -43.4543 H         1 UNK         0.0600 
    186 H186       -1.8357   -8.4432  -45.3606 H         1 UNK         0.0600 
    187 H187       -0.2400   -7.7224  -45.3037 H         1 UNK         0.0600 
    188 H188       -0.6043   -8.9680  -46.4995 H         1 UNK         0.0600 
    189 H189       -1.7927  -11.1707  -43.9138 H         1 UNK         0.3000 
    190 H190       -1.5155  -22.0661  -45.4116 H         1 UNK         0.3000 
    191 H191       -4.0280  -23.0298  -45.9383 H         1 UNK         0.0600 
    192 H192       -4.5010  -22.4004  -43.5415 H         1 UNK         0.0600 
    193 H193       -3.5775  -21.1815  -44.3997 H         1 UNK         0.0600 
    194 H194       -2.7686  -22.2583  -43.2604 H         1 UNK         0.0600 
    195 H195       -1.4797  -24.9584  -44.5904 H         1 UNK         0.3000 
    196 H196       -3.1453  -26.9185  -43.2489 H         1 UNK         0.0600 
    197 H197       -1.0138  -28.1600  -43.0506 H         1 UNK         0.0600 
    198 H198       -0.7703  -26.4795  -42.5990 H         1 UNK         0.0600 
    199 H199       -0.2281  -27.0593  -44.1741 H         1 UNK         0.0600 
    200 H200       -2.3065  -26.3575  -46.6054 H         1 UNK         0.3000 
    201 H201       -3.3888  -29.0352  -47.3656 H         1 UNK         0.0600 
    202 H202       -0.9210  -29.2733  -47.2759 H         1 UNK         0.0600 
    203 H203       -0.7225  -27.8641  -48.3172 H         1 UNK         0.0600 
    204 H204       -1.4736  -29.3288  -48.9420 H         1 UNK         0.0600 
    205 H205       -2.9957  -25.6134  -48.1619 H         1 UNK         0.3000 
    206 H206       -4.7457  -25.9346  -50.5358 H         1 UNK         0.0600 
    207 H207       -2.4367  -25.8578  -51.3993 H         1 UNK         0.0600 
    208 H208       -3.1753  -24.2988  -51.7116 H         1 UNK         0.0600 
    209 H209       -2.0458  -24.4835  -50.3768 H         1 UNK         0.0600 
    210 H210       -5.1277  -23.4672  -51.3121 H         1 UNK         0.3000 
    211 H211       -5.6252  -21.5495  -49.2522 H         1 UNK         0.0600 
    212 H212       -8.0251  -23.1018  -50.4134 H         1 UNK         0.0600 
    213 H213       -8.1353  -21.6795  -49.3811 H         1 UNK         0.0600 
    214 H214       -7.4974  -23.1752  -48.7355 H         1 UNK         0.0600 
    215 H215       -7.2705  -19.8644  -50.3867 H         1 UNK         0.3000 
    216 H216       -6.1150  -18.9115  -52.7904 H         1 UNK         0.0600 
    217 H217       -8.0138  -17.2884  -52.7301 H         1 UNK         0.0600 
    218 H218       -7.2584  -17.4478  -51.1530 H         1 UNK         0.0600 
    219 H219       -8.8012  -18.2406  -51.4770 H         1 UNK         0.0600 
    220 H220       -8.7736  -21.1511  -52.2778 H         1 UNK         0.3000 
    221 H221       -9.8682  -21.1792  -54.9189 H         1 UNK         0.0600 
    222 H222       -9.8013  -23.3395  -52.7404 H         1 UNK         0.0600 
    223 H223      -11.0506  -22.1098  -52.9405 H         1 UNK         0.0600 
    224 H224      -10.8405  -23.3552  -54.1602 H         1 UNK         0.0600 
    225 H225       -6.8951  -22.4649  -53.6215 H         1 UNK         0.3000 
    226 H226       -6.3482  -24.1022  -56.0541 H         1 UNK         0.0600 
    227 H227       -6.1522  -25.2775  -53.8337 H         1 UNK         0.0600 
    228 H228       -4.6147  -25.1741  -54.6746 H         1 UNK         0.0600 
    229 H229       -4.9483  -24.0924  -53.3304 H         1 UNK         0.0600 
    230 H230       -6.2899  -21.0461  -55.5110 H         1 UNK         0.3000 
    231 H231       -5.2745  -19.2854  -56.2755 H         1 UNK         0.0600 
    232 H232       -3.5791  -19.3708  -58.0246 H         1 UNK         0.0600 
    233 H233       -4.7523  -20.6408  -58.3244 H         1 UNK         0.0600 
    234 H234       -3.1732  -21.0350  -57.6430 H         1 UNK         0.0600 
    235 H235       -4.2949  -20.7547  -53.7149 H         1 UNK         0.3000 
    236 H236       -2.9826  -20.3273  -51.9771 H         1 UNK         0.0600 
    237 H237       -4.0834  -18.1446  -52.0285 H         1 UNK         0.0600 
    238 H238       -2.4185  -17.8685  -51.5952 H         1 UNK         0.0600 
    239 H239       -2.9549  -17.5185  -53.2247 H         1 UNK         0.0600 
    240 H240       -0.7801  -18.0084  -52.6262 H         1 UNK         0.3000 
    241 H241        1.4476  -19.8370  -53.0727 H         1 UNK         0.0600 
    242 H242       -0.7125  -18.5893  -55.4080 H         1 UNK         0.3800 
    243 H243        0.4550  -18.4883  -56.6969 H         1 UNK         0.3800 
    244 H244        2.7827  -17.5970  -52.9869 H         1 UNK         0.0800 
    245 H245        1.2812  -16.8307  -52.5623 H         1 UNK         0.0800 
    246 H246        1.3052  -16.0734  -50.3155 H         1 UNK         0.0800 
    247 H247        1.7239  -16.9495  -48.8676 H         1 UNK         0.0800 
@<TRIPOS>BOND
     1    1    2 1    
     2    1  127 1    
     3    1  128 1    
     4    1  129 1    
     5    2    3 2    
     6    2    4 am   BACKBONE|DICT|INTERRES
     7    4    5 1    
     8    4  130 1    
     9    5    6 1    
    10    5   65 1    
    11    5  131 1    
    12    6    7 1    
    13    6  132 1    
    14    6  133 1    
    15    7    8 1    
    16    8    9 1    
    17    8  134 1    
    18    8  135 1    
    19    9   10 ar   
    20    9   14 ar   
    21   10   11 ar   
    22   10  136 1    
    23   11   12 ar   
    24   11  126 1    
    25   12   13 ar   
    26   12  137 1    
    27   13   14 ar   
    28   13   15 1    
    29   14  138 1    
    30   15   16 1    
    31   15  139 1    
    32   15  140 1    
    33   16   17 1    
    34   17   18 1    
    35   17  141 1    
    36   17  142 1    
    37   18   19 1    
    38   18   67 1    
    39   18  143 1    
    40   19   20 am   BACKBONE|DICT|INTERRES
    41   19  144 1    
    42   20   21 2    
    43   20   22 1    
    44   22   23 1    
    45   22   24 1    
    46   22  145 1    
    47   23  146 1    
    48   23  147 1    
    49   23  148 1    
    50   24   25 am   BACKBONE|DICT|INTERRES
    51   24  149 1    
    52   25   26 2    
    53   25   27 1    
    54   27   28 1    
    55   27   29 1    
    56   27  150 1    
    57   28  151 1    
    58   28  152 1    
    59   28  153 1    
    60   29   30 am   BACKBONE|DICT|INTERRES
    61   29  154 1    
    62   30   31 2    
    63   30   32 1    
    64   32   33 1    
    65   32   34 1    
    66   32  155 1    
    67   33  156 1    
    68   33  157 1    
    69   33  158 1    
    70   34   35 am   BACKBONE|DICT|INTERRES
    71   34  159 1    
    72   35   36 2    
    73   35   37 1    
    74   37   38 1    
    75   37   39 1    
    76   37  160 1    
    77   38  161 1    
    78   38  162 1    
    79   38  163 1    
    80   39   40 am   BACKBONE|DICT|INTERRES
    81   39  164 1    
    82   40   41 2    
    83   40   42 1    
    84   42   43 1    
    85   42   44 1    
    86   42  165 1    
    87   43  166 1    
    88   43  167 1    
    89   43  168 1    
    90   44   45 am   BACKBONE|DICT|INTERRES
    91   44  169 1    
    92   45   46 2    
    93   45   47 1    
    94   47   48 1    
    95   47   49 1    
    96   47  170 1    
    97   48  171 1    
    98   48  172 1    
    99   48  173 1    
   100   49   50 am   BACKBONE|DICT|INTERRES
   101   49  174 1    
   102   50   51 2    
   103   50   52 1    
   104   52   53 1    
   105   52   54 1    
   106   52  175 1    
   107   53  176 1    
   108   53  177 1    
   109   53  178 1    
   110   54   55 am   BACKBONE|DICT|INTERRES
   111   54  179 1    
   112   55   56 2    
   113   55   57 1    
   114   57   58 1    
   115   57   59 1    
   116   57  180 1    
   117   58  181 1    
   118   58  182 1    
   119   58  183 1    
   120   59   60 am   BACKBONE|DICT|INTERRES
   121   59  184 1    
   122   60   61 2    
   123   60   62 1    
   124   62   63 1    
   125   62   64 1    
   126   62  185 1    
   127   63  186 1    
   128   63  187 1    
   129   63  188 1    
   130   64   65 am   BACKBONE|DICT|INTERRES
   131   64  189 1    
   132   65   66 2    
   133   67   68 2    
   134   67   69 am   BACKBONE|DICT|INTERRES
   135   69   70 1    
   136   69  190 1    
   137   70   71 1    
   138   70   72 1    
   139   70  191 1    
   140   71  192 1    
   141   71  193 1    
   142   71  194 1    
   143   72   73 2    
   144   72   74 am   BACKBONE|DICT|INTERRES
   145   74   75 1    
   146   74  195 1    
   147   75   76 1    
   148   75   77 1    
   149   75  196 1    
   150   76  197 1    
   151   76  198 1    
   152   76  199 1    
   153   77   78 2    
   154   77   79 am   BACKBONE|DICT|INTERRES
   155   79   80 1    
   156   79  200 1    
   157   80   81 1    
   158   80   82 1    
   159   80  201 1    
   160   81  202 1    
   161   81  203 1    
   162   81  204 1    
   163   82   83 2    
   164   82   84 am   BACKBONE|DICT|INTERRES
   165   84   85 1    
   166   84  205 1    
   167   85   86 1    
   168   85   87 1    
   169   85  206 1    
   170   86  207 1    
   171   86  208 1    
   172   86  209 1    
   173   87   88 2    
   174   87   89 am   BACKBONE|DICT|INTERRES
   175   89   90 1    
   176   89  210 1    
   177   90   91 1    
   178   90   92 1    
   179   90  211 1    
   180   91  212 1    
   181   91  213 1    
   182   91  214 1    
   183   92   93 2    
   184   92   94 am   BACKBONE|DICT|INTERRES
   185   94   95 1    
   186   94  215 1    
   187   95   96 1    
   188   95   97 1    
   189   95  216 1    
   190   96  217 1    
   191   96  218 1    
   192   96  219 1    
   193   97   98 2    
   194   97   99 am   BACKBONE|DICT|INTERRES
   195   99  100 1    
   196   99  220 1    
   197  100  101 1    
   198  100  102 1    
   199  100  221 1    
   200  101  222 1    
   201  101  223 1    
   202  101  224 1    
   203  102  103 2    
   204  102  104 am   BACKBONE|DICT|INTERRES
   205  104  105 1    
   206  104  225 1    
   207  105  106 1    
   208  105  107 1    
   209  105  226 1    
   210  106  227 1    
   211  106  228 1    
   212  106  229 1    
   213  107  108 2    
   214  107  109 am   BACKBONE|DICT|INTERRES
   215  109  110 1    
   216  109  230 1    
   217  110  111 1    
   218  110  112 1    
   219  110  231 1    
   220  111  232 1    
   221  111  233 1    
   222  111  234 1    
   223  112  113 2    
   224  112  114 am   BACKBONE|DICT|INTERRES
   225  114  115 1    
   226  114  235 1    
   227  115  116 1    
   228  115  117 1    
   229  115  236 1    
   230  116  237 1    
   231  116  238 1    
   232  116  239 1    
   233  117  118 2    
   234  117  119 am   BACKBONE|DICT|INTERRES
   235  119  120 1    
   236  119  240 1    
   237  120  121 1    
   238  120  124 1    
   239  120  241 1    
   240  121  122 am   BACKBONE|DICT|INTERRES
   241  121  123 2    
   242  122  242 1    
   243  122  243 1    
   244  124  125 1    
   245  124  244 1    
   246  124  245 1    
   247  125  126 1    
   248  126  246 1    
   249  126  247 1    
@<TRIPOS>SUBSTRUCTURE
     1 UNK         1 GROUP             0       ****    0 ROOT    
