@<TRIPOS>MOLECULE
3R540
247   249    1
SMALL
USER_CHARGES


@<TRIPOS>ATOM
      1 CA         -0.6241   -8.4032  -48.0448 C.3       0 UNK        -0.1800 
      2 C           0.0048   -9.7567  -47.7462 C.2       0 UNK         0.5000 
      3 O           1.2096   -9.8338  -47.5173 O.2       0 UNK        -0.5000 
      4 N          -0.8080  -10.8192  -47.7515 N.am      1 UNK        -0.5000 
      5 CA         -0.4165  -12.2059  -47.4631 C.3       1 UNK         0.1400 
      6 C6         -1.3779  -13.2270  -48.1308 C.3       23 UNK        -0.0398 
      7 S7         -3.1582  -12.7977  -48.0548 S.3       23 UNK        -0.2404 
      8 C8         -3.8108  -13.9953  -46.8406 C.3       23 UNK        -0.0205 
      9 C9         -3.9351  -15.4502  -47.3043 C.ar      23 UNK        -0.0193 
     10 C10        -3.3647  -15.9345  -48.4899 C.ar      23 UNK        -0.1150 
     11 C11        -3.4451  -17.2903  -48.8273 C.ar      23 UNK        -0.0193 
     12 C12        -4.0861  -18.1693  -47.9537 C.ar      23 UNK        -0.1150 
     13 C13        -4.6725  -17.7086  -46.7718 C.ar      23 UNK        -0.0193 
     14 C14        -4.6097  -16.3460  -46.4684 C.ar      23 UNK        -0.1150 
     15 C15        -5.2861  -18.6773  -45.7674 C.3       23 UNK        -0.0205 
     16 S16        -6.2224  -20.0406  -46.5331 S.3       23 UNK        -0.2404 
     17 C17        -5.9024  -21.3906  -45.3491 C.3       23 UNK        -0.0398 
     18 CA         -4.8806  -22.4150  -45.8985 C.3       11 UNK         0.1400 
     19 N          -3.5402  -21.8445  -46.1124 N.am      11 UNK        -0.5000 
     20 C          -2.5418  -22.4753  -46.7486 C.2       10 UNK         0.5000 
     21 O          -2.6462  -23.6126  -47.2078 O.2       10 UNK        -0.5000 
     22 CA         -1.1933  -21.7487  -46.8808 C.3       10 UNK         0.1400 
     23 CB         -1.1251  -20.9983  -48.2187 C.3       10 UNK        -0.1800 
     24 N          -0.8757  -20.8382  -45.7761 N.am      10 UNK        -0.5000 
     25 C          -0.7185  -21.2209  -44.4971 C.2       9 UNK         0.5000 
     26 O          -0.9562  -22.3630  -44.1035 O.2       9 UNK        -0.5000 
     27 CA         -0.1989  -20.1821  -43.4807 C.3       9 UNK         0.1400 
     28 CB          1.2680  -20.4716  -43.1285 C.3       9 UNK        -0.1800 
     29 N          -0.3115  -18.8008  -43.9484 N.am      9 UNK        -0.5000 
     30 C          -1.4655  -18.1218  -44.0045 C.2       8 UNK         0.5000 
     31 O          -2.5279  -18.5692  -43.5727 O.2       8 UNK        -0.5000 
     32 CA         -1.4560  -16.7281  -44.6674 C.3       8 UNK         0.1400 
     33 CB         -1.5863  -15.6194  -43.6146 C.3       8 UNK        -0.1800 
     34 N          -0.3034  -16.4452  -45.5237 N.am      8 UNK        -0.5000 
     35 C           0.0649  -17.1584  -46.5968 C.2       7 UNK         0.5000 
     36 O          -0.5719  -18.1183  -47.0268 O.2       7 UNK        -0.5000 
     37 CA          1.4146  -16.7989  -47.2458 C.3       7 UNK         0.1400 
     38 CB          1.2240  -15.8771  -48.4586 C.3       7 UNK        -0.1800 
     39 N           2.3787  -16.1908  -46.3238 N.am      7 UNK        -0.5000 
     40 C           2.8556  -16.7482  -45.2026 C.2       6 UNK         0.5000 
     41 O           2.4892  -17.8517  -44.7958 O.2       6 UNK        -0.5000 
     42 CA          3.8796  -15.9521  -44.3650 C.3       6 UNK         0.1400 
     43 CB          5.2393  -16.6759  -44.3206 C.3       6 UNK        -0.1800 
     44 N           4.0597  -14.5375  -44.7227 N.am      6 UNK        -0.5000 
     45 C           4.5619  -14.0090  -45.8506 C.2       5 UNK         0.5000 
     46 O           4.8614  -14.6709  -46.8438 O.2       5 UNK        -0.5000 
     47 CA          4.7586  -12.4799  -45.8862 C.3       5 UNK         0.1400 
     48 CB          3.5947  -11.8079  -46.6234 C.3       5 UNK        -0.1800 
     49 N           4.8904  -11.8828  -44.5564 N.am      5 UNK        -0.5000 
     50 C           5.9441  -12.0658  -43.7482 C.2       4 UNK         0.5000 
     51 O           6.9618  -12.6713  -44.0876 O.2       4 UNK        -0.5000 
     52 CA          5.8533  -11.5012  -42.3162 C.3       4 UNK         0.1400 
     53 CB          6.7143  -10.2350  -42.1845 C.3       4 UNK        -0.1800 
     54 N           4.4992  -11.1974  -41.8417 N.am      4 UNK        -0.5000 
     55 C           3.4837  -12.0626  -41.7098 C.2       3 UNK         0.5000 
     56 O           3.5360  -13.2392  -42.0741 O.2       3 UNK        -0.5000 
     57 CA          2.1909  -11.5356  -41.0505 C.3       3 UNK         0.1400 
     58 CB          2.2428  -10.0441  -40.6443 C.3       3 UNK        -0.1800 
     59 N           0.9975  -11.7969  -41.8595 N.am      3 UNK        -0.5000 
     60 C           0.7569  -11.3756  -43.1088 C.2       2 UNK         0.5000 
     61 O           1.5596  -10.7338  -43.7914 O.2       2 UNK        -0.5000 
     62 CA         -0.6568  -11.6803  -43.6416 C.3       2 UNK         0.1400 
     63 CB         -1.6797  -10.7012  -43.0431 C.3       2 UNK        -0.1800 
     64 N          -0.7508  -11.6047  -45.0974 N.am      2 UNK        -0.5000 
     65 C          -0.2372  -12.4946  -45.9551 C.2       1 UNK         0.5000 
     66 O           0.3533  -13.5182  -45.6031 O.2       1 UNK        -0.5000 
     67 C          -4.8563  -23.6807  -45.0150 C.2       11 UNK         0.5000 
     68 O          -5.6645  -24.5826  -45.2383 O.2       11 UNK        -0.5000 
     69 N          -3.8987  -23.7640  -44.0785 N.am      12 UNK        -0.5000 
     70 CA         -3.6653  -24.9437  -43.2386 C.3       12 UNK         0.1400 
     71 CB         -2.7474  -24.5572  -42.0689 C.3       12 UNK        -0.1800 
     72 C          -3.0757  -26.1361  -44.0212 C.2       12 UNK         0.5000 
     73 O          -3.1761  -27.2728  -43.5591 O.2       12 UNK        -0.5000 
     74 N          -2.4955  -25.8573  -45.1951 N.am      13 UNK        -0.5000 
     75 CA         -1.9435  -26.8260  -46.1380 C.3       13 UNK         0.1400 
     76 CB         -0.5224  -26.3721  -46.5174 C.3       13 UNK        -0.1800 
     77 C          -2.8460  -26.9801  -47.3802 C.2       13 UNK         0.5000 
     78 O          -2.3615  -27.4248  -48.4204 O.2       13 UNK        -0.5000 
     79 N          -4.1289  -26.5959  -47.2698 N.am      14 UNK        -0.5000 
     80 CA         -5.1575  -26.6373  -48.3176 C.3       14 UNK         0.1400 
     81 CB         -5.5008  -28.0952  -48.6895 C.3       14 UNK        -0.1800 
     82 C          -4.7827  -25.7757  -49.5411 C.2       14 UNK         0.5000 
     83 O          -4.7630  -26.2663  -50.6713 O.2       14 UNK        -0.5000 
     84 N          -4.4406  -24.5085  -49.2693 N.am      15 UNK        -0.5000 
     85 CA         -3.9246  -23.5070  -50.2096 C.3       15 UNK         0.1400 
     86 CB         -4.9884  -23.1204  -51.2566 C.3       15 UNK        -0.1800 
     87 C          -2.5808  -23.9443  -50.8246 C.2       15 UNK         0.5000 
     88 O          -2.3735  -23.8035  -52.0300 O.2       15 UNK        -0.5000 
     89 N          -1.7075  -24.5011  -49.9708 N.am      16 UNK        -0.5000 
     90 CA         -0.4121  -25.1046  -50.3026 C.3       16 UNK         0.1400 
     91 CB          0.5942  -24.0119  -50.7210 C.3       16 UNK        -0.1800 
     92 C          -0.5544  -26.2317  -51.3481 C.2       16 UNK         0.5000 
     93 O           0.1053  -26.2008  -52.3861 O.2       16 UNK        -0.5000 
     94 N          -1.4668  -27.1755  -51.0744 N.am      17 UNK        -0.5000 
     95 CA         -1.9193  -28.2539  -51.9616 C.3       17 UNK         0.1400 
     96 CB         -0.8035  -29.3004  -52.1613 C.3       17 UNK        -0.1800 
     97 C          -2.4966  -27.7159  -53.2902 C.2       17 UNK         0.5000 
     98 O          -2.1787  -28.2291  -54.3645 O.2       17 UNK        -0.5000 
     99 N          -3.3173  -26.6623  -53.1750 N.am      18 UNK        -0.5000 
    100 CA        -3.9606  -25.8893  -54.2420 C.3       18 UNK         0.1400 
    101 CB        -4.9756  -26.7622  -55.0088 C.3       18 UNK        -0.1800 
    102 C         -2.9907  -25.1407  -55.1855 C.2       18 UNK         0.5000 
    103 O         -3.4121  -24.7156  -56.2631 O.2       18 UNK        -0.5000 
    104 N         -1.7225  -24.9717  -54.7843 N.am      19 UNK        -0.5000 
    105 CA        -0.7139  -24.2405  -55.5519 C.3       19 UNK         0.1400 
    106 CB         0.6900  -24.7077  -55.1420 C.3       19 UNK        -0.1800 
    107 C         -0.8333  -22.7149  -55.3900 C.2       19 UNK         0.5000 
    108 O         -0.4778  -21.9867  -56.3183 O.2       19 UNK        -0.5000 
    109 N         -1.3121  -22.2486  -54.2280 N.am      20 UNK        -0.5000 
    110 CA        -1.5113  -20.8308  -53.9423 C.3       20 UNK         0.1400 
    111 CB        -1.5053  -20.6029  -52.4216 C.3       20 UNK        -0.1800 
    112 C         -2.8327  -20.3526  -54.5627 C.2       20 UNK         0.5000 
    113 O         -3.8845  -20.9239  -54.2666 O.2       20 UNK        -0.5000 
    114 N         -2.7688  -19.2922  -55.3794 N.am      21 UNK        -0.5000 
    115 CA        -3.9262  -18.6775  -56.0432 C.3       21 UNK         0.1400 
    116 CB        -3.4320  -17.6031  -57.0237 C.3       21 UNK        -0.1800 
    117 C         -4.9540  -18.0817  -55.0596 C.2       21 UNK         0.5000 
    118 O         -6.1465  -18.0480  -55.3646 O.2       21 UNK        -0.5000 
    119 N         -4.4679  -17.6548  -53.8893 N.am      22 UNK        -0.5000 
    120 CA        -5.2609  -17.2478  -52.7221 C.3       22 UNK         0.1400 
    121 C         -5.9059  -18.4218  -51.9248 C.2       22 UNK         0.5000 
    122 N         -5.6359  -19.6848  -52.2344 N.am      22 UNK        -0.7600 
    123 O         -6.6940  -18.1809  -51.0153 O.2       22 UNK        -0.5000 
    124 C124       -4.4724  -16.2747  -51.8018 C.3       23 UNK        -0.0398 
    125 S125       -2.7169  -16.7143  -51.5138 S.3       23 UNK        -0.2404 
    126 C126       -2.8042  -17.8566  -50.0924 C.3       23 UNK        -0.0205 
    127 H127       -0.4770   -7.7275  -47.2021 H         1 UNK         0.0600 
    128 H128       -0.1584   -7.9592  -48.9246 H         1 UNK         0.0600 
    129 H129       -1.6951   -8.4855  -48.2320 H         1 UNK         0.0600 
    130 H130       -1.7891  -10.6949  -47.9627 H         1 UNK         0.3000 
    131 H131        0.5701  -12.3652  -47.9037 H         1 UNK         0.0600 
    132 H132       -1.1226  -13.3019  -49.1886 H         1 UNK         0.0800 
    133 H133       -1.2260  -14.2304  -47.7301 H         1 UNK         0.0800 
    134 H134       -3.1868  -13.9612  -45.9472 H         1 UNK         0.0800 
    135 H135       -4.7984  -13.6453  -46.5366 H         1 UNK         0.0800 
    136 H136       -2.8409  -15.2674  -49.1548 H         1 UNK         0.1150 
    137 H137       -4.1127  -19.2232  -48.1900 H         1 UNK         0.1150 
    138 H138       -5.0382  -15.9875  -45.5426 H         1 UNK         0.1150 
    139 H139       -4.4714  -19.0844  -45.1715 H         1 UNK         0.0800 
    140 H140       -5.9448  -18.1515  -45.0747 H         1 UNK         0.0800 
    141 H141       -6.8624  -21.8756  -45.1607 H         1 UNK         0.0800 
    142 H142       -5.5773  -20.9889  -44.3878 H         1 UNK         0.0800 
    143 H143       -5.2428  -22.7377  -46.8770 H         1 UNK         0.0600 
    144 H144       -3.3736  -20.9154  -45.7557 H         1 UNK         0.3000 
    145 H145       -0.4197  -22.5193  -46.8934 H         1 UNK         0.0600 
    146 H146       -1.8654  -20.2002  -48.2677 H         1 UNK         0.0600 
    147 H147       -0.1423  -20.5523  -48.3717 H         1 UNK         0.0600 
    148 H148       -1.3076  -21.6684  -49.0591 H         1 UNK         0.0600 
    149 H149       -0.6920  -19.8726  -46.0314 H         1 UNK         0.3000 
    150 H150       -0.7914  -20.2909  -42.5699 H         1 UNK         0.0600 
    151 H151        1.3789  -21.4710  -42.7059 H         1 UNK         0.0600 
    152 H152        1.6454  -19.7630  -42.3909 H         1 UNK         0.0600 
    153 H153        1.9107  -20.4146  -44.0078 H         1 UNK         0.0600 
    154 H154        0.5340  -18.3761  -44.3154 H         1 UNK         0.3000 
    155 H155       -2.3334  -16.6939  -45.3052 H         1 UNK         0.0600 
    156 H156       -2.4143  -15.8156  -42.9321 H         1 UNK         0.0600 
    157 H157       -1.7855  -14.6612  -44.0909 H         1 UNK         0.0600 
    158 H158       -0.6790  -15.5219  -43.0174 H         1 UNK         0.0600 
    159 H159        0.2524  -15.6326  -45.2824 H         1 UNK         0.3000 
    160 H160        1.8487  -17.7359  -47.6004 H         1 UNK         0.0600 
    161 H161        2.1314  -15.8347  -49.0612 H         1 UNK         0.0600 
    162 H162        0.9861  -14.8600  -48.1527 H         1 UNK         0.0600 
    163 H163        0.4196  -16.2302  -49.1061 H         1 UNK         0.0600 
    164 H164        2.7674  -15.2990  -46.5964 H         1 UNK         0.3000 
    165 H165        3.4833  -15.9419  -43.3486 H         1 UNK         0.0600 
    166 H166        5.6893  -16.7560  -45.3105 H         1 UNK         0.0600 
    167 H167        5.9429  -16.1524  -43.6730 H         1 UNK         0.0600 
    168 H168        5.1310  -17.6885  -43.9301 H         1 UNK         0.0600 
    169 H169        3.8321  -13.8942  -43.9705 H         1 UNK         0.3000 
    170 H170        5.6755  -12.2805  -46.4447 H         1 UNK         0.0600 
    171 H171        2.6568  -11.9322  -46.0831 H         1 UNK         0.0600 
    172 H172        3.7700  -10.7388  -46.7434 H         1 UNK         0.0600 
    173 H173        3.4594  -12.2289  -47.6205 H         1 UNK         0.0600 
    174 H174        4.0895  -11.3772  -44.2017 H         1 UNK         0.3000 
    175 H175        6.2648  -12.2628  -41.6509 H         1 UNK         0.0600 
    176 H176        6.3306   -9.4232  -42.8037 H         1 UNK         0.0600 
    177 H177        6.7482   -9.8848  -41.1527 H         1 UNK         0.0600 
    178 H178        7.7430  -10.4254  -42.4937 H         1 UNK         0.0600 
    179 H179        4.3444  -10.2472  -41.5376 H         1 UNK         0.3000 
    180 H180        2.0701  -12.1166  -40.1352 H         1 UNK         0.0600 
    181 H181        2.3792   -9.3870  -41.5042 H         1 UNK         0.0600 
    182 H182        3.0538   -9.8513  -39.9408 H         1 UNK         0.0600 
    183 H183        1.3188   -9.7457  -40.1488 H         1 UNK         0.0600 
    184 H184        0.2826  -12.3397  -41.3961 H         1 UNK         0.3000 
    185 H185       -0.9227  -12.6908  -43.3303 H         1 UNK         0.0600 
    186 H186       -2.6910  -10.9341  -43.3775 H         1 UNK         0.0600 
    187 H187       -1.6826  -10.7481  -41.9534 H         1 UNK         0.0600 
    188 H188       -1.4613   -9.6705  -43.3256 H         1 UNK         0.0600 
    189 H189       -1.1765  -10.7738  -45.4792 H         1 UNK         0.3000 
    190 H190       -3.2270  -23.0119  -43.9920 H         1 UNK         0.3000 
    191 H191       -4.6243  -25.2639  -42.8259 H         1 UNK         0.0600 
    192 H192       -1.7551  -24.2659  -42.4140 H         1 UNK         0.0600 
    193 H193       -3.1623  -23.7274  -41.4967 H         1 UNK         0.0600 
    194 H194       -2.6201  -25.3943  -41.3813 H         1 UNK         0.0600 
    195 H195       -2.4894  -24.8961  -45.5137 H         1 UNK         0.3000 
    196 H196       -1.8723  -27.8119  -45.6751 H         1 UNK         0.0600 
    197 H197        0.1123  -26.2969  -45.6344 H         1 UNK         0.0600 
    198 H198       -0.5285  -25.3968  -47.0046 H         1 UNK         0.0600 
    199 H199       -0.0458  -27.0807  -47.1958 H         1 UNK         0.0600 
    200 H200       -4.4306  -26.2157  -46.3822 H         1 UNK         0.3000 
    201 H201       -6.0543  -26.1881  -47.8882 H         1 UNK         0.0600 
    202 H202       -6.3368  -28.1314  -49.3890 H         1 UNK         0.0600 
    203 H203       -5.7897  -28.6686  -47.8088 H         1 UNK         0.0600 
    204 H204       -4.6605  -28.6058  -49.1611 H         1 UNK         0.0600 
    205 H205       -4.3670  -24.2489  -48.2944 H         1 UNK         0.3000 
    206 H206       -3.7091  -22.6109  -49.6265 H         1 UNK         0.0600 
    207 H207       -5.8801  -22.7182  -50.7764 H         1 UNK         0.0600 
    208 H208       -5.2941  -23.9697  -51.8652 H         1 UNK         0.0600 
    209 H209       -4.6097  -22.3556  -51.9349 H         1 UNK         0.0600 
    210 H210       -1.9884  -24.5604  -48.9992 H         1 UNK         0.3000 
    211 H211       -0.0361  -25.5729  -49.3929 H         1 UNK         0.0600 
    212 H212        0.6900  -23.2488  -49.9487 H         1 UNK         0.0600 
    213 H213        1.5853  -24.4367  -50.8832 H         1 UNK         0.0600 
    214 H214        0.2966  -23.5164  -51.6457 H         1 UNK         0.0600 
    215 H215       -1.9304  -27.1407  -50.1676 H         1 UNK         0.3000 
    216 H216       -2.7457  -28.7451  -51.4457 H         1 UNK         0.0600 
    217 H217       -1.1719  -30.1612  -52.7203 H         1 UNK         0.0600 
    218 H218        0.0435  -28.8910  -52.7126 H         1 UNK         0.0600 
    219 H219       -0.4346  -29.6690  -51.2043 H         1 UNK         0.0600 
    220 H220       -3.5476  -26.3535  -52.2347 H         1 UNK         0.3000 
    221 H221       -4.5258  -25.1081  -53.7346 H         1 UNK         0.0600 
    222 H222       -4.4810  -27.5298  -55.6043 H         1 UNK         0.0600 
    223 H223       -5.6639  -27.2584  -54.3245 H         1 UNK         0.0600 
    224 H224       -5.5779  -26.1593  -55.6892 H         1 UNK         0.0600 
    225 H225       -1.4439  -25.3216  -53.8756 H         1 UNK         0.3000 
    226 H226       -0.8438  -24.4754  -56.6105 H         1 UNK         0.0600 
    227 H227        0.7849  -25.7915  -55.2124 H         1 UNK         0.0600 
    228 H228        1.4493  -24.2702  -55.7911 H         1 UNK         0.0600 
    229 H229        0.9289  -24.4132  -54.1196 H         1 UNK         0.0600 
    230 H230       -1.6494  -22.9036  -53.5258 H         1 UNK         0.3000 
    231 H231       -0.6810  -20.2627  -54.3675 H         1 UNK         0.0600 
    232 H232       -1.5267  -19.5375  -52.1932 H         1 UNK         0.0600 
    233 H233       -0.6077  -21.0157  -51.9610 H         1 UNK         0.0600 
    234 H234       -2.3694  -21.0576  -51.9369 H         1 UNK         0.0600 
    235 H235       -1.8680  -18.8812  -55.5791 H         1 UNK         0.3000 
    236 H236       -4.4345  -19.4564  -56.6154 H         1 UNK         0.0600 
    237 H237       -2.7688  -18.0301  -57.7763 H         1 UNK         0.0600 
    238 H238       -4.2678  -17.1432  -57.5528 H         1 UNK         0.0600 
    239 H239       -2.8909  -16.8075  -56.5100 H         1 UNK         0.0600 
    240 H240       -3.4728  -17.7155  -53.7313 H         1 UNK         0.3000 
    241 H241       -6.1143  -16.6836  -53.1031 H         1 UNK         0.0600 
    242 H242       -5.0233  -19.9333  -53.0037 H         1 UNK         0.3800 
    243 H243       -6.0917  -20.4136  -51.7116 H         1 UNK         0.3800 
    244 H244       -4.4631  -15.2919  -52.2744 H         1 UNK         0.0800 
    245 H245       -4.9832  -16.1187  -50.8506 H         1 UNK         0.0800 
    246 H246       -1.7895  -18.1700  -49.8434 H         1 UNK         0.0800 
    247 H247       -3.3333  -18.7566  -50.4089 H         1 UNK         0.0800 
@<TRIPOS>BOND
     1    1    2 1    
     2    1  127 1    
     3    1  128 1    
     4    1  129 1    
     5    2    3 2    
     6    2    4 am   BACKBONE|DICT|INTERRES
     7    4    5 1    
     8    4  130 1    
     9    5    6 1    
    10    5   65 1    
    11    5  131 1    
    12    6    7 1    
    13    6  132 1    
    14    6  133 1    
    15    7    8 1    
    16    8    9 1    
    17    8  134 1    
    18    8  135 1    
    19    9   10 ar   
    20    9   14 ar   
    21   10   11 ar   
    22   10  136 1    
    23   11   12 ar   
    24   11  126 1    
    25   12   13 ar   
    26   12  137 1    
    27   13   14 ar   
    28   13   15 1    
    29   14  138 1    
    30   15   16 1    
    31   15  139 1    
    32   15  140 1    
    33   16   17 1    
    34   17   18 1    
    35   17  141 1    
    36   17  142 1    
    37   18   19 1    
    38   18   67 1    
    39   18  143 1    
    40   19   20 am   BACKBONE|DICT|INTERRES
    41   19  144 1    
    42   20   21 2    
    43   20   22 1    
    44   22   23 1    
    45   22   24 1    
    46   22  145 1    
    47   23  146 1    
    48   23  147 1    
    49   23  148 1    
    50   24   25 am   BACKBONE|DICT|INTERRES
    51   24  149 1    
    52   25   26 2    
    53   25   27 1    
    54   27   28 1    
    55   27   29 1    
    56   27  150 1    
    57   28  151 1    
    58   28  152 1    
    59   28  153 1    
    60   29   30 am   BACKBONE|DICT|INTERRES
    61   29  154 1    
    62   30   31 2    
    63   30   32 1    
    64   32   33 1    
    65   32   34 1    
    66   32  155 1    
    67   33  156 1    
    68   33  157 1    
    69   33  158 1    
    70   34   35 am   BACKBONE|DICT|INTERRES
    71   34  159 1    
    72   35   36 2    
    73   35   37 1    
    74   37   38 1    
    75   37   39 1    
    76   37  160 1    
    77   38  161 1    
    78   38  162 1    
    79   38  163 1    
    80   39   40 am   BACKBONE|DICT|INTERRES
    81   39  164 1    
    82   40   41 2    
    83   40   42 1    
    84   42   43 1    
    85   42   44 1    
    86   42  165 1    
    87   43  166 1    
    88   43  167 1    
    89   43  168 1    
    90   44   45 am   BACKBONE|DICT|INTERRES
    91   44  169 1    
    92   45   46 2    
    93   45   47 1    
    94   47   48 1    
    95   47   49 1    
    96   47  170 1    
    97   48  171 1    
    98   48  172 1    
    99   48  173 1    
   100   49   50 am   BACKBONE|DICT|INTERRES
   101   49  174 1    
   102   50   51 2    
   103   50   52 1    
   104   52   53 1    
   105   52   54 1    
   106   52  175 1    
   107   53  176 1    
   108   53  177 1    
   109   53  178 1    
   110   54   55 am   BACKBONE|DICT|INTERRES
   111   54  179 1    
   112   55   56 2    
   113   55   57 1    
   114   57   58 1    
   115   57   59 1    
   116   57  180 1    
   117   58  181 1    
   118   58  182 1    
   119   58  183 1    
   120   59   60 am   BACKBONE|DICT|INTERRES
   121   59  184 1    
   122   60   61 2    
   123   60   62 1    
   124   62   63 1    
   125   62   64 1    
   126   62  185 1    
   127   63  186 1    
   128   63  187 1    
   129   63  188 1    
   130   64   65 am   BACKBONE|DICT|INTERRES
   131   64  189 1    
   132   65   66 2    
   133   67   68 2    
   134   67   69 am   BACKBONE|DICT|INTERRES
   135   69   70 1    
   136   69  190 1    
   137   70   71 1    
   138   70   72 1    
   139   70  191 1    
   140   71  192 1    
   141   71  193 1    
   142   71  194 1    
   143   72   73 2    
   144   72   74 am   BACKBONE|DICT|INTERRES
   145   74   75 1    
   146   74  195 1    
   147   75   76 1    
   148   75   77 1    
   149   75  196 1    
   150   76  197 1    
   151   76  198 1    
   152   76  199 1    
   153   77   78 2    
   154   77   79 am   BACKBONE|DICT|INTERRES
   155   79   80 1    
   156   79  200 1    
   157   80   81 1    
   158   80   82 1    
   159   80  201 1    
   160   81  202 1    
   161   81  203 1    
   162   81  204 1    
   163   82   83 2    
   164   82   84 am   BACKBONE|DICT|INTERRES
   165   84   85 1    
   166   84  205 1    
   167   85   86 1    
   168   85   87 1    
   169   85  206 1    
   170   86  207 1    
   171   86  208 1    
   172   86  209 1    
   173   87   88 2    
   174   87   89 am   BACKBONE|DICT|INTERRES
   175   89   90 1    
   176   89  210 1    
   177   90   91 1    
   178   90   92 1    
   179   90  211 1    
   180   91  212 1    
   181   91  213 1    
   182   91  214 1    
   183   92   93 2    
   184   92   94 am   BACKBONE|DICT|INTERRES
   185   94   95 1    
   186   94  215 1    
   187   95   96 1    
   188   95   97 1    
   189   95  216 1    
   190   96  217 1    
   191   96  218 1    
   192   96  219 1    
   193   97   98 2    
   194   97   99 am   BACKBONE|DICT|INTERRES
   195   99  100 1    
   196   99  220 1    
   197  100  101 1    
   198  100  102 1    
   199  100  221 1    
   200  101  222 1    
   201  101  223 1    
   202  101  224 1    
   203  102  103 2    
   204  102  104 am   BACKBONE|DICT|INTERRES
   205  104  105 1    
   206  104  225 1    
   207  105  106 1    
   208  105  107 1    
   209  105  226 1    
   210  106  227 1    
   211  106  228 1    
   212  106  229 1    
   213  107  108 2    
   214  107  109 am   BACKBONE|DICT|INTERRES
   215  109  110 1    
   216  109  230 1    
   217  110  111 1    
   218  110  112 1    
   219  110  231 1    
   220  111  232 1    
   221  111  233 1    
   222  111  234 1    
   223  112  113 2    
   224  112  114 am   BACKBONE|DICT|INTERRES
   225  114  115 1    
   226  114  235 1    
   227  115  116 1    
   228  115  117 1    
   229  115  236 1    
   230  116  237 1    
   231  116  238 1    
   232  116  239 1    
   233  117  118 2    
   234  117  119 am   BACKBONE|DICT|INTERRES
   235  119  120 1    
   236  119  240 1    
   237  120  121 1    
   238  120  124 1    
   239  120  241 1    
   240  121  122 am   BACKBONE|DICT|INTERRES
   241  121  123 2    
   242  122  242 1    
   243  122  243 1    
   244  124  125 1    
   245  124  244 1    
   246  124  245 1    
   247  125  126 1    
   248  126  246 1    
   249  126  247 1    
@<TRIPOS>SUBSTRUCTURE
     1 UNK         1 GROUP             0       ****    0 ROOT    
