@<TRIPOS>MOLECULE
3R540
247   249    1
SMALL
USER_CHARGES


@<TRIPOS>ATOM
      1 CA         -3.4616  -12.4159  -52.3597 C.3       0 UNK        -0.1800 
      2 C          -2.7837  -12.6616  -51.0186 C.2       0 UNK         0.5000 
      3 O          -2.5095  -11.7038  -50.2955 O.2       0 UNK        -0.5000 
      4 N          -2.5268  -13.9379  -50.7033 N.am      1 UNK        -0.5000 
      5 CA         -1.8316  -14.4661  -49.5194 C.3       1 UNK         0.1400 
      6 C6         -2.3273  -13.9111  -48.1551 C.3       23 UNK        -0.0398 
      7 S7         -4.1197  -14.1620  -47.8981 S.3       23 UNK        -0.2404 
      8 C8         -4.1603  -15.3910  -46.5576 C.3       23 UNK        -0.0205 
      9 C9         -3.7829  -16.7857  -47.0326 C.ar      23 UNK        -0.0193 
     10 C10        -4.7588  -17.6328  -47.5637 C.ar      23 UNK        -0.1150 
     11 C11        -4.4320  -18.9313  -47.9649 C.ar      23 UNK        -0.0193 
     12 C12        -3.1097  -19.3723  -47.8578 C.ar      23 UNK        -0.1150 
     13 C13        -2.1223  -18.5293  -47.3393 C.ar      23 UNK        -0.0193 
     14 C14        -2.4685  -17.2436  -46.9154 C.ar      23 UNK        -0.1150 
     15 C15        -0.6743  -18.9845  -47.2696 C.3       23 UNK        -0.0205 
     16 S16        -0.2747  -19.8292  -45.7084 S.3       23 UNK        -0.2404 
     17 C17        -0.6434  -21.5662  -46.1248 C.3       23 UNK        -0.0398 
     18 CA          0.1417  -22.5745  -45.2471 C.3       11 UNK         0.1400 
     19 N          -0.1783  -22.4153  -43.8250 N.am      11 UNK        -0.5000 
     20 C           0.5962  -22.7734  -42.7918 C.2       10 UNK         0.5000 
     21 O           1.6873  -23.3294  -42.9288 O.2       10 UNK        -0.5000 
     22 CA          0.0754  -22.4788  -41.3723 C.3       10 UNK         0.1400 
     23 CB          0.8910  -21.3490  -40.7227 C.3       10 UNK        -0.1800 
     24 N          -1.3422  -22.1120  -41.3623 N.am      10 UNK        -0.5000 
     25 C          -2.3527  -22.9879  -41.2634 C.2       9 UNK         0.5000 
     26 O          -2.1887  -24.2017  -41.1353 O.2       9 UNK        -0.5000 
     27 CA         -3.7899  -22.4279  -41.3165 C.3       9 UNK         0.1400 
     28 CB         -4.3486  -22.2541  -39.8959 C.3       9 UNK        -0.1800 
     29 N          -3.9013  -21.1525  -42.0260 N.am      9 UNK        -0.5000 
     30 C          -3.7155  -20.9875  -43.3428 C.2       8 UNK         0.5000 
     31 O          -3.4747  -21.9139  -44.1157 O.2       8 UNK        -0.5000 
     32 CA         -3.7670  -19.5415  -43.8775 C.3       8 UNK         0.1400 
     33 CB         -5.1876  -19.2030  -44.3521 C.3       8 UNK        -0.1800 
     34 N          -3.3287  -18.5149  -42.9231 N.am      8 UNK        -0.5000 
     35 C          -2.1550  -18.4908  -42.2775 C.2       7 UNK         0.5000 
     36 O          -1.3107  -19.3825  -42.3585 O.2       7 UNK        -0.5000 
     37 CA         -1.8787  -17.2574  -41.4009 C.3       7 UNK         0.1400 
     38 CB         -0.9626  -17.5914  -40.2100 C.3       7 UNK        -0.1800 
     39 N          -1.2523  -16.2083  -42.1987 N.am      7 UNK        -0.5000 
     40 C          -1.8909  -15.4105  -43.0648 C.2       6 UNK         0.5000 
     41 O          -3.1122  -15.4247  -43.2197 O.2       6 UNK        -0.5000 
     42 CA         -1.0332  -14.4243  -43.8837 C.3       6 UNK         0.1400 
     43 CB         -1.2924  -12.9775  -43.4379 C.3       6 UNK        -0.1800 
     44 N           0.3992  -14.6991  -43.7698 N.am      6 UNK        -0.5000 
     45 C           1.0853  -15.5471  -44.5446 C.2       5 UNK         0.5000 
     46 O           0.6019  -16.1385  -45.5098 O.2       5 UNK        -0.5000 
     47 CA          2.5712  -15.7157  -44.1790 C.3       5 UNK         0.1400 
     48 CB          3.2409  -16.9134  -44.8741 C.3       5 UNK        -0.1800 
     49 N           3.2988  -14.4892  -44.4980 N.am      5 UNK        -0.5000 
     50 C           3.3643  -13.4152  -43.6980 C.2       4 UNK         0.5000 
     51 O           2.8838  -13.3879  -42.5636 O.2       4 UNK        -0.5000 
     52 CA          4.0447  -12.1506  -44.2570 C.3       4 UNK         0.1400 
     53 CB          5.5215  -12.1043  -43.8372 C.3       4 UNK        -0.1800 
     54 N           3.9589  -12.0372  -45.7133 N.am      4 UNK        -0.5000 
     55 C           2.8301  -11.8392  -46.4082 C.2       3 UNK         0.5000 
     56 O           1.7230  -11.6911  -45.8887 O.2       3 UNK        -0.5000 
     57 CA          2.9469  -11.8174  -47.9463 C.3       3 UNK         0.1400 
     58 CB          4.3862  -11.6016  -48.4665 C.3       3 UNK        -0.1800 
     59 N           2.3641  -13.0169  -48.5525 N.am      3 UNK        -0.5000 
     60 C           2.6769  -14.2963  -48.3046 C.2       2 UNK         0.5000 
     61 O           3.5323  -14.6434  -47.4878 O.2       2 UNK        -0.5000 
     62 CA          1.9006  -15.3532  -49.1205 C.3       2 UNK         0.1400 
     63 CB          2.2898  -16.7994  -48.7684 C.3       2 UNK        -0.1800 
     64 N           0.4464  -15.2142  -48.9969 N.am      2 UNK        -0.5000 
     65 C          -0.3011  -14.3339  -49.6755 C.2       1 UNK         0.5000 
     66 O           0.1890  -13.4704  -50.4081 O.2       1 UNK        -0.5000 
     67 C          -0.0611  -24.0392  -45.7059 C.2       11 UNK         0.5000 
     68 O          -0.8390  -24.3057  -46.6224 O.2       11 UNK        -0.5000 
     69 N           0.6392  -24.9748  -45.0519 N.am      12 UNK        -0.5000 
     70 CA          0.5233  -26.4228  -45.2484 C.3       12 UNK         0.1400 
     71 CB          1.3202  -27.1361  -44.1460 C.3       12 UNK        -0.1800 
     72 C           0.9659  -26.9185  -46.6396 C.2       12 UNK         0.5000 
     73 O           0.5021  -27.9707  -47.0821 O.2       12 UNK        -0.5000 
     74 N           1.8349  -26.1551  -47.3159 N.am      13 UNK        -0.5000 
     75 CA          2.3614  -26.4289  -48.6553 C.3       13 UNK         0.1400 
     76 CB          3.6717  -25.6404  -48.8332 C.3       13 UNK        -0.1800 
     77 C           1.3316  -26.1211  -49.7651 C.2       13 UNK         0.5000 
     78 O           1.5851  -25.2760  -50.6253 O.2       13 UNK        -0.5000 
     79 N           0.1693  -26.7862  -49.7031 N.am      14 UNK        -0.5000 
     80 CA         -0.9734  -26.6706  -50.6183 C.3       14 UNK         0.1400 
     81 CB         -0.6226  -27.2784  -51.9925 C.3       14 UNK        -0.1800 
     82 C          -1.4978  -25.2235  -50.7217 C.2       14 UNK         0.5000 
     83 O          -1.6188  -24.6819  -51.8230 O.2       14 UNK        -0.5000 
     84 N          -1.7341  -24.6007  -49.5561 N.am      15 UNK        -0.5000 
     85 CA         -2.1197  -23.1945  -49.3872 C.3       15 UNK         0.1400 
     86 CB         -3.5198  -22.9362  -49.9733 C.3       15 UNK        -0.1800 
     87 C          -1.0382  -22.2201  -49.9036 C.2       15 UNK         0.5000 
     88 O          -1.3643  -21.1632  -50.4431 O.2       15 UNK        -0.5000 
     89 N           0.2329  -22.6243  -49.7433 N.am      16 UNK        -0.5000 
     90 CA          1.4502  -22.0048  -50.2819 C.3       16 UNK         0.1400 
     91 CB          1.7791  -20.6931  -49.5452 C.3       16 UNK        -0.1800 
     92 C           1.3786  -21.8558  -51.8158 C.2       16 UNK         0.5000 
     93 O           1.6174  -20.7729  -52.3523 O.2       16 UNK        -0.5000 
     94 N           1.0048  -22.9631  -52.4739 N.am      17 UNK        -0.5000 
     95 CA          0.6802  -23.0895  -53.8969 C.3       17 UNK         0.1400 
     96 CB          1.9385  -22.8899  -54.7675 C.3       17 UNK        -0.1800 
     97 C          -0.5034  -22.1860  -54.3089 C.2       17 UNK         0.5000 
     98 O          -0.4078  -21.4522  -55.2947 O.2       17 UNK        -0.5000 
     99 N          -1.5975  -22.2708  -53.5353 N.am      18 UNK        -0.5000 
    100 CA        -2.8618  -21.5416  -53.6936 C.3       18 UNK         0.1400 
    101 CB        -3.6171  -22.0543  -54.9377 C.3       18 UNK        -0.1800 
    102 C         -2.6858  -20.0082  -53.6892 C.2       18 UNK         0.5000 
    103 O         -3.1378  -19.3297  -54.6143 O.2       18 UNK        -0.5000 
    104 N         -2.0350  -19.4879  -52.6403 N.am      19 UNK        -0.5000 
    105 CA        -1.5959  -18.0939  -52.5134 C.3       19 UNK         0.1400 
    106 CB        -0.7633  -17.9457  -51.2342 C.3       19 UNK        -0.1800 
    107 C         -2.7067  -17.0255  -52.5577 C.2       19 UNK         0.5000 
    108 O         -2.4095  -15.8717  -52.8673 O.2       19 UNK        -0.5000 
    109 N         -3.9526  -17.4049  -52.2574 N.am      20 UNK        -0.5000 
    110 CA        -5.1399  -16.5590  -52.3949 C.3       20 UNK         0.1400 
    111 CB        -5.6024  -16.0906  -51.0028 C.3       20 UNK        -0.1800 
    112 C         -6.2421  -17.2932  -53.1836 C.2       20 UNK         0.5000 
    113 O         -7.4253  -17.0900  -52.9082 O.2       20 UNK        -0.5000 
    114 N         -5.8345  -18.1488  -54.1391 N.am      21 UNK        -0.5000 
    115 CA        -6.6803  -19.0288  -54.9626 C.3       21 UNK         0.1400 
    116 CB        -7.5802  -18.2076  -55.9094 C.3       21 UNK        -0.1800 
    117 C         -7.4653  -20.0528  -54.1117 C.2       21 UNK         0.5000 
    118 O         -8.6246  -20.3573  -54.3971 O.2       21 UNK        -0.5000 
    119 N         -6.8020  -20.5357  -53.0579 N.am      22 UNK        -0.5000 
    120 CA        -7.3600  -21.3117  -51.9411 C.3       22 UNK         0.1400 
    121 C         -6.7882  -22.7545  -51.8252 C.2       22 UNK         0.5000 
    122 N         -6.0740  -23.2623  -52.8216 N.am      22 UNK        -0.7600 
    123 O         -7.0179  -23.4385  -50.8320 O.2       22 UNK        -0.5000 
    124 C124       -7.2504  -20.5040  -50.6179 C.3       23 UNK        -0.0398 
    125 S125       -5.5895  -19.7992  -50.3117 S.3       23 UNK        -0.2404 
    126 C126       -5.5154  -19.8543  -48.4982 C.3       23 UNK        -0.0205 
    127 H127       -4.4107  -11.9010  -52.2116 H         1 UNK         0.0600 
    128 H128       -3.6605  -13.3468  -52.8913 H         1 UNK         0.0600 
    129 H129       -2.8284  -11.7931  -52.9915 H         1 UNK         0.0600 
    130 H130       -2.7036  -14.6353  -51.4205 H         1 UNK         0.3000 
    131 H131       -2.0481  -15.5359  -49.5282 H         1 UNK         0.0600 
    132 H132       -2.1142  -12.8458  -48.0634 H         1 UNK         0.0800 
    133 H133       -1.7823  -14.3800  -47.3360 H         1 UNK         0.0800 
    134 H134       -3.5042  -15.0680  -45.7519 H         1 UNK         0.0800 
    135 H135       -5.1650  -15.4125  -46.1329 H         1 UNK         0.0800 
    136 H136       -5.7781  -17.2842  -47.6516 H         1 UNK         0.1150 
    137 H137       -2.8485  -20.3680  -48.1833 H         1 UNK         0.1150 
    138 H138       -1.7114  -16.5993  -46.4951 H         1 UNK         0.1150 
    139 H139       -0.4549  -19.6277  -48.1188 H         1 UNK         0.0800 
    140 H140       -0.0178  -18.1212  -47.3676 H         1 UNK         0.0800 
    141 H141       -0.3764  -21.7178  -47.1683 H         1 UNK         0.0800 
    142 H142       -1.7192  -21.7280  -46.0512 H         1 UNK         0.0800 
    143 H143        1.2037  -22.3570  -45.3803 H         1 UNK         0.0600 
    144 H144       -1.0680  -21.9808  -43.6234 H         1 UNK         0.3000 
    145 H145        0.2218  -23.3813  -40.7753 H         1 UNK         0.0600 
    146 H146        1.9396  -21.6331  -40.6259 H         1 UNK         0.0600 
    147 H147        0.8565  -20.4327  -41.3124 H         1 UNK         0.0600 
    148 H148        0.5230  -21.1191  -39.7228 H         1 UNK         0.0600 
    149 H149       -1.5435  -21.1300  -41.5273 H         1 UNK         0.3000 
    150 H150       -4.4077  -23.1606  -41.8399 H         1 UNK         0.0600 
    151 H151       -4.3103  -23.1938  -39.3431 H         1 UNK         0.0600 
    152 H152       -5.3905  -21.9342  -39.9175 H         1 UNK         0.0600 
    153 H153       -3.7808  -21.5160  -39.3280 H         1 UNK         0.0600 
    154 H154       -4.0915  -20.3352  -41.4652 H         1 UNK         0.3000 
    155 H155       -3.0985  -19.4877  -44.7376 H         1 UNK         0.0600 
    156 H156       -5.5149  -19.8964  -45.1279 H         1 UNK         0.0600 
    157 H157       -5.2345  -18.1994  -44.7739 H         1 UNK         0.0600 
    158 H158       -5.9084  -19.2561  -43.5354 H         1 UNK         0.0600 
    159 H159       -3.9289  -17.7060  -42.8358 H         1 UNK         0.3000 
    160 H160       -2.8278  -16.8926  -41.0023 H         1 UNK         0.0600 
    161 H161        0.0260  -17.9181  -40.5355 H         1 UNK         0.0600 
    162 H162       -1.3883  -18.3914  -39.6030 H         1 UNK         0.0600 
    163 H163       -0.8309  -16.7258  -39.5606 H         1 UNK         0.0600 
    164 H164       -0.2467  -16.1493  -42.1527 H         1 UNK         0.3000 
    165 H165       -1.3333  -14.5144  -44.9285 H         1 UNK         0.0600 
    166 H166       -1.0192  -12.8224  -42.3935 H         1 UNK         0.0600 
    167 H167       -0.7211  -12.2724  -44.0428 H         1 UNK         0.0600 
    168 H168       -2.3462  -12.7173  -43.5456 H         1 UNK         0.0600 
    169 H169        0.9038  -14.2031  -43.0444 H         1 UNK         0.3000 
    170 H170        2.6218  -15.9042  -43.1045 H         1 UNK         0.0600 
    171 H171        2.6676  -17.8286  -44.7195 H         1 UNK         0.0600 
    172 H172        3.3362  -16.7614  -45.9469 H         1 UNK         0.0600 
    173 H173        4.2412  -17.0846  -44.4767 H         1 UNK         0.0600 
    174 H174        3.6376  -14.4125  -45.4521 H         1 UNK         0.3000 
    175 H175        3.5383  -11.2864  -43.8218 H         1 UNK         0.0600 
    176 H176        6.0866  -12.9353  -44.2613 H         1 UNK         0.0600 
    177 H177        5.9948  -11.1763  -44.1586 H         1 UNK         0.0600 
    178 H178        5.6210  -12.1595  -42.7522 H         1 UNK         0.0600 
    179 H179        4.8164  -12.1759  -46.2279 H         1 UNK         0.3000 
    180 H180        2.3447  -10.9736  -48.2861 H         1 UNK         0.0600 
    181 H181        5.0457  -12.4360  -48.2257 H         1 UNK         0.0600 
    182 H182        4.8251  -10.6957  -48.0465 H         1 UNK         0.0600 
    183 H183        4.3912  -11.4849  -49.5503 H         1 UNK         0.0600 
    184 H184        1.6236  -12.8558  -49.2290 H         1 UNK         0.3000 
    185 H185        2.1772  -15.1979  -50.1655 H         1 UNK         0.0600 
    186 H186        2.0043  -17.0541  -47.7493 H         1 UNK         0.0600 
    187 H187        1.8058  -17.5104  -49.4377 H         1 UNK         0.0600 
    188 H188        3.3657  -16.9532  -48.8587 H         1 UNK         0.0600 
    189 H189        0.0024  -15.8566  -48.3571 H         1 UNK         0.3000 
    190 H190        1.2403  -24.6612  -44.2954 H         1 UNK         0.3000 
    191 H191       -0.5297  -26.6877  -45.1330 H         1 UNK         0.0600 
    192 H192        2.3808  -26.8854  -44.1911 H         1 UNK         0.0600 
    193 H193        0.9530  -26.8649  -43.1559 H         1 UNK         0.0600 
    194 H194        1.2338  -28.2197  -44.2378 H         1 UNK         0.0600 
    195 H195        2.1494  -25.3033  -46.8758 H         1 UNK         0.3000 
    196 H196        2.6016  -27.4917  -48.7269 H         1 UNK         0.0600 
    197 H197        4.4074  -25.9243  -48.0805 H         1 UNK         0.0600 
    198 H198        3.5101  -24.5647  -48.7547 H         1 UNK         0.0600 
    199 H199        4.1178  -25.8361  -49.8093 H         1 UNK         0.0600 
    200 H200        0.0523  -27.4245  -48.9212 H         1 UNK         0.3000 
    201 H201       -1.7822  -27.2635  -50.1890 H         1 UNK         0.0600 
    202 H202       -1.4920  -27.2819  -52.6510 H         1 UNK         0.0600 
    203 H203       -0.2876  -28.3107  -51.8926 H         1 UNK         0.0600 
    204 H204        0.1658  -26.7177  -52.4959 H         1 UNK         0.0600 
    205 H205       -1.5625  -25.1012  -48.6926 H         1 UNK         0.3000 
    206 H206       -2.1975  -23.0089  -48.3173 H         1 UNK         0.0600 
    207 H207       -4.2742  -23.5403  -49.4696 H         1 UNK         0.0600 
    208 H208       -3.5746  -23.1611  -51.0362 H         1 UNK         0.0600 
    209 H209       -3.8042  -21.8956  -49.8451 H         1 UNK         0.0600 
    210 H210        0.3681  -23.5368  -49.3329 H         1 UNK         0.3000 
    211 H211        2.2668  -22.6992  -50.0808 H         1 UNK         0.0600 
    212 H212        1.8241  -20.8431  -48.4666 H         1 UNK         0.0600 
    213 H213        2.7468  -20.3017  -49.8604 H         1 UNK         0.0600 
    214 H214        1.0388  -19.9240  -49.7488 H         1 UNK         0.0600 
    215 H215        0.8647  -23.8027  -51.9207 H         1 UNK         0.3000 
    216 H216        0.3428  -24.1171  -54.0401 H         1 UNK         0.0600 
    217 H217        1.7235  -23.1003  -55.8157 H         1 UNK         0.0600 
    218 H218        2.3158  -21.8685  -54.7108 H         1 UNK         0.0600 
    219 H219        2.7402  -23.5612  -54.4600 H         1 UNK         0.0600 
    220 H220       -1.5710  -22.9381  -52.7694 H         1 UNK         0.3000 
    221 H221       -3.4701  -21.7751  -52.8208 H         1 UNK         0.0600 
    222 H222       -3.0755  -21.8364  -55.8587 H         1 UNK         0.0600 
    223 H223       -3.7692  -23.1325  -54.8883 H         1 UNK         0.0600 
    224 H224       -4.5991  -21.5897  -55.0222 H         1 UNK         0.0600 
    225 H225       -1.7280  -20.1173  -51.8991 H         1 UNK         0.3000 
    226 H226       -0.9393  -17.8930  -53.3621 H         1 UNK         0.0600 
    227 H227        0.1118  -18.5913  -51.2740 H         1 UNK         0.0600 
    228 H228       -0.3989  -16.9257  -51.1204 H         1 UNK         0.0600 
    229 H229       -1.3384  -18.2014  -50.3434 H         1 UNK         0.0600 
    230 H230       -4.1110  -18.3565  -51.9564 H         1 UNK         0.3000 
    231 H231       -4.9030  -15.6706  -52.9832 H         1 UNK         0.0600 
    232 H232       -6.4058  -15.3577  -51.0822 H         1 UNK         0.0600 
    233 H233       -4.7886  -15.6197  -50.4540 H         1 UNK         0.0600 
    234 H234       -5.9724  -16.9173  -50.3976 H         1 UNK         0.0600 
    235 H235       -4.8356  -18.2526  -54.2928 H         1 UNK         0.3000 
    236 H236       -5.9988  -19.6095  -55.5855 H         1 UNK         0.0600 
    237 H237       -6.9934  -17.4998  -56.4948 H         1 UNK         0.0600 
    238 H238       -8.0999  -18.8576  -56.6142 H         1 UNK         0.0600 
    239 H239       -8.3392  -17.6454  -55.3650 H         1 UNK         0.0600 
    240 H240       -5.8607  -20.2094  -52.9074 H         1 UNK         0.3000 
    241 H241       -8.4245  -21.4685  -52.1222 H         1 UNK         0.0600 
    242 H242       -5.7242  -24.2040  -52.7455 H         1 UNK         0.3800 
    243 H243       -5.9500  -22.7447  -53.6747 H         1 UNK         0.3800 
    244 H244       -7.9490  -19.6670  -50.6563 H         1 UNK         0.0800 
    245 H245       -7.5656  -21.1058  -49.7639 H         1 UNK         0.0800 
    246 H246       -5.3353  -20.8787  -48.1694 H         1 UNK         0.0800 
    247 H247       -6.4823  -19.5632  -48.0847 H         1 UNK         0.0800 
@<TRIPOS>BOND
     1    1    2 1    
     2    1  127 1    
     3    1  128 1    
     4    1  129 1    
     5    2    3 2    
     6    2    4 am   BACKBONE|DICT|INTERRES
     7    4    5 1    
     8    4  130 1    
     9    5    6 1    
    10    5   65 1    
    11    5  131 1    
    12    6    7 1    
    13    6  132 1    
    14    6  133 1    
    15    7    8 1    
    16    8    9 1    
    17    8  134 1    
    18    8  135 1    
    19    9   10 ar   
    20    9   14 ar   
    21   10   11 ar   
    22   10  136 1    
    23   11   12 ar   
    24   11  126 1    
    25   12   13 ar   
    26   12  137 1    
    27   13   14 ar   
    28   13   15 1    
    29   14  138 1    
    30   15   16 1    
    31   15  139 1    
    32   15  140 1    
    33   16   17 1    
    34   17   18 1    
    35   17  141 1    
    36   17  142 1    
    37   18   19 1    
    38   18   67 1    
    39   18  143 1    
    40   19   20 am   BACKBONE|DICT|INTERRES
    41   19  144 1    
    42   20   21 2    
    43   20   22 1    
    44   22   23 1    
    45   22   24 1    
    46   22  145 1    
    47   23  146 1    
    48   23  147 1    
    49   23  148 1    
    50   24   25 am   BACKBONE|DICT|INTERRES
    51   24  149 1    
    52   25   26 2    
    53   25   27 1    
    54   27   28 1    
    55   27   29 1    
    56   27  150 1    
    57   28  151 1    
    58   28  152 1    
    59   28  153 1    
    60   29   30 am   BACKBONE|DICT|INTERRES
    61   29  154 1    
    62   30   31 2    
    63   30   32 1    
    64   32   33 1    
    65   32   34 1    
    66   32  155 1    
    67   33  156 1    
    68   33  157 1    
    69   33  158 1    
    70   34   35 am   BACKBONE|DICT|INTERRES
    71   34  159 1    
    72   35   36 2    
    73   35   37 1    
    74   37   38 1    
    75   37   39 1    
    76   37  160 1    
    77   38  161 1    
    78   38  162 1    
    79   38  163 1    
    80   39   40 am   BACKBONE|DICT|INTERRES
    81   39  164 1    
    82   40   41 2    
    83   40   42 1    
    84   42   43 1    
    85   42   44 1    
    86   42  165 1    
    87   43  166 1    
    88   43  167 1    
    89   43  168 1    
    90   44   45 am   BACKBONE|DICT|INTERRES
    91   44  169 1    
    92   45   46 2    
    93   45   47 1    
    94   47   48 1    
    95   47   49 1    
    96   47  170 1    
    97   48  171 1    
    98   48  172 1    
    99   48  173 1    
   100   49   50 am   BACKBONE|DICT|INTERRES
   101   49  174 1    
   102   50   51 2    
   103   50   52 1    
   104   52   53 1    
   105   52   54 1    
   106   52  175 1    
   107   53  176 1    
   108   53  177 1    
   109   53  178 1    
   110   54   55 am   BACKBONE|DICT|INTERRES
   111   54  179 1    
   112   55   56 2    
   113   55   57 1    
   114   57   58 1    
   115   57   59 1    
   116   57  180 1    
   117   58  181 1    
   118   58  182 1    
   119   58  183 1    
   120   59   60 am   BACKBONE|DICT|INTERRES
   121   59  184 1    
   122   60   61 2    
   123   60   62 1    
   124   62   63 1    
   125   62   64 1    
   126   62  185 1    
   127   63  186 1    
   128   63  187 1    
   129   63  188 1    
   130   64   65 am   BACKBONE|DICT|INTERRES
   131   64  189 1    
   132   65   66 2    
   133   67   68 2    
   134   67   69 am   BACKBONE|DICT|INTERRES
   135   69   70 1    
   136   69  190 1    
   137   70   71 1    
   138   70   72 1    
   139   70  191 1    
   140   71  192 1    
   141   71  193 1    
   142   71  194 1    
   143   72   73 2    
   144   72   74 am   BACKBONE|DICT|INTERRES
   145   74   75 1    
   146   74  195 1    
   147   75   76 1    
   148   75   77 1    
   149   75  196 1    
   150   76  197 1    
   151   76  198 1    
   152   76  199 1    
   153   77   78 2    
   154   77   79 am   BACKBONE|DICT|INTERRES
   155   79   80 1    
   156   79  200 1    
   157   80   81 1    
   158   80   82 1    
   159   80  201 1    
   160   81  202 1    
   161   81  203 1    
   162   81  204 1    
   163   82   83 2    
   164   82   84 am   BACKBONE|DICT|INTERRES
   165   84   85 1    
   166   84  205 1    
   167   85   86 1    
   168   85   87 1    
   169   85  206 1    
   170   86  207 1    
   171   86  208 1    
   172   86  209 1    
   173   87   88 2    
   174   87   89 am   BACKBONE|DICT|INTERRES
   175   89   90 1    
   176   89  210 1    
   177   90   91 1    
   178   90   92 1    
   179   90  211 1    
   180   91  212 1    
   181   91  213 1    
   182   91  214 1    
   183   92   93 2    
   184   92   94 am   BACKBONE|DICT|INTERRES
   185   94   95 1    
   186   94  215 1    
   187   95   96 1    
   188   95   97 1    
   189   95  216 1    
   190   96  217 1    
   191   96  218 1    
   192   96  219 1    
   193   97   98 2    
   194   97   99 am   BACKBONE|DICT|INTERRES
   195   99  100 1    
   196   99  220 1    
   197  100  101 1    
   198  100  102 1    
   199  100  221 1    
   200  101  222 1    
   201  101  223 1    
   202  101  224 1    
   203  102  103 2    
   204  102  104 am   BACKBONE|DICT|INTERRES
   205  104  105 1    
   206  104  225 1    
   207  105  106 1    
   208  105  107 1    
   209  105  226 1    
   210  106  227 1    
   211  106  228 1    
   212  106  229 1    
   213  107  108 2    
   214  107  109 am   BACKBONE|DICT|INTERRES
   215  109  110 1    
   216  109  230 1    
   217  110  111 1    
   218  110  112 1    
   219  110  231 1    
   220  111  232 1    
   221  111  233 1    
   222  111  234 1    
   223  112  113 2    
   224  112  114 am   BACKBONE|DICT|INTERRES
   225  114  115 1    
   226  114  235 1    
   227  115  116 1    
   228  115  117 1    
   229  115  236 1    
   230  116  237 1    
   231  116  238 1    
   232  116  239 1    
   233  117  118 2    
   234  117  119 am   BACKBONE|DICT|INTERRES
   235  119  120 1    
   236  119  240 1    
   237  120  121 1    
   238  120  124 1    
   239  120  241 1    
   240  121  122 am   BACKBONE|DICT|INTERRES
   241  121  123 2    
   242  122  242 1    
   243  122  243 1    
   244  124  125 1    
   245  124  244 1    
   246  124  245 1    
   247  125  126 1    
   248  126  246 1    
   249  126  247 1    
@<TRIPOS>SUBSTRUCTURE
     1 UNK         1 GROUP             0       ****    0 ROOT    
