@<TRIPOS>MOLECULE
3R540
247   249    1
SMALL
USER_CHARGES


@<TRIPOS>ATOM
      1 CA          5.2287  -13.7395  -42.9015 C.3       0 UNK        -0.1800 
      2 C           4.3277  -14.1968  -44.0376 C.2       0 UNK         0.5000 
      3 O           3.1872  -14.5867  -43.7917 O.2       0 UNK        -0.5000 
      4 N           4.8286  -14.1537  -45.2794 N.am      1 UNK        -0.5000 
      5 CA          4.0911  -14.5093  -46.5039 C.3       1 UNK         0.1400 
      6 C6          4.9982  -15.2530  -47.5274 C.3       23 UNK        -0.0398 
      7 S7          4.2089  -16.7721  -48.1609 S.3       23 UNK        -0.2404 
      8 C8          3.8697  -16.3475  -49.8977 C.3       23 UNK        -0.0205 
      9 C9          2.6679  -17.1227  -50.4155 C.ar      23 UNK        -0.0193 
     10 C10         1.4312  -16.4850  -50.5493 C.ar      23 UNK        -0.1150 
     11 C11         0.3067  -17.1952  -50.9776 C.ar      23 UNK        -0.0193 
     12 C12         0.4311  -18.5557  -51.2723 C.ar      23 UNK        -0.1150 
     13 C13         1.6601  -19.2091  -51.1492 C.ar      23 UNK        -0.0193 
     14 C14         2.7813  -18.4798  -50.7361 C.ar      23 UNK        -0.1150 
     15 C15         1.7463  -20.7053  -51.4464 C.3       23 UNK        -0.0205 
     16 S16         2.5998  -21.6773  -50.1555 S.3       23 UNK        -0.2404 
     17 C17         1.7516  -21.1412  -48.6313 C.3       23 UNK        -0.0398 
     18 CA          0.9362  -22.2447  -47.9181 C.3       11 UNK         0.1400 
     19 N           0.6377  -21.8559  -46.5371 N.am      11 UNK        -0.5000 
     20 C           0.0794  -22.6375  -45.6044 C.2       10 UNK         0.5000 
     21 O          -0.2088  -23.8181  -45.7894 O.2       10 UNK        -0.5000 
     22 CA         -0.2516  -21.9809  -44.2497 C.3       10 UNK         0.1400 
     23 CB          0.9890  -21.9287  -43.3464 C.3       10 UNK        -0.1800 
     24 N          -0.8183  -20.6380  -44.3941 N.am      10 UNK        -0.5000 
     25 C          -1.9986  -20.3786  -44.9775 C.2       9 UNK         0.5000 
     26 O          -2.7541  -21.2518  -45.4021 O.2       9 UNK        -0.5000 
     27 CA         -2.3752  -18.8972  -45.1692 C.3       9 UNK         0.1400 
     28 CB         -2.9559  -18.3068  -43.8760 C.3       9 UNK        -0.1800 
     29 N          -1.2457  -18.0815  -45.6135 N.am      9 UNK        -0.5000 
     30 C          -0.5699  -18.2802  -46.7543 C.2       8 UNK         0.5000 
     31 O          -0.8524  -19.1536  -47.5733 O.2       8 UNK        -0.5000 
     32 CA          0.6838  -17.4164  -46.9661 C.3       8 UNK         0.1400 
     33 CB          0.3203  -15.9842  -47.3792 C.3       8 UNK        -0.1800 
     34 N           1.5182  -17.3800  -45.7656 N.am      8 UNK        -0.5000 
     35 C           2.1686  -18.4381  -45.2625 C.2       7 UNK         0.5000 
     36 O           2.1680  -19.5512  -45.7817 O.2       7 UNK        -0.5000 
     37 CA          2.9050  -18.2333  -43.9297 C.3       7 UNK         0.1400 
     38 CB          4.3659  -17.8288  -44.1719 C.3       7 UNK        -0.1800 
     39 N           2.2341  -17.2409  -43.0887 N.am      7 UNK        -0.5000 
     40 C           1.0963  -17.4889  -42.4240 C.2       6 UNK         0.5000 
     41 O           0.5191  -18.5772  -42.4431 O.2       6 UNK        -0.5000 
     42 CA          0.4800  -16.3155  -41.6422 C.3       6 UNK         0.1400 
     43 CB          1.1784  -16.1381  -40.2859 C.3       6 UNK        -0.1800 
     44 N           0.5286  -15.0520  -42.3768 N.am      6 UNK        -0.5000 
     45 C          -0.1299  -14.8005  -43.5154 C.2       5 UNK         0.5000 
     46 O          -0.8335  -15.6373  -44.0827 O.2       5 UNK        -0.5000 
     47 CA          0.0505  -13.3960  -44.1349 C.3       5 UNK         0.1400 
     48 CB         -1.1656  -12.9544  -44.9760 C.3       5 UNK        -0.1800 
     49 N           0.4017  -12.3454  -43.1708 N.am      5 UNK        -0.5000 
     50 C          -0.3244  -11.9263  -42.1204 C.2       4 UNK         0.5000 
     51 O          -1.3760  -12.4483  -41.7498 O.2       4 UNK        -0.5000 
     52 CA          0.2094  -10.6909  -41.3687 C.3       4 UNK         0.1400 
     53 CB          1.1726  -11.1188  -40.2507 C.3       4 UNK        -0.1800 
     54 N           0.8931   -9.7491  -42.2570 N.am      4 UNK        -0.5000 
     55 C           0.3017   -9.0426  -43.2304 C.2       3 UNK         0.5000 
     56 O          -0.9164   -9.0058  -43.4080 O.2       3 UNK        -0.5000 
     57 CA          1.2278   -8.2790  -44.1976 C.3       3 UNK         0.1400 
     58 CB          2.4501   -7.6440  -43.4986 C.3       3 UNK        -0.1800 
     59 N           1.6404   -9.1103  -45.3366 N.am      3 UNK        -0.5000 
     60 C           2.3410  -10.2525  -45.2986 C.2       2 UNK         0.5000 
     61 O           2.7497  -10.7774  -44.2561 O.2       2 UNK        -0.5000 
     62 CA          2.6318  -10.9309  -46.6481 C.3       2 UNK         0.1400 
     63 CB          3.5126  -10.0529  -47.5558 C.3       2 UNK        -0.1800 
     64 N           3.3163  -12.1835  -46.3629 N.am      2 UNK        -0.5000 
     65 C           3.3602  -13.2870  -47.1141 C.2       1 UNK         0.5000 
     66 O           2.8502  -13.3627  -48.2315 O.2       1 UNK        -0.5000 
     67 C          -0.3445  -22.6222  -48.6941 C.2       11 UNK         0.5000 
     68 O          -0.3832  -23.6772  -49.3283 O.2       11 UNK        -0.5000 
     69 N          -1.3900  -21.7903  -48.5828 N.am      12 UNK        -0.5000 
     70 CA         -2.7121  -22.0454  -49.1559 C.3       12 UNK         0.1400 
     71 CB         -3.5891  -20.7967  -49.0076 C.3       12 UNK        -0.1800 
     72 C          -3.4061  -23.2770  -48.5455 C.2       12 UNK         0.5000 
     73 O          -4.0229  -24.0458  -49.2834 O.2       12 UNK        -0.5000 
     74 N          -3.2697  -23.4651  -47.2247 N.am      13 UNK        -0.5000 
     75 CA         -3.7705  -24.6330  -46.4981 C.3       13 UNK         0.1400 
     76 CB         -3.6758  -24.3928  -44.9844 C.3       13 UNK        -0.1800 
     77 C          -3.0470  -25.9323  -46.8946 C.2       13 UNK         0.5000 
     78 O          -3.7070  -26.9542  -47.0796 O.2       13 UNK        -0.5000 
     79 N          -1.7195  -25.8682  -47.0725 N.am      14 UNK        -0.5000 
     80 CA         -0.8892  -26.9681  -47.5738 C.3       14 UNK         0.1400 
     81 CB          0.5954  -26.5964  -47.4432 C.3       14 UNK        -0.1800 
     82 C          -1.2318  -27.3585  -49.0248 C.2       14 UNK         0.5000 
     83 O          -1.1988  -28.5422  -49.3617 O.2       14 UNK        -0.5000 
     84 N          -1.6085  -26.3632  -49.8385 N.am      15 UNK        -0.5000 
     85 CA         -2.1490  -26.5316  -51.1885 C.3       15 UNK         0.1400 
     86 CB         -1.9550  -25.2188  -51.9664 C.3       15 UNK        -0.1800 
     87 C          -3.6335  -26.9588  -51.2086 C.2       15 UNK         0.5000 
     88 O          -4.1867  -27.1308  -52.2947 O.2       15 UNK        -0.5000 
     89 N          -4.2708  -27.0824  -50.0325 N.am      16 UNK        -0.5000 
     90 CA         -5.6787  -27.4339  -49.8021 C.3       16 UNK         0.1400 
     91 CB         -5.9287  -28.9074  -50.1837 C.3       16 UNK        -0.1800 
     92 C          -6.6756  -26.4680  -50.4796 C.2       16 UNK         0.5000 
     93 O          -7.7839  -26.8753  -50.8311 O.2       16 UNK        -0.5000 
     94 N          -6.2417  -25.2147  -50.6850 N.am      17 UNK        -0.5000 
     95 CA         -6.8940  -24.1491  -51.4515 C.3       17 UNK         0.1400 
     96 CB         -8.1784  -23.6736  -50.7432 C.3       17 UNK        -0.1800 
     97 C          -7.1258  -24.4847  -52.9444 C.2       17 UNK         0.5000 
     98 O          -7.8939  -23.7853  -53.6062 O.2       17 UNK        -0.5000 
     99 N          -6.4490  -25.5189  -53.4701 N.am      18 UNK        -0.5000 
    100 CA        -6.4881  -25.8983  -54.8858 C.3       18 UNK         0.1400 
    101 CB        -6.0565  -27.3650  -55.0347 C.3       18 UNK        -0.1800 
    102 C         -5.6059  -24.9803  -55.7528 C.2       18 UNK         0.5000 
    103 O         -5.8312  -24.8796  -56.9595 O.2       18 UNK        -0.5000 
    104 N         -4.6386  -24.3139  -55.1151 N.am      19 UNK        -0.5000 
    105 CA        -3.8278  -23.2395  -55.6643 C.3       19 UNK         0.1400 
    106 CB        -2.4136  -23.7623  -55.9609 C.3       19 UNK        -0.1800 
    107 C         -3.7928  -22.1120  -54.6245 C.2       19 UNK         0.5000 
    108 O         -3.8866  -22.3847  -53.4225 O.2       19 UNK        -0.5000 
    109 N         -3.6514  -20.8740  -55.1136 N.am      20 UNK        -0.5000 
    110 CA        -3.5969  -19.6030  -54.3834 C.3       20 UNK         0.1400 
    111 CB        -2.3874  -19.5485  -53.4315 C.3       20 UNK        -0.1800 
    112 C         -4.9054  -19.2390  -53.6565 C.2       20 UNK         0.5000 
    113 O         -5.5324  -18.2411  -54.0125 O.2       20 UNK        -0.5000 
    114 N         -5.2771  -20.0436  -52.6499 N.am      21 UNK        -0.5000 
    115 CA        -6.4471  -19.9028  -51.7713 C.3       21 UNK         0.1400 
    116 CB        -7.7473  -20.1355  -52.5676 C.3       21 UNK        -0.1800 
    117 C         -6.4729  -18.5832  -50.9624 C.2       21 UNK         0.5000 
    118 O         -7.5482  -18.1137  -50.5849 O.2       21 UNK        -0.5000 
    119 N         -5.2909  -18.0032  -50.7215 N.am      22 UNK        -0.5000 
    120 CA        -5.0848  -16.7663  -49.9567 C.3       22 UNK         0.1400 
    121 C         -5.3036  -16.9293  -48.4226 C.2       22 UNK         0.5000 
    122 N         -5.4793  -15.8301  -47.7005 N.am      22 UNK        -0.7600 
    123 O         -5.3070  -18.0291  -47.8742 O.2       22 UNK        -0.5000 
    124 C124       -3.7170  -16.1165  -50.3004 C.3       23 UNK        -0.0398 
    125 S125       -2.2853  -17.2067  -50.0001 S.3       23 UNK        -0.2404 
    126 C126       -1.0395  -16.4960  -51.1196 C.3       23 UNK        -0.0205 
    127 H127        5.3548  -14.5446  -42.1778 H         1 UNK         0.0600 
    128 H128        4.7800  -12.8869  -42.3915 H         1 UNK         0.0600 
    129 H129        6.2150  -13.4438  -43.2593 H         1 UNK         0.0600 
    130 H130        5.7703  -13.8143  -45.4195 H         1 UNK         0.3000 
    131 H131        3.2892  -15.1888  -46.2121 H         1 UNK         0.0600 
    132 H132        5.3129  -14.6094  -48.3509 H         1 UNK         0.0800 
    133 H133        5.9250  -15.5752  -47.0506 H         1 UNK         0.0800 
    134 H134        3.6897  -15.2756  -49.9911 H         1 UNK         0.0800 
    135 H135        4.7483  -16.5691  -50.5049 H         1 UNK         0.0800 
    136 H136        1.3423  -15.4362  -50.3019 H         1 UNK         0.1150 
    137 H137       -0.4411  -19.1125  -51.5782 H         1 UNK         0.1150 
    138 H138        3.7356  -18.9758  -50.6281 H         1 UNK         0.1150 
    139 H139        0.7484  -21.1266  -51.5806 H         1 UNK         0.0800 
    140 H140        2.2681  -20.8443  -52.3938 H         1 UNK         0.0800 
    141 H141        1.1294  -20.2670  -48.8171 H         1 UNK         0.0800 
    142 H142        2.5465  -20.7943  -47.9716 H         1 UNK         0.0800 
    143 H143        1.5586  -23.1401  -47.8615 H         1 UNK         0.0600 
    144 H144        0.8982  -20.9086  -46.2783 H         1 UNK         0.3000 
    145 H145       -0.9996  -22.6029  -43.7543 H         1 UNK         0.0600 
    146 H146        0.7508  -21.5013  -42.3722 H         1 UNK         0.0600 
    147 H147        1.3865  -22.9298  -43.1749 H         1 UNK         0.0600 
    148 H148        1.7865  -21.3323  -43.7879 H         1 UNK         0.0600 
    149 H149       -0.2705  -19.8663  -44.0329 H         1 UNK         0.3000 
    150 H150       -3.1434  -18.8468  -45.9440 H         1 UNK         0.0600 
    151 H151       -3.8111  -18.8888  -43.5304 H         1 UNK         0.0600 
    152 H152       -3.2989  -17.2836  -44.0311 H         1 UNK         0.0600 
    153 H153       -2.2186  -18.2931  -43.0726 H         1 UNK         0.0600 
    154 H154       -0.9731  -17.3133  -45.0061 H         1 UNK         0.3000 
    155 H155        1.2643  -17.8663  -47.7744 H         1 UNK         0.0600 
    156 H156       -0.3392  -15.9800  -48.2448 H         1 UNK         0.0600 
    157 H157        1.2097  -15.4190  -47.6511 H         1 UNK         0.0600 
    158 H158       -0.1913  -15.4485  -46.5845 H         1 UNK         0.0600 
    159 H159        1.5357  -16.5181  -45.2425 H         1 UNK         0.3000 
    160 H160        2.9100  -19.1861  -43.3963 H         1 UNK         0.0600 
    161 H161        4.4428  -16.9642  -44.8285 H         1 UNK         0.0600 
    162 H162        4.9141  -18.6413  -44.6502 H         1 UNK         0.0600 
    163 H163        4.8768  -17.5947  -43.2380 H         1 UNK         0.0600 
    164 H164        2.6122  -16.2974  -43.0917 H         1 UNK         0.3000 
    165 H165       -0.5693  -16.5553  -41.4578 H         1 UNK         0.0600 
    166 H166        0.6933  -15.3635  -39.6916 H         1 UNK         0.0600 
    167 H167        1.1448  -17.0613  -39.7058 H         1 UNK         0.0600 
    168 H168        2.2271  -15.8623  -40.4053 H         1 UNK         0.0600 
    169 H169        1.1263  -14.3279  -42.0071 H         1 UNK         0.3000 
    170 H170        0.9009  -13.4783  -44.8127 H         1 UNK         0.0600 
    171 H171       -1.3658  -13.6496  -45.7906 H         1 UNK         0.0600 
    172 H172       -2.0720  -12.8954  -44.3729 H         1 UNK         0.0600 
    173 H173       -0.9979  -11.9748  -45.4238 H         1 UNK         0.0600 
    174 H174        1.2621  -11.8455  -43.3712 H         1 UNK         0.3000 
    175 H175       -0.6419  -10.1787  -40.9157 H         1 UNK         0.0600 
    176 H176        2.0569  -11.6180  -40.6491 H         1 UNK         0.0600 
    177 H177        1.5057  -10.2601  -39.6676 H         1 UNK         0.0600 
    178 H178        0.6873  -11.8107  -39.5610 H         1 UNK         0.0600 
    179 H179        1.9034   -9.7583  -42.2343 H         1 UNK         0.3000 
    180 H180        0.6342   -7.4624  -44.6117 H         1 UNK         0.0600 
    181 H181        3.1507   -8.3865  -43.1165 H         1 UNK         0.0600 
    182 H182        2.1385   -7.0236  -42.6574 H         1 UNK         0.0600 
    183 H183        2.9985   -7.0010  -44.1870 H         1 UNK         0.0600 
    184 H184        1.3248   -8.7792  -46.2376 H         1 UNK         0.3000 
    185 H185        1.6795  -11.1408  -47.1392 H         1 UNK         0.0600 
    186 H186        4.4589   -9.8029  -47.0744 H         1 UNK         0.0600 
    187 H187        3.7397  -10.5587  -48.4944 H         1 UNK         0.0600 
    188 H188        3.0139   -9.1169  -47.8091 H         1 UNK         0.0600 
    189 H189        3.7043  -12.2188  -45.4278 H         1 UNK         0.3000 
    190 H190       -1.2709  -20.9158  -48.0747 H         1 UNK         0.3000 
    191 H191       -2.5810  -22.2381  -50.2229 H         1 UNK         0.0600 
    192 H192       -3.6876  -20.4931  -47.9648 H         1 UNK         0.0600 
    193 H193       -4.5928  -20.9710  -49.3948 H         1 UNK         0.0600 
    194 H194       -3.1673  -19.9582  -49.5589 H         1 UNK         0.0600 
    195 H195       -2.8090  -22.7482  -46.6718 H         1 UNK         0.3000 
    196 H196       -4.8257  -24.7532  -46.7525 H         1 UNK         0.0600 
    197 H197       -4.0710  -25.2441  -44.4288 H         1 UNK         0.0600 
    198 H198       -4.2517  -23.5160  -44.6881 H         1 UNK         0.0600 
    199 H199       -2.6458  -24.2411  -44.6628 H         1 UNK         0.0600 
    200 H200       -1.2346  -25.0067  -46.8326 H         1 UNK         0.3000 
    201 H201       -1.0769  -27.8403  -46.9443 H         1 UNK         0.0600 
    202 H202        0.8605  -26.3933  -46.4055 H         1 UNK         0.0600 
    203 H203        0.8434  -25.7120  -48.0302 H         1 UNK         0.0600 
    204 H204        1.2339  -27.4102  -47.7890 H         1 UNK         0.0600 
    205 H205       -1.5367  -25.4100  -49.4981 H         1 UNK         0.3000 
    206 H206       -1.5813  -27.3133  -51.6969 H         1 UNK         0.0600 
    207 H207       -0.9067  -24.9203  -51.9848 H         1 UNK         0.0600 
    208 H208       -2.2800  -25.3258  -53.0014 H         1 UNK         0.0600 
    209 H209       -2.5272  -24.4006  -51.5290 H         1 UNK         0.0600 
    210 H210       -3.7428  -26.8941  -49.1892 H         1 UNK         0.3000 
    211 H211       -5.8484  -27.3359  -48.7294 H         1 UNK         0.0600 
    212 H212       -5.8408  -29.0667  -51.2590 H         1 UNK         0.0600 
    213 H213       -6.9281  -29.2266  -49.8859 H         1 UNK         0.0600 
    214 H214       -5.2180  -29.5680  -49.6873 H         1 UNK         0.0600 
    215 H215       -5.3311  -24.9673  -50.3024 H         1 UNK         0.3000 
    216 H216       -6.1909  -23.3148  -51.4469 H         1 UNK         0.0600 
    217 H217       -8.5898  -22.7871  -51.2265 H         1 UNK         0.0600 
    218 H218       -7.9798  -23.4107  -49.7042 H         1 UNK         0.0600 
    219 H219       -8.9540  -24.4396  -50.7543 H         1 UNK         0.0600 
    220 H220       -5.8200  -26.0544  -52.8799 H         1 UNK         0.3000 
    221 H221       -7.5160  -25.8107  -55.2439 H         1 UNK         0.0600 
    222 H222       -5.0071  -27.5060  -54.7751 H         1 UNK         0.0600 
    223 H223       -6.6517  -28.0201  -54.3982 H         1 UNK         0.0600 
    224 H224       -6.1850  -27.7042  -56.0633 H         1 UNK         0.0600 
    225 H225       -4.5680  -24.4147  -54.1111 H         1 UNK         0.3000 
    226 H226       -4.2766  -22.8571  -56.5836 H         1 UNK         0.0600 
    227 H227       -2.4410  -24.5896  -56.6703 H         1 UNK         0.0600 
    228 H228       -1.7917  -22.9796  -56.3968 H         1 UNK         0.0600 
    229 H229       -1.9141  -24.1124  -55.0573 H         1 UNK         0.0600 
    230 H230       -3.6041  -20.7757  -56.1184 H         1 UNK         0.3000 
    231 H231       -3.4397  -18.8342  -55.1419 H         1 UNK         0.0600 
    232 H232       -1.4529  -19.6922  -53.9738 H         1 UNK         0.0600 
    233 H233       -2.4368  -20.3032  -52.6463 H         1 UNK         0.0600 
    234 H234       -2.3340  -18.5764  -52.9433 H         1 UNK         0.0600 
    235 H235       -4.7130  -20.8779  -52.5138 H         1 UNK         0.3000 
    236 H236       -6.3705  -20.7037  -51.0354 H         1 UNK         0.0600 
    237 H237       -8.6093  -20.1992  -51.9028 H         1 UNK         0.0600 
    238 H238       -7.9384  -19.3278  -53.2746 H         1 UNK         0.0600 
    239 H239       -7.7036  -21.0681  -53.1295 H         1 UNK         0.0600 
    240 H240       -4.4520  -18.4676  -51.0333 H         1 UNK         0.3000 
    241 H241       -5.8555  -16.0687  -50.2908 H         1 UNK         0.0600 
    242 H242       -5.6187  -15.9209  -46.7066 H         1 UNK         0.3800 
    243 H243       -5.4912  -14.9130  -48.1185 H         1 UNK         0.3800 
    244 H244       -3.7165  -15.8296  -51.3529 H         1 UNK         0.0800 
    245 H245       -3.5730  -15.1901  -49.7425 H         1 UNK         0.0800 
    246 H246       -0.9421  -15.4304  -50.9064 H         1 UNK         0.0800 
    247 H247       -1.3800  -16.5753  -52.1522 H         1 UNK         0.0800 
@<TRIPOS>BOND
     1    1    2 1    
     2    1  127 1    
     3    1  128 1    
     4    1  129 1    
     5    2    3 2    
     6    2    4 am   BACKBONE|DICT|INTERRES
     7    4    5 1    
     8    4  130 1    
     9    5    6 1    
    10    5   65 1    
    11    5  131 1    
    12    6    7 1    
    13    6  132 1    
    14    6  133 1    
    15    7    8 1    
    16    8    9 1    
    17    8  134 1    
    18    8  135 1    
    19    9   10 ar   
    20    9   14 ar   
    21   10   11 ar   
    22   10  136 1    
    23   11   12 ar   
    24   11  126 1    
    25   12   13 ar   
    26   12  137 1    
    27   13   14 ar   
    28   13   15 1    
    29   14  138 1    
    30   15   16 1    
    31   15  139 1    
    32   15  140 1    
    33   16   17 1    
    34   17   18 1    
    35   17  141 1    
    36   17  142 1    
    37   18   19 1    
    38   18   67 1    
    39   18  143 1    
    40   19   20 am   BACKBONE|DICT|INTERRES
    41   19  144 1    
    42   20   21 2    
    43   20   22 1    
    44   22   23 1    
    45   22   24 1    
    46   22  145 1    
    47   23  146 1    
    48   23  147 1    
    49   23  148 1    
    50   24   25 am   BACKBONE|DICT|INTERRES
    51   24  149 1    
    52   25   26 2    
    53   25   27 1    
    54   27   28 1    
    55   27   29 1    
    56   27  150 1    
    57   28  151 1    
    58   28  152 1    
    59   28  153 1    
    60   29   30 am   BACKBONE|DICT|INTERRES
    61   29  154 1    
    62   30   31 2    
    63   30   32 1    
    64   32   33 1    
    65   32   34 1    
    66   32  155 1    
    67   33  156 1    
    68   33  157 1    
    69   33  158 1    
    70   34   35 am   BACKBONE|DICT|INTERRES
    71   34  159 1    
    72   35   36 2    
    73   35   37 1    
    74   37   38 1    
    75   37   39 1    
    76   37  160 1    
    77   38  161 1    
    78   38  162 1    
    79   38  163 1    
    80   39   40 am   BACKBONE|DICT|INTERRES
    81   39  164 1    
    82   40   41 2    
    83   40   42 1    
    84   42   43 1    
    85   42   44 1    
    86   42  165 1    
    87   43  166 1    
    88   43  167 1    
    89   43  168 1    
    90   44   45 am   BACKBONE|DICT|INTERRES
    91   44  169 1    
    92   45   46 2    
    93   45   47 1    
    94   47   48 1    
    95   47   49 1    
    96   47  170 1    
    97   48  171 1    
    98   48  172 1    
    99   48  173 1    
   100   49   50 am   BACKBONE|DICT|INTERRES
   101   49  174 1    
   102   50   51 2    
   103   50   52 1    
   104   52   53 1    
   105   52   54 1    
   106   52  175 1    
   107   53  176 1    
   108   53  177 1    
   109   53  178 1    
   110   54   55 am   BACKBONE|DICT|INTERRES
   111   54  179 1    
   112   55   56 2    
   113   55   57 1    
   114   57   58 1    
   115   57   59 1    
   116   57  180 1    
   117   58  181 1    
   118   58  182 1    
   119   58  183 1    
   120   59   60 am   BACKBONE|DICT|INTERRES
   121   59  184 1    
   122   60   61 2    
   123   60   62 1    
   124   62   63 1    
   125   62   64 1    
   126   62  185 1    
   127   63  186 1    
   128   63  187 1    
   129   63  188 1    
   130   64   65 am   BACKBONE|DICT|INTERRES
   131   64  189 1    
   132   65   66 2    
   133   67   68 2    
   134   67   69 am   BACKBONE|DICT|INTERRES
   135   69   70 1    
   136   69  190 1    
   137   70   71 1    
   138   70   72 1    
   139   70  191 1    
   140   71  192 1    
   141   71  193 1    
   142   71  194 1    
   143   72   73 2    
   144   72   74 am   BACKBONE|DICT|INTERRES
   145   74   75 1    
   146   74  195 1    
   147   75   76 1    
   148   75   77 1    
   149   75  196 1    
   150   76  197 1    
   151   76  198 1    
   152   76  199 1    
   153   77   78 2    
   154   77   79 am   BACKBONE|DICT|INTERRES
   155   79   80 1    
   156   79  200 1    
   157   80   81 1    
   158   80   82 1    
   159   80  201 1    
   160   81  202 1    
   161   81  203 1    
   162   81  204 1    
   163   82   83 2    
   164   82   84 am   BACKBONE|DICT|INTERRES
   165   84   85 1    
   166   84  205 1    
   167   85   86 1    
   168   85   87 1    
   169   85  206 1    
   170   86  207 1    
   171   86  208 1    
   172   86  209 1    
   173   87   88 2    
   174   87   89 am   BACKBONE|DICT|INTERRES
   175   89   90 1    
   176   89  210 1    
   177   90   91 1    
   178   90   92 1    
   179   90  211 1    
   180   91  212 1    
   181   91  213 1    
   182   91  214 1    
   183   92   93 2    
   184   92   94 am   BACKBONE|DICT|INTERRES
   185   94   95 1    
   186   94  215 1    
   187   95   96 1    
   188   95   97 1    
   189   95  216 1    
   190   96  217 1    
   191   96  218 1    
   192   96  219 1    
   193   97   98 2    
   194   97   99 am   BACKBONE|DICT|INTERRES
   195   99  100 1    
   196   99  220 1    
   197  100  101 1    
   198  100  102 1    
   199  100  221 1    
   200  101  222 1    
   201  101  223 1    
   202  101  224 1    
   203  102  103 2    
   204  102  104 am   BACKBONE|DICT|INTERRES
   205  104  105 1    
   206  104  225 1    
   207  105  106 1    
   208  105  107 1    
   209  105  226 1    
   210  106  227 1    
   211  106  228 1    
   212  106  229 1    
   213  107  108 2    
   214  107  109 am   BACKBONE|DICT|INTERRES
   215  109  110 1    
   216  109  230 1    
   217  110  111 1    
   218  110  112 1    
   219  110  231 1    
   220  111  232 1    
   221  111  233 1    
   222  111  234 1    
   223  112  113 2    
   224  112  114 am   BACKBONE|DICT|INTERRES
   225  114  115 1    
   226  114  235 1    
   227  115  116 1    
   228  115  117 1    
   229  115  236 1    
   230  116  237 1    
   231  116  238 1    
   232  116  239 1    
   233  117  118 2    
   234  117  119 am   BACKBONE|DICT|INTERRES
   235  119  120 1    
   236  119  240 1    
   237  120  121 1    
   238  120  124 1    
   239  120  241 1    
   240  121  122 am   BACKBONE|DICT|INTERRES
   241  121  123 2    
   242  122  242 1    
   243  122  243 1    
   244  124  125 1    
   245  124  244 1    
   246  124  245 1    
   247  125  126 1    
   248  126  246 1    
   249  126  247 1    
@<TRIPOS>SUBSTRUCTURE
     1 UNK         1 GROUP             0       ****    0 ROOT    
