@<TRIPOS>MOLECULE
3R540
247   249    1
SMALL
USER_CHARGES


@<TRIPOS>ATOM
      1 CA         -2.6606  -13.4085  -48.8897 C.3       0 UNK        -0.1800 
      2 C          -1.5409  -12.3835  -48.9960 C.2       0 UNK         0.5000 
      3 O          -1.8051  -11.1828  -48.9250 O.2       0 UNK        -0.5000 
      4 N          -0.2996  -12.8535  -49.1683 N.am      1 UNK        -0.5000 
      5 CA          0.9133  -12.0326  -49.1925 C.3       1 UNK         0.1400 
      6 C6          1.9128  -12.5295  -50.2712 C.3       23 UNK        -0.0398 
      7 S7          2.7275  -14.1275  -49.9122 S.3       23 UNK        -0.2404 
      8 C8          1.9318  -15.2724  -51.0833 C.3       23 UNK        -0.0205 
      9 C9          0.9596  -16.2051  -50.3798 C.ar      23 UNK        -0.0193 
     10 C10        -0.4213  -16.0750  -50.5626 C.ar      23 UNK        -0.1150 
     11 C11        -1.3015  -16.9720  -49.9474 C.ar      23 UNK        -0.0193 
     12 C12        -0.7938  -17.9862  -49.1336 C.ar      23 UNK        -0.1150 
     13 C13         0.5811  -18.1196  -48.9393 C.ar      23 UNK        -0.0193 
     14 C14         1.4541  -17.2293  -49.5664 C.ar      23 UNK        -0.1150 
     15 C15         1.1117  -19.2294  -48.0540 C.3       23 UNK        -0.0205 
     16 S16         1.2537  -20.7911  -48.9729 S.3       23 UNK        -0.2404 
     17 C17         1.5202  -21.9556  -47.5878 C.3       23 UNK        -0.0398 
     18 CA          0.2823  -22.6716  -46.9529 C.3       11 UNK         0.1400 
     19 N           0.3442  -22.6477  -45.4878 N.am      11 UNK        -0.5000 
     20 C          -0.2693  -23.5284  -44.6825 C.2       10 UNK         0.5000 
     21 O          -0.9296  -24.4793  -45.0956 O.2       10 UNK        -0.5000 
     22 CA         -0.1671  -23.2872  -43.1618 C.3       10 UNK         0.1400 
     23 CB          1.0741  -23.9862  -42.5885 C.3       10 UNK        -0.1800 
     24 N          -0.1256  -21.8680  -42.8084 N.am      10 UNK        -0.5000 
     25 C          -1.0953  -20.9869  -43.0880 C.2       9 UNK         0.5000 
     26 O          -2.1813  -21.3094  -43.5677 O.2       9 UNK        -0.5000 
     27 CA         -0.7879  -19.4941  -42.8673 C.3       9 UNK         0.1400 
     28 CB         -1.5260  -18.9706  -41.6284 C.3       9 UNK        -0.1800 
     29 N           0.6412  -19.1568  -42.7857 N.am      9 UNK        -0.5000 
     30 C           1.5288  -19.3584  -43.7745 C.2       8 UNK         0.5000 
     31 O           1.2277  -19.9082  -44.8341 O.2       8 UNK        -0.5000 
     32 CA          2.9895  -18.9189  -43.5591 C.3       8 UNK         0.1400 
     33 CB          3.5074  -18.0859  -44.7441 C.3       8 UNK        -0.1800 
     34 N           3.1711  -18.1609  -42.3210 N.am      8 UNK        -0.5000 
     35 C           3.6912  -18.6623  -41.1933 C.2       7 UNK         0.5000 
     36 O           4.0753  -19.8271  -41.0797 O.2       7 UNK        -0.5000 
     37 CA          3.8034  -17.7206  -39.9770 C.3       7 UNK         0.1400 
     38 CB          5.2177  -17.1256  -39.8939 C.3       7 UNK        -0.1800 
     39 N           2.8269  -16.6280  -39.9316 N.am      7 UNK        -0.5000 
     40 C           1.4957  -16.7726  -39.8877 C.2       6 UNK         0.5000 
     41 O           0.9314  -17.8608  -39.9966 O.2       6 UNK        -0.5000 
     42 CA          0.6469  -15.5056  -39.6853 C.3       6 UNK         0.1400 
     43 CB          1.4630  -14.2283  -39.3958 C.3       6 UNK        -0.1800 
     44 N          -0.1778  -15.2899  -40.8691 N.am      6 UNK        -0.5000 
     45 C          -1.4663  -14.9204  -40.8623 C.2       5 UNK         0.5000 
     46 O          -2.1181  -14.7636  -39.8287 O.2       5 UNK        -0.5000 
     47 CA         -2.1446  -14.6546  -42.2246 C.3       5 UNK         0.1400 
     48 CB         -2.8650  -13.2951  -42.2303 C.3       5 UNK        -0.1800 
     49 N          -1.1788  -14.6667  -43.3235 N.am      5 UNK        -0.5000 
     50 C          -1.0345  -15.6460  -44.2238 C.2       4 UNK         0.5000 
     51 O          -1.7942  -16.6085  -44.3107 O.2       4 UNK        -0.5000 
     52 CA          0.1699  -15.5432  -45.1829 C.3       4 UNK         0.1400 
     53 CB         -0.3029  -15.2226  -46.6057 C.3       4 UNK        -0.1800 
     54 N           1.1803  -14.5575  -44.7703 N.am      4 UNK        -0.5000 
     55 C           1.9794  -14.6973  -43.7011 C.2       3 UNK         0.5000 
     56 O           1.8990  -15.6604  -42.9371 O.2       3 UNK        -0.5000 
     57 CA          2.9868  -13.5768  -43.3683 C.3       3 UNK         0.1400 
     58 CB          4.3702  -14.1472  -42.9941 C.3       3 UNK        -0.1800 
     59 N           3.0964  -12.5136  -44.3735 N.am      3 UNK        -0.5000 
     60 C           3.5971  -12.5977  -45.6131 C.2       2 UNK         0.5000 
     61 O           4.0634  -13.6232  -46.1118 O.2       2 UNK        -0.5000 
     62 CA          3.5384  -11.2999  -46.4437 C.3       2 UNK         0.1400 
     63 CB          4.9522  -10.7998  -46.7791 C.3       2 UNK        -0.1800 
     64 N           2.7803  -11.4649  -47.6846 N.am      2 UNK        -0.5000 
     65 C           1.5112  -11.8895  -47.7697 C.2       1 UNK         0.5000 
     66 O           0.8239  -12.1473  -46.7764 O.2       1 UNK        -0.5000 
     67 C          -1.1085  -22.2046  -47.4468 C.2       11 UNK         0.5000 
     68 O          -1.6392  -22.7745  -48.4005 O.2       11 UNK        -0.5000 
     69 N          -1.6985  -21.2098  -46.7664 N.am      12 UNK        -0.5000 
     70 CA         -3.0520  -20.7246  -47.0409 C.3       12 UNK         0.1400 
     71 CB         -3.2965  -19.4047  -46.2925 C.3       12 UNK        -0.1800 
     72 C          -4.1159  -21.7792  -46.6832 C.2       12 UNK         0.5000 
     73 O          -5.0319  -22.0135  -47.4728 O.2       12 UNK        -0.5000 
     74 N          -3.9400  -22.4322  -45.5250 N.am      13 UNK        -0.5000 
     75 CA         -4.7631  -23.5459  -45.0509 C.3       13 UNK         0.1400 
     76 CB         -4.3536  -23.9073  -43.6157 C.3       13 UNK        -0.1800 
     77 C          -4.6882  -24.7840  -45.9642 C.2       13 UNK         0.5000 
     78 O          -5.6980  -25.4675  -46.1417 O.2       13 UNK        -0.5000 
     79 N          -3.5154  -25.0287  -46.5653 N.am      14 UNK        -0.5000 
     80 CA         -3.2674  -26.0605  -47.5727 C.3       14 UNK         0.1400 
     81 CB         -1.7581  -26.3524  -47.6413 C.3       14 UNK        -0.1800 
     82 C          -3.8566  -25.6771  -48.9466 C.2       14 UNK         0.5000 
     83 O          -3.1192  -25.5317  -49.9228 O.2       14 UNK        -0.5000 
     84 N          -5.1869  -25.5266  -48.9875 N.am      15 UNK        -0.5000 
     85 CA         -6.0273  -25.2978  -50.1648 C.3       15 UNK         0.1400 
     86 CB         -6.0797  -26.5774  -51.0276 C.3       15 UNK        -0.1800 
     87 C          -5.6320  -24.0506  -50.9813 C.2       15 UNK         0.5000 
     88 O          -5.5813  -24.1245  -52.2090 O.2       15 UNK        -0.5000 
     89 N          -5.3529  -22.9334  -50.2920 N.am      16 UNK        -0.5000 
     90 CA         -4.9731  -21.6352  -50.8609 C.3       16 UNK         0.1400 
     91 CB         -6.1722  -20.9929  -51.5888 C.3       16 UNK        -0.1800 
     92 C          -3.7142  -21.7348  -51.7449 C.2       16 UNK         0.5000 
     93 O          -3.7803  -21.4872  -52.9534 O.2       16 UNK        -0.5000 
     94 N          -2.6022  -22.1261  -51.1061 N.am      17 UNK        -0.5000 
     95 CA         -1.2747  -22.3267  -51.6867 C.3       17 UNK         0.1400 
     96 CB         -0.6960  -20.9987  -52.2201 C.3       17 UNK        -0.1800 
     97 C          -1.2564  -23.4795  -52.7092 C.2       17 UNK         0.5000 
     98 O          -0.7572  -23.3143  -53.8223 O.2       17 UNK        -0.5000 
     99 N          -1.8012  -24.6338  -52.2956 N.am      18 UNK        -0.5000 
    100 CA        -1.8612  -25.9027  -53.0265 C.3       18 UNK         0.1400 
    101 CB        -0.4466  -26.4877  -53.2226 C.3       18 UNK        -0.1800 
    102 C         -2.6681  -25.8017  -54.3354 C.2       18 UNK         0.5000 
    103 O         -2.1750  -26.1747  -55.4016 O.2       18 UNK        -0.5000 
    104 N         -3.9030  -25.2934  -54.2177 N.am      19 UNK        -0.5000 
    105 CA        -4.8964  -25.1088  -55.2808 C.3       19 UNK         0.1400 
    106 CB        -5.2837  -26.4540  -55.9311 C.3       19 UNK        -0.1800 
    107 C         -4.5167  -24.0254  -56.3102 C.2       19 UNK         0.5000 
    108 O         -5.0581  -24.0210  -57.4173 O.2       19 UNK        -0.5000 
    109 N         -3.6253  -23.1008  -55.9257 N.am      20 UNK        -0.5000 
    110 CA        -3.2651  -21.9271  -56.7228 C.3       20 UNK         0.1400 
    111 CB        -1.9363  -21.3531  -56.2135 C.3       20 UNK        -0.1800 
    112 C         -4.3581  -20.8422  -56.7019 C.2       20 UNK         0.5000 
    113 O         -4.4120  -20.0332  -57.6289 O.2       20 UNK        -0.5000 
    114 N         -5.1973  -20.8496  -55.6525 N.am      21 UNK        -0.5000 
    115 CA        -6.2748  -19.8957  -55.3706 C.3       21 UNK         0.1400 
    116 CB        -7.3827  -19.9695  -56.4426 C.3       21 UNK        -0.1800 
    117 C         -5.7173  -18.4760  -55.1522 C.2       21 UNK         0.5000 
    118 O         -6.1391  -17.5251  -55.8139 O.2       21 UNK        -0.5000 
    119 N         -4.7341  -18.3889  -54.2485 N.am      22 UNK        -0.5000 
    120 CA        -4.0119  -17.1667  -53.8716 C.3       22 UNK         0.1400 
    121 C         -4.9059  -16.0119  -53.3248 C.2       22 UNK         0.5000 
    122 N         -4.4466  -14.7712  -53.4252 N.am      22 UNK        -0.7600 
    123 O         -5.9891  -16.2255  -52.7840 O.2       22 UNK        -0.5000 
    124 C124       -2.8419  -17.5017  -52.9118 C.3       23 UNK        -0.0398 
    125 S125       -3.3792  -18.1740  -51.2974 S.3       23 UNK        -0.2404 
    126 C126       -2.8021  -16.8747  -50.1658 C.3       23 UNK        -0.0205 
    127 H127       -2.2709  -14.4115  -48.7224 H         1 UNK         0.0600 
    128 H128       -3.2536  -13.4152  -49.8042 H         1 UNK         0.0600 
    129 H129       -3.3182  -13.1629  -48.0557 H         1 UNK         0.0600 
    130 H130       -0.1399  -13.8506  -49.1833 H         1 UNK         0.3000 
    131 H131        0.6372  -11.0181  -49.4870 H         1 UNK         0.0600 
    132 H132        1.4043  -12.5817  -51.2342 H         1 UNK         0.0800 
    133 H133        2.6988  -11.7880  -50.4202 H         1 UNK         0.0800 
    134 H134        1.4382  -14.7316  -51.8914 H         1 UNK         0.0800 
    135 H135        2.7088  -15.8717  -51.5601 H         1 UNK         0.0800 
    136 H136       -0.8085  -15.2915  -51.1986 H         1 UNK         0.1150 
    137 H137       -1.4699  -18.6876  -48.6676 H         1 UNK         0.1150 
    138 H138        2.5209  -17.3344  -49.4261 H         1 UNK         0.1150 
    139 H139        2.0821  -18.9587  -47.6365 H         1 UNK         0.0800 
    140 H140        0.4349  -19.3594  -47.2101 H         1 UNK         0.0800 
    141 H141        2.0928  -21.4258  -46.8257 H         1 UNK         0.0800 
    142 H142        2.2094  -22.7182  -47.9525 H         1 UNK         0.0800 
    143 H143        0.3532  -23.7191  -47.2540 H         1 UNK         0.0600 
    144 H144        0.8134  -21.8477  -45.0755 H         1 UNK         0.3000 
    145 H145       -1.0528  -23.7229  -42.6955 H         1 UNK         0.0600 
    146 H146        1.0621  -25.0525  -42.8182 H         1 UNK         0.0600 
    147 H147        1.9958  -23.5718  -42.9991 H         1 UNK         0.0600 
    148 H148        1.1158  -23.8892  -41.5035 H         1 UNK         0.0600 
    149 H149        0.7342  -21.5199  -42.4107 H         1 UNK         0.3000 
    150 H150       -1.1869  -18.9800  -43.7411 H         1 UNK         0.0600 
    151 H151       -1.4070  -17.8927  -41.5283 H         1 UNK         0.0600 
    152 H152       -1.1601  -19.4396  -40.7145 H         1 UNK         0.0600 
    153 H153       -2.5961  -19.1706  -41.6958 H         1 UNK         0.0600 
    154 H154        0.9524  -18.7222  -41.9237 H         1 UNK         0.3000 
    155 H155        3.5835  -19.8342  -43.5283 H         1 UNK         0.0600 
    156 H156        2.8953  -17.2045  -44.9251 H         1 UNK         0.0600 
    157 H157        3.5101  -18.6740  -45.6621 H         1 UNK         0.0600 
    158 H158        4.5309  -17.7516  -44.5737 H         1 UNK         0.0600 
    159 H159        2.8321  -17.2020  -42.3345 H         1 UNK         0.3000 
    160 H160        3.6419  -18.3317  -39.0867 H         1 UNK         0.0600 
    161 H161        5.9725  -17.9130  -39.8740 H         1 UNK         0.0600 
    162 H162        5.3460  -16.5333  -38.9878 H         1 UNK         0.0600 
    163 H163        5.4360  -16.4857  -40.7493 H         1 UNK         0.0600 
    164 H164        3.2059  -15.6961  -39.8554 H         1 UNK         0.3000 
    165 H165        0.0137  -15.7072  -38.8191 H         1 UNK         0.0600 
    166 H166        0.8026  -13.3812  -39.2096 H         1 UNK         0.0600 
    167 H167        2.0839  -14.3476  -38.5069 H         1 UNK         0.0600 
    168 H168        2.1123  -13.9601  -40.2294 H         1 UNK         0.0600 
    169 H169        0.2861  -15.4661  -41.7537 H         1 UNK         0.3000 
    170 H170       -2.8933  -15.4368  -42.3651 H         1 UNK         0.0600 
    171 H171       -3.3512  -13.1123  -43.1888 H         1 UNK         0.0600 
    172 H172       -3.6402  -13.2556  -41.4640 H         1 UNK         0.0600 
    173 H173       -2.1738  -12.4726  -42.0425 H         1 UNK         0.0600 
    174 H174       -0.5204  -13.9020  -43.3490 H         1 UNK         0.3000 
    175 H175        0.6429  -16.5267  -45.2033 H         1 UNK         0.0600 
    176 H176       -0.8211  -14.2648  -46.6402 H         1 UNK         0.0600 
    177 H177       -0.9953  -15.9831  -46.9683 H         1 UNK         0.0600 
    178 H178        0.5342  -15.1850  -47.3034 H         1 UNK         0.0600 
    179 H179        1.2689  -13.7309  -45.3509 H         1 UNK         0.3000 
    180 H180        2.5903  -13.0882  -42.4777 H         1 UNK         0.0600 
    181 H181        5.0728  -13.3518  -42.7458 H         1 UNK         0.0600 
    182 H182        4.8001  -14.7369  -43.8042 H         1 UNK         0.0600 
    183 H183        4.3005  -14.7988  -42.1230 H         1 UNK         0.0600 
    184 H184        2.7145  -11.6227  -44.0862 H         1 UNK         0.3000 
    185 H185        3.0378  -10.5262  -45.8578 H         1 UNK         0.0600 
    186 H186        5.4915  -11.5098  -47.4076 H         1 UNK         0.0600 
    187 H187        4.9203   -9.8440  -47.3025 H         1 UNK         0.0600 
    188 H188        5.5394  -10.6532  -45.8716 H         1 UNK         0.0600 
    189 H189        3.2959  -11.3041  -48.5366 H         1 UNK         0.3000 
    190 H190       -1.2202  -20.8141  -45.9707 H         1 UNK         0.3000 
    191 H191       -3.1257  -20.5222  -48.1115 H         1 UNK         0.0600 
    192 H192       -3.2928  -19.5404  -45.2112 H         1 UNK         0.0600 
    193 H193       -4.2645  -18.9814  -46.5629 H         1 UNK         0.0600 
    194 H194       -2.5383  -18.6596  -46.5339 H         1 UNK         0.0600 
    195 H195       -3.1918  -22.1285  -44.9061 H         1 UNK         0.3000 
    196 H196       -5.8012  -23.2077  -45.0359 H         1 UNK         0.0600 
    197 H197       -4.9819  -24.7057  -43.2193 H         1 UNK         0.0600 
    198 H198       -4.4547  -23.0510  -42.9485 H         1 UNK         0.0600 
    199 H199       -3.3194  -24.2485  -43.5678 H         1 UNK         0.0600 
    200 H200       -2.7252  -24.4403  -46.3323 H         1 UNK         0.3000 
    201 H201       -3.7632  -26.9802  -47.2558 H         1 UNK         0.0600 
    202 H202       -1.3763  -26.6852  -46.6762 H         1 UNK         0.0600 
    203 H203       -1.1914  -25.4714  -47.9415 H         1 UNK         0.0600 
    204 H204       -1.5443  -27.1417  -48.3630 H         1 UNK         0.0600 
    205 H205       -5.6786  -25.6093  -48.1023 H         1 UNK         0.3000 
    206 H206       -7.0348  -25.1086  -49.7921 H         1 UNK         0.0600 
    207 H207       -6.7908  -26.4703  -51.8477 H         1 UNK         0.0600 
    208 H208       -5.1083  -26.8101  -51.4654 H         1 UNK         0.0600 
    209 H209       -6.3958  -27.4379  -50.4379 H         1 UNK         0.0600 
    210 H210       -5.3784  -22.9641  -49.2778 H         1 UNK         0.3000 
    211 H211       -4.7158  -20.9849  -50.0241 H         1 UNK         0.0600 
    212 H212       -6.4928  -21.5847  -52.4462 H         1 UNK         0.0600 
    213 H213       -5.9190  -19.9960  -51.9506 H         1 UNK         0.0600 
    214 H214       -7.0253  -20.8861  -50.9191 H         1 UNK         0.0600 
    215 H215       -2.6554  -22.3526  -50.1180 H         1 UNK         0.3000 
    216 H216       -0.6287  -22.6475  -50.8690 H         1 UNK         0.0600 
    217 H217        0.3302  -21.1303  -52.5640 H         1 UNK         0.0600 
    218 H218       -0.6806  -20.2373  -51.4397 H         1 UNK         0.0600 
    219 H219       -1.2733  -20.6037  -53.0538 H         1 UNK         0.0600 
    220 H220       -2.2183  -24.6710  -51.3678 H         1 UNK         0.3000 
    221 H221       -2.4104  -26.5952  -52.3870 H         1 UNK         0.0600 
    222 H222        0.1640  -25.8674  -53.8794 H         1 UNK         0.0600 
    223 H223        0.0750  -26.5825  -52.2701 H         1 UNK         0.0600 
    224 H224       -0.4949  -27.4829  -53.6658 H         1 UNK         0.0600 
    225 H225       -4.2160  -24.9677  -53.3068 H         1 UNK         0.3000 
    226 H226       -5.7903  -24.7300  -54.7844 H         1 UNK         0.0600 
    227 H227       -5.5512  -27.1939  -55.1766 H         1 UNK         0.0600 
    228 H228       -6.1471  -26.3364  -56.5868 H         1 UNK         0.0600 
    229 H229       -4.4732  -26.8643  -56.5337 H         1 UNK         0.0600 
    230 H230       -3.2177  -23.1682  -55.0025 H         1 UNK         0.3000 
    231 H231       -3.1240  -22.2382  -57.7600 H         1 UNK         0.0600 
    232 H232       -2.0168  -21.0276  -55.1771 H         1 UNK         0.0600 
    233 H233       -1.1374  -22.0921  -56.2744 H         1 UNK         0.0600 
    234 H234       -1.6282  -20.4908  -56.8059 H         1 UNK         0.0600 
    235 H235       -4.9986  -21.5139  -54.9146 H         1 UNK         0.3000 
    236 H236       -6.7216  -20.2008  -54.4244 H         1 UNK         0.0600 
    237 H237       -7.0339  -19.6303  -57.4182 H         1 UNK         0.0600 
    238 H238       -7.7536  -20.9882  -56.5550 H         1 UNK         0.0600 
    239 H239       -8.2314  -19.3432  -56.1656 H         1 UNK         0.0600 
    240 H240       -4.4532  -19.2288  -53.7605 H         1 UNK         0.3000 
    241 H241       -3.5704  -16.7958  -54.7985 H         1 UNK         0.0600 
    242 H242       -5.0098  -14.0146  -53.0692 H         1 UNK         0.3800 
    243 H243       -3.5663  -14.5626  -53.8698 H         1 UNK         0.3800 
    244 H244       -2.1864  -18.2395  -53.3762 H         1 UNK         0.0800 
    245 H245       -2.2180  -16.6203  -52.7629 H         1 UNK         0.0800 
    246 H246       -3.0845  -15.8962  -50.5564 H         1 UNK         0.0800 
    247 H247       -3.3146  -16.9844  -49.2089 H         1 UNK         0.0800 
@<TRIPOS>BOND
     1    1    2 1    
     2    1  127 1    
     3    1  128 1    
     4    1  129 1    
     5    2    3 2    
     6    2    4 am   BACKBONE|DICT|INTERRES
     7    4    5 1    
     8    4  130 1    
     9    5    6 1    
    10    5   65 1    
    11    5  131 1    
    12    6    7 1    
    13    6  132 1    
    14    6  133 1    
    15    7    8 1    
    16    8    9 1    
    17    8  134 1    
    18    8  135 1    
    19    9   10 ar   
    20    9   14 ar   
    21   10   11 ar   
    22   10  136 1    
    23   11   12 ar   
    24   11  126 1    
    25   12   13 ar   
    26   12  137 1    
    27   13   14 ar   
    28   13   15 1    
    29   14  138 1    
    30   15   16 1    
    31   15  139 1    
    32   15  140 1    
    33   16   17 1    
    34   17   18 1    
    35   17  141 1    
    36   17  142 1    
    37   18   19 1    
    38   18   67 1    
    39   18  143 1    
    40   19   20 am   BACKBONE|DICT|INTERRES
    41   19  144 1    
    42   20   21 2    
    43   20   22 1    
    44   22   23 1    
    45   22   24 1    
    46   22  145 1    
    47   23  146 1    
    48   23  147 1    
    49   23  148 1    
    50   24   25 am   BACKBONE|DICT|INTERRES
    51   24  149 1    
    52   25   26 2    
    53   25   27 1    
    54   27   28 1    
    55   27   29 1    
    56   27  150 1    
    57   28  151 1    
    58   28  152 1    
    59   28  153 1    
    60   29   30 am   BACKBONE|DICT|INTERRES
    61   29  154 1    
    62   30   31 2    
    63   30   32 1    
    64   32   33 1    
    65   32   34 1    
    66   32  155 1    
    67   33  156 1    
    68   33  157 1    
    69   33  158 1    
    70   34   35 am   BACKBONE|DICT|INTERRES
    71   34  159 1    
    72   35   36 2    
    73   35   37 1    
    74   37   38 1    
    75   37   39 1    
    76   37  160 1    
    77   38  161 1    
    78   38  162 1    
    79   38  163 1    
    80   39   40 am   BACKBONE|DICT|INTERRES
    81   39  164 1    
    82   40   41 2    
    83   40   42 1    
    84   42   43 1    
    85   42   44 1    
    86   42  165 1    
    87   43  166 1    
    88   43  167 1    
    89   43  168 1    
    90   44   45 am   BACKBONE|DICT|INTERRES
    91   44  169 1    
    92   45   46 2    
    93   45   47 1    
    94   47   48 1    
    95   47   49 1    
    96   47  170 1    
    97   48  171 1    
    98   48  172 1    
    99   48  173 1    
   100   49   50 am   BACKBONE|DICT|INTERRES
   101   49  174 1    
   102   50   51 2    
   103   50   52 1    
   104   52   53 1    
   105   52   54 1    
   106   52  175 1    
   107   53  176 1    
   108   53  177 1    
   109   53  178 1    
   110   54   55 am   BACKBONE|DICT|INTERRES
   111   54  179 1    
   112   55   56 2    
   113   55   57 1    
   114   57   58 1    
   115   57   59 1    
   116   57  180 1    
   117   58  181 1    
   118   58  182 1    
   119   58  183 1    
   120   59   60 am   BACKBONE|DICT|INTERRES
   121   59  184 1    
   122   60   61 2    
   123   60   62 1    
   124   62   63 1    
   125   62   64 1    
   126   62  185 1    
   127   63  186 1    
   128   63  187 1    
   129   63  188 1    
   130   64   65 am   BACKBONE|DICT|INTERRES
   131   64  189 1    
   132   65   66 2    
   133   67   68 2    
   134   67   69 am   BACKBONE|DICT|INTERRES
   135   69   70 1    
   136   69  190 1    
   137   70   71 1    
   138   70   72 1    
   139   70  191 1    
   140   71  192 1    
   141   71  193 1    
   142   71  194 1    
   143   72   73 2    
   144   72   74 am   BACKBONE|DICT|INTERRES
   145   74   75 1    
   146   74  195 1    
   147   75   76 1    
   148   75   77 1    
   149   75  196 1    
   150   76  197 1    
   151   76  198 1    
   152   76  199 1    
   153   77   78 2    
   154   77   79 am   BACKBONE|DICT|INTERRES
   155   79   80 1    
   156   79  200 1    
   157   80   81 1    
   158   80   82 1    
   159   80  201 1    
   160   81  202 1    
   161   81  203 1    
   162   81  204 1    
   163   82   83 2    
   164   82   84 am   BACKBONE|DICT|INTERRES
   165   84   85 1    
   166   84  205 1    
   167   85   86 1    
   168   85   87 1    
   169   85  206 1    
   170   86  207 1    
   171   86  208 1    
   172   86  209 1    
   173   87   88 2    
   174   87   89 am   BACKBONE|DICT|INTERRES
   175   89   90 1    
   176   89  210 1    
   177   90   91 1    
   178   90   92 1    
   179   90  211 1    
   180   91  212 1    
   181   91  213 1    
   182   91  214 1    
   183   92   93 2    
   184   92   94 am   BACKBONE|DICT|INTERRES
   185   94   95 1    
   186   94  215 1    
   187   95   96 1    
   188   95   97 1    
   189   95  216 1    
   190   96  217 1    
   191   96  218 1    
   192   96  219 1    
   193   97   98 2    
   194   97   99 am   BACKBONE|DICT|INTERRES
   195   99  100 1    
   196   99  220 1    
   197  100  101 1    
   198  100  102 1    
   199  100  221 1    
   200  101  222 1    
   201  101  223 1    
   202  101  224 1    
   203  102  103 2    
   204  102  104 am   BACKBONE|DICT|INTERRES
   205  104  105 1    
   206  104  225 1    
   207  105  106 1    
   208  105  107 1    
   209  105  226 1    
   210  106  227 1    
   211  106  228 1    
   212  106  229 1    
   213  107  108 2    
   214  107  109 am   BACKBONE|DICT|INTERRES
   215  109  110 1    
   216  109  230 1    
   217  110  111 1    
   218  110  112 1    
   219  110  231 1    
   220  111  232 1    
   221  111  233 1    
   222  111  234 1    
   223  112  113 2    
   224  112  114 am   BACKBONE|DICT|INTERRES
   225  114  115 1    
   226  114  235 1    
   227  115  116 1    
   228  115  117 1    
   229  115  236 1    
   230  116  237 1    
   231  116  238 1    
   232  116  239 1    
   233  117  118 2    
   234  117  119 am   BACKBONE|DICT|INTERRES
   235  119  120 1    
   236  119  240 1    
   237  120  121 1    
   238  120  124 1    
   239  120  241 1    
   240  121  122 am   BACKBONE|DICT|INTERRES
   241  121  123 2    
   242  122  242 1    
   243  122  243 1    
   244  124  125 1    
   245  124  244 1    
   246  124  245 1    
   247  125  126 1    
   248  126  246 1    
   249  126  247 1    
@<TRIPOS>SUBSTRUCTURE
     1 UNK         1 GROUP             0       ****    0 ROOT    
