@<TRIPOS>MOLECULE
3R540
247   249    1
SMALL
USER_CHARGES


@<TRIPOS>ATOM
      1 CA          3.4564  -13.8375  -54.7330 C.3       0 UNK        -0.1800 
      2 C           3.2007  -14.3879  -53.3369 C.2       0 UNK         0.5000 
      3 O           3.7433  -15.4351  -52.9836 O.2       0 UNK        -0.5000 
      4 N           2.3727  -13.6909  -52.5488 N.am      1 UNK        -0.5000 
      5 CA          2.0508  -14.0346  -51.1615 C.3       1 UNK         0.1400 
      6 C6          0.7802  -13.2772  -50.6879 C.3       23 UNK        -0.0398 
      7 S7          0.2125  -13.7030  -49.0008 S.3       23 UNK        -0.2404 
      8 C8         -0.9900  -15.0306  -49.3123 C.3       23 UNK        -0.0205 
      9 C9         -0.3555  -16.2411  -49.9810 C.ar      23 UNK        -0.0193 
     10 C10        -0.7576  -16.6280  -51.2609 C.ar      23 UNK        -0.1150 
     11 C11        -0.1856  -17.7401  -51.8830 C.ar      23 UNK        -0.0193 
     12 C12         0.8125  -18.4602  -51.2185 C.ar      23 UNK        -0.1150 
     13 C13         1.2319  -18.0812  -49.9387 C.ar      23 UNK        -0.0193 
     14 C14         0.6434  -16.9690  -49.3290 C.ar      23 UNK        -0.1150 
     15 C15         2.3409  -18.8550  -49.2330 C.3       23 UNK        -0.0205 
     16 S16         1.9054  -19.3366  -47.5281 S.3       23 UNK        -0.2404 
     17 C17         0.5491  -20.5233  -47.8169 C.3       23 UNK        -0.0398 
     18 CA          0.7406  -21.8478  -47.0440 C.3       11 UNK         0.1400 
     19 N           0.8756  -21.6546  -45.5974 N.am      11 UNK        -0.5000 
     20 C           1.5347  -22.4989  -44.7950 C.2       10 UNK         0.5000 
     21 O           2.1120  -23.5118  -45.1891 O.2       10 UNK        -0.5000 
     22 CA          1.5147  -22.1661  -43.2957 C.3       10 UNK         0.1400 
     23 CB          2.4339  -20.9728  -42.9882 C.3       10 UNK        -0.1800 
     24 N           0.1688  -21.8863  -42.7925 N.am      10 UNK        -0.5000 
     25 C          -0.8208  -22.7864  -42.7082 C.2       9 UNK         0.5000 
     26 O          -0.7437  -23.9281  -43.1620 O.2       9 UNK        -0.5000 
     27 CA         -2.1134  -22.3354  -42.0104 C.3       9 UNK         0.1400 
     28 CB         -1.8933  -22.1759  -40.4974 C.3       9 UNK        -0.1800 
     29 N          -2.5952  -21.0727  -42.5663 N.am      9 UNK        -0.5000 
     30 C          -3.8324  -20.8587  -43.0360 C.2       8 UNK         0.5000 
     31 O          -4.7293  -21.7014  -43.0026 O.2       8 UNK        -0.5000 
     32 CA         -4.1377  -19.4760  -43.6527 C.3       8 UNK         0.1400 
     33 CB         -5.0160  -18.6424  -42.7075 C.3       8 UNK        -0.1800 
     34 N          -2.9439  -18.6984  -43.9842 N.am      8 UNK        -0.5000 
     35 C          -2.0690  -19.0044  -44.9488 C.2       7 UNK         0.5000 
     36 O          -2.2261  -19.9312  -45.7439 O.2       7 UNK        -0.5000 
     37 CA         -0.7846  -18.1590  -45.0259 C.3       7 UNK         0.1400 
     38 CB         -0.9057  -17.1341  -46.1581 C.3       7 UNK        -0.1800 
     39 N          -0.4039  -17.4623  -43.7936 N.am      7 UNK        -0.5000 
     40 C          -0.1917  -18.0127  -42.5893 C.2       6 UNK         0.5000 
     41 O          -0.3859  -19.2019  -42.3387 O.2       6 UNK        -0.5000 
     42 CA          0.3140  -17.0827  -41.4757 C.3       6 UNK         0.1400 
     43 CB          1.8480  -17.1190  -41.4159 C.3       6 UNK        -0.1800 
     44 N          -0.1312  -15.7031  -41.6738 N.am      6 UNK        -0.5000 
     45 C          -1.3049  -15.2180  -41.2451 C.2       5 UNK         0.5000 
     46 O          -2.1233  -15.8781  -40.6042 O.2       5 UNK        -0.5000 
     47 CA         -1.6238  -13.7507  -41.5940 C.3       5 UNK         0.1400 
     48 CB         -1.0999  -12.8117  -40.4968 C.3       5 UNK        -0.1800 
     49 N          -1.0691  -13.3359  -42.8834 N.am      5 UNK        -0.5000 
     50 C          -1.5178  -13.7591  -44.0731 C.2       4 UNK         0.5000 
     51 O          -2.4879  -14.5040  -44.2111 O.2       4 UNK        -0.5000 
     52 CA         -0.7346  -13.2969  -45.3185 C.3       4 UNK         0.1400 
     53 CB         -1.3599  -12.0193  -45.8980 C.3       4 UNK        -0.1800 
     54 N           0.6995  -13.0717  -45.0975 N.am      4 UNK        -0.5000 
     55 C           1.5663  -13.9843  -44.6402 C.2       3 UNK         0.5000 
     56 O           1.2382  -15.1129  -44.2715 O.2       3 UNK        -0.5000 
     57 CA          3.0486  -13.5795  -44.6052 C.3       3 UNK         0.1400 
     58 CB          3.7321  -14.0440  -43.3082 C.3       3 UNK        -0.1800 
     59 N           3.7343  -14.1769  -45.7475 N.am      3 UNK        -0.5000 
     60 C           3.7096  -13.6812  -46.9908 C.2       2 UNK         0.5000 
     61 O           3.2077  -12.5887  -47.2627 O.2       2 UNK        -0.5000 
     62 CA          4.3406  -14.5377  -48.1132 C.3       2 UNK         0.1400 
     63 CB          4.7509  -15.9556  -47.6640 C.3       2 UNK        -0.1800 
     64 N           3.4012  -14.6635  -49.2241 N.am      2 UNK        -0.5000 
     65 C           3.2646  -13.7962  -50.2344 C.2       1 UNK         0.5000 
     66 O           4.0211  -12.8420  -50.4374 O.2       1 UNK        -0.5000 
     67 C          -0.3867  -22.8517  -47.3548 C.2       11 UNK         0.5000 
     68 O          -0.3020  -23.5632  -48.3548 O.2       11 UNK        -0.5000 
     69 N          -1.3988  -22.9460  -46.4784 N.am      12 UNK        -0.5000 
     70 CA         -2.4897  -23.9199  -46.5700 C.3       12 UNK         0.1400 
     71 CB         -3.5421  -23.6268  -45.4948 C.3       12 UNK        -0.1800 
     72 C          -2.0124  -25.3803  -46.4887 C.2       12 UNK         0.5000 
     73 O          -2.5557  -26.2298  -47.1940 O.2       12 UNK        -0.5000 
     74 N          -0.9557  -25.6341  -45.7040 N.am      13 UNK        -0.5000 
     75 CA         -0.2566  -26.9209  -45.6322 C.3       13 UNK         0.1400 
     76 CB          0.7684  -26.8695  -44.4897 C.3       13 UNK        -0.1800 
     77 C           0.4255  -27.3346  -46.9559 C.2       13 UNK         0.5000 
     78 O           0.6512  -28.5259  -47.1698 O.2       13 UNK        -0.5000 
     79 N           0.7139  -26.3565  -47.8255 N.am      14 UNK        -0.5000 
     80 CA          1.2457  -26.5403  -49.1769 C.3       14 UNK         0.1400 
     81 CB          2.3572  -25.5010  -49.4081 C.3       14 UNK        -0.1800 
     82 C           0.1440  -26.4306  -50.2550 C.2       14 UNK         0.5000 
     83 O           0.4717  -26.3825  -51.4412 O.2       14 UNK        -0.5000 
     84 N          -1.1318  -26.3843  -49.8351 N.am      15 UNK        -0.5000 
     85 CA         -2.3416  -26.2270  -50.6522 C.3       15 UNK         0.1400 
     86 CB         -2.5326  -27.4266  -51.6040 C.3       15 UNK        -0.1800 
     87 C          -2.4300  -24.8621  -51.3705 C.2       15 UNK         0.5000 
     88 O          -3.0358  -24.7660  -52.4380 O.2       15 UNK        -0.5000 
     89 N          -1.8459  -23.8260  -50.7585 N.am      16 UNK        -0.5000 
     90 CA         -1.7998  -22.4490  -51.2458 C.3       16 UNK         0.1400 
     91 CB         -0.3381  -22.1134  -51.5924 C.3       16 UNK        -0.1800 
     92 C          -2.4072  -21.5054  -50.1886 C.2       16 UNK         0.5000 
     93 O          -1.8497  -20.4487  -49.8990 O.2       16 UNK        -0.5000 
     94 N          -3.5264  -21.9373  -49.5912 N.am      17 UNK        -0.5000 
     95 CA         -4.2416  -21.2754  -48.5015 C.3       17 UNK         0.1400 
     96 CB         -5.4706  -22.1235  -48.1293 C.3       17 UNK        -0.1800 
     97 C          -4.6685  -19.8328  -48.8290 C.2       17 UNK         0.5000 
     98 O          -5.5906  -19.6445  -49.6261 O.2       17 UNK        -0.5000 
     99 N          -3.9953  -18.8669  -48.1860 N.am      18 UNK        -0.5000 
    100 CA        -4.3207  -17.4378  -48.0699 C.3       18 UNK         0.1400 
    101 CB        -5.3218  -17.2488  -46.9132 C.3       18 UNK        -0.1800 
    102 C         -4.7780  -16.7322  -49.3677 C.2       18 UNK         0.5000 
    103 O         -5.7124  -15.9307  -49.3303 O.2       18 UNK        -0.5000 
    104 N         -4.1292  -17.0627  -50.4942 N.am      19 UNK        -0.5000 
    105 CA        -4.4107  -16.5950  -51.8619 C.3       19 UNK         0.1400 
    106 CB        -4.3211  -15.0577  -51.9730 C.3       19 UNK        -0.1800 
    107 C         -5.7263  -17.1188  -52.4791 C.2       19 UNK         0.5000 
    108 O         -5.9858  -16.8331  -53.6485 O.2       19 UNK        -0.5000 
    109 N         -6.5268  -17.8798  -51.7225 N.am      20 UNK        -0.5000 
    110 CA        -7.8092  -18.4259  -52.1600 C.3       20 UNK         0.1400 
    111 CB        -8.6975  -18.6918  -50.9343 C.3       20 UNK        -0.1800 
    112 C         -7.6137  -19.7045  -52.9861 C.2       20 UNK         0.5000 
    113 O         -8.2070  -19.8380  -54.0570 O.2       20 UNK        -0.5000 
    114 N         -6.7592  -20.6091  -52.4885 N.am      21 UNK        -0.5000 
    115 CA        -6.4288  -21.8726  -53.1553 C.3       21 UNK         0.1400 
    116 CB        -5.9295  -22.8756  -52.1078 C.3       21 UNK        -0.1800 
    117 C         -5.3934  -21.7070  -54.2864 C.2       21 UNK         0.5000 
    118 O         -5.2303  -22.6231  -55.0928 O.2       21 UNK        -0.5000 
    119 N         -4.7152  -20.5526  -54.3274 N.am      22 UNK        -0.5000 
    120 CA        -3.6857  -20.2021  -55.3214 C.3       22 UNK         0.1400 
    121 C         -4.2262  -19.9474  -56.7606 C.2       22 UNK         0.5000 
    122 N         -5.5289  -19.7969  -56.9699 N.am      22 UNK        -0.7600 
    123 O         -3.4460  -19.8886  -57.7070 O.2       22 UNK        -0.5000 
    124 C124       -2.8176  -19.0035  -54.8565 C.3       23 UNK        -0.0398 
    125 S125       -2.1005  -19.2363  -53.1956 S.3       23 UNK        -0.2404 
    126 C126       -0.6464  -18.1455  -53.2754 C.3       23 UNK        -0.0205 
    127 H127        3.1523  -14.5657  -55.4849 H         1 UNK         0.0600 
    128 H128        4.5185  -13.6315  -54.8661 H         1 UNK         0.0600 
    129 H129        2.9059  -12.9136  -54.9125 H         1 UNK         0.0600 
    130 H130        1.9875  -12.8212  -52.8874 H         1 UNK         0.3000 
    131 H131        1.8322  -15.1030  -51.1517 H         1 UNK         0.0600 
    132 H132        0.9571  -12.2006  -50.7136 H         1 UNK         0.0800 
    133 H133       -0.0401  -13.4602  -51.3835 H         1 UNK         0.0800 
    134 H134       -1.4296  -15.3360  -48.3633 H         1 UNK         0.0800 
    135 H135       -1.8081  -14.6316  -49.9107 H         1 UNK         0.0800 
    136 H136       -1.5155  -16.0619  -51.7800 H         1 UNK         0.1150 
    137 H137        1.2655  -19.3137  -51.7014 H         1 UNK         0.1150 
    138 H138        0.9701  -16.6644  -48.3459 H         1 UNK         0.1150 
    139 H139        2.6098  -19.7506  -49.7952 H         1 UNK         0.0800 
    140 H140        3.2348  -18.2315  -49.2043 H         1 UNK         0.0800 
    141 H141        0.4994  -20.7307  -48.8855 H         1 UNK         0.0800 
    142 H142       -0.3950  -20.0437  -47.5617 H         1 UNK         0.0800 
    143 H143        1.6642  -22.2971  -47.4167 H         1 UNK         0.0600 
    144 H144        0.4294  -20.8452  -45.1970 H         1 UNK         0.3000 
    145 H145        1.8977  -23.0358  -42.7575 H         1 UNK         0.0600 
    146 H146        2.4729  -20.7715  -41.9176 H         1 UNK         0.0600 
    147 H147        3.4542  -21.1711  -43.3190 H         1 UNK         0.0600 
    148 H148        2.0995  -20.0622  -43.4868 H         1 UNK         0.0600 
    149 H149        0.0125  -20.9459  -42.4365 H         1 UNK         0.3000 
    150 H150       -2.8503  -23.1270  -42.1597 H         1 UNK         0.0600 
    151 H151       -1.5050  -23.0960  -40.0588 H         1 UNK         0.0600 
    152 H152       -2.8290  -21.9429  -39.9891 H         1 UNK         0.0600 
    153 H153       -1.1848  -21.3774  -40.2726 H         1 UNK         0.0600 
    154 H154       -1.9195  -20.3162  -42.6110 H         1 UNK         0.3000 
    155 H155       -4.6955  -19.6532  -44.5745 H         1 UNK         0.0600 
    156 H156       -4.4997  -18.4187  -41.7730 H         1 UNK         0.0600 
    157 H157       -5.3029  -17.6966  -43.1677 H         1 UNK         0.0600 
    158 H158       -5.9359  -19.1724  -42.4568 H         1 UNK         0.0600 
    159 H159       -2.7311  -17.9154  -43.3829 H         1 UNK         0.3000 
    160 H160        0.0339  -18.8376  -45.2643 H         1 UNK         0.0600 
    161 H161        0.0105  -16.5539  -46.2624 H         1 UNK         0.0600 
    162 H162       -1.7259  -16.4385  -45.9812 H         1 UNK         0.0600 
    163 H163       -1.0905  -17.6283  -47.1124 H         1 UNK         0.0600 
    164 H164       -0.1307  -16.4919  -43.9082 H         1 UNK         0.3000 
    165 H165       -0.0704  -17.4575  -40.5247 H         1 UNK         0.0600 
    166 H166        2.2297  -16.4630  -40.6336 H         1 UNK         0.0600 
    167 H167        2.2047  -18.1268  -41.1991 H         1 UNK         0.0600 
    168 H168        2.2953  -16.8119  -42.3614 H         1 UNK         0.0600 
    169 H169        0.4576  -15.1209  -42.2551 H         1 UNK         0.3000 
    170 H170       -2.7103  -13.6491  -41.6394 H         1 UNK         0.0600 
    171 H171       -0.0131  -12.8541  -40.4144 H         1 UNK         0.0600 
    172 H172       -1.3823  -11.7775  -40.6947 H         1 UNK         0.0600 
    173 H173       -1.5136  -13.0797  -39.5237 H         1 UNK         0.0600 
    174 H174       -0.2722  -12.7168  -42.8627 H         1 UNK         0.3000 
    175 H175       -0.8244  -14.0862  -46.0665 H         1 UNK         0.0600 
    176 H176       -0.8773  -11.7310  -46.8319 H         1 UNK         0.0600 
    177 H177       -1.2780  -11.1813  -45.2048 H         1 UNK         0.0600 
    178 H178       -2.4190  -12.1659  -46.1143 H         1 UNK         0.0600 
    179 H179        1.0630  -12.1843  -45.4154 H         1 UNK         0.3000 
    180 H180        3.1241  -12.4910  -44.6529 H         1 UNK         0.0600 
    181 H181        3.7640  -15.1311  -43.2318 H         1 UNK         0.0600 
    182 H182        3.2055  -13.6670  -42.4306 H         1 UNK         0.0600 
    183 H183        4.7575  -13.6781  -43.2541 H         1 UNK         0.0600 
    184 H184        4.1331  -15.0923  -45.5990 H         1 UNK         0.3000 
    185 H185        5.2392  -14.0176  -48.4508 H         1 UNK         0.0600 
    186 H186        3.9020  -16.5259  -47.2832 H         1 UNK         0.0600 
    187 H187        5.1766  -16.5177  -48.4955 H         1 UNK         0.0600 
    188 H188        5.5133  -15.9218  -46.8848 H         1 UNK         0.0600 
    189 H189        2.7043  -15.3869  -49.1280 H         1 UNK         0.3000 
    190 H190       -1.4202  -22.3096  -45.6950 H         1 UNK         0.3000 
    191 H191       -2.9543  -23.7952  -47.5482 H         1 UNK         0.0600 
    192 H192       -3.9026  -22.6008  -45.5623 H         1 UNK         0.0600 
    193 H193       -4.4063  -24.2826  -45.6062 H         1 UNK         0.0600 
    194 H194       -3.1471  -23.7793  -44.4916 H         1 UNK         0.0600 
    195 H195       -0.6022  -24.8937  -45.1088 H         1 UNK         0.3000 
    196 H196       -0.9959  -27.6879  -45.3929 H         1 UNK         0.0600 
    197 H197        1.2742  -27.8288  -44.3739 H         1 UNK         0.0600 
    198 H198        0.2886  -26.6380  -43.5385 H         1 UNK         0.0600 
    199 H199        1.5338  -26.1145  -44.6709 H         1 UNK         0.0600 
    200 H200        0.4662  -25.4047  -47.5854 H         1 UNK         0.3000 
    201 H201        1.6891  -27.5332  -49.2726 H         1 UNK         0.0600 
    202 H202        3.1271  -25.5696  -48.6395 H         1 UNK         0.0600 
    203 H203        1.9677  -24.4827  -49.4018 H         1 UNK         0.0600 
    204 H204        2.8469  -25.6571  -50.3700 H         1 UNK         0.0600 
    205 H205       -1.3027  -26.4321  -48.8373 H         1 UNK         0.3000 
    206 H206       -3.1752  -26.2407  -49.9489 H         1 UNK         0.0600 
    207 H207       -2.4715  -28.3717  -51.0644 H         1 UNK         0.0600 
    208 H208       -3.5111  -27.3921  -52.0843 H         1 UNK         0.0600 
    209 H209       -1.7830  -27.4417  -52.3953 H         1 UNK         0.0600 
    210 H210       -1.3540  -23.9824  -49.8820 H         1 UNK         0.3000 
    211 H211       -2.4005  -22.3337  -52.1501 H         1 UNK         0.0600 
    212 H212        0.3159  -22.2142  -50.7265 H         1 UNK         0.0600 
    213 H213       -0.2428  -21.0946  -51.9625 H         1 UNK         0.0600 
    214 H214        0.0397  -22.7756  -52.3713 H         1 UNK         0.0600 
    215 H215       -3.9089  -22.8170  -49.9010 H         1 UNK         0.3000 
    216 H216       -3.5719  -21.2544  -47.6408 H         1 UNK         0.0600 
    217 H217       -5.9880  -21.6984  -47.2683 H         1 UNK         0.0600 
    218 H218       -5.1972  -23.1451  -47.8699 H         1 UNK         0.0600 
    219 H219       -6.1890  -22.1752  -48.9482 H         1 UNK         0.0600 
    220 H220       -3.2212  -19.1718  -47.6085 H         1 UNK         0.3000 
    221 H221       -3.3954  -16.9389  -47.7831 H         1 UNK         0.0600 
    222 H222       -6.2757  -17.7322  -47.1273 H         1 UNK         0.0600 
    223 H223       -4.9342  -17.6665  -45.9850 H         1 UNK         0.0600 
    224 H224       -5.5194  -16.1926  -46.7261 H         1 UNK         0.0600 
    225 H225       -3.4048  -17.7658  -50.4209 H         1 UNK         0.3000 
    226 H226       -3.6144  -16.9985  -52.4823 H         1 UNK         0.0600 
    227 H227       -3.3964  -14.6737  -51.5483 H         1 UNK         0.0600 
    228 H228       -4.3466  -14.7430  -53.0169 H         1 UNK         0.0600 
    229 H229       -5.1515  -14.5618  -51.4703 H         1 UNK         0.0600 
    230 H230       -6.2139  -18.1473  -50.7949 H         1 UNK         0.3000 
    231 H231       -8.3155  -17.6893  -52.7879 H         1 UNK         0.0600 
    232 H232       -8.2512  -19.4215  -50.2578 H         1 UNK         0.0600 
    233 H233       -9.6723  -19.0769  -51.2359 H         1 UNK         0.0600 
    234 H234       -8.8698  -17.7758  -50.3689 H         1 UNK         0.0600 
    235 H235       -6.3150  -20.4202  -51.5973 H         1 UNK         0.3000 
    236 H236       -7.3379  -22.2816  -53.6014 H         1 UNK         0.0600 
    237 H237       -6.6425  -22.9908  -51.2915 H         1 UNK         0.0600 
    238 H238       -5.7801  -23.8606  -52.5521 H         1 UNK         0.0600 
    239 H239       -4.9763  -22.5618  -51.6903 H         1 UNK         0.0600 
    240 H240       -4.9158  -19.8556  -53.6274 H         1 UNK         0.3000 
    241 H241       -3.0232  -21.0659  -55.4035 H         1 UNK         0.0600 
    242 H242       -6.1816  -19.8423  -56.2029 H         1 UNK         0.3800 
    243 H243       -5.8659  -19.6362  -57.9062 H         1 UNK         0.3800 
    244 H244       -2.0019  -18.8374  -55.5627 H         1 UNK         0.0800 
    245 H245       -3.4081  -18.0856  -54.8475 H         1 UNK         0.0800 
    246 H246       -0.8880  -17.2511  -53.8519 H         1 UNK         0.0800 
    247 H247        0.1572  -18.6519  -53.8120 H         1 UNK         0.0800 
@<TRIPOS>BOND
     1    1    2 1    
     2    1  127 1    
     3    1  128 1    
     4    1  129 1    
     5    2    3 2    
     6    2    4 am   BACKBONE|DICT|INTERRES
     7    4    5 1    
     8    4  130 1    
     9    5    6 1    
    10    5   65 1    
    11    5  131 1    
    12    6    7 1    
    13    6  132 1    
    14    6  133 1    
    15    7    8 1    
    16    8    9 1    
    17    8  134 1    
    18    8  135 1    
    19    9   10 ar   
    20    9   14 ar   
    21   10   11 ar   
    22   10  136 1    
    23   11   12 ar   
    24   11  126 1    
    25   12   13 ar   
    26   12  137 1    
    27   13   14 ar   
    28   13   15 1    
    29   14  138 1    
    30   15   16 1    
    31   15  139 1    
    32   15  140 1    
    33   16   17 1    
    34   17   18 1    
    35   17  141 1    
    36   17  142 1    
    37   18   19 1    
    38   18   67 1    
    39   18  143 1    
    40   19   20 am   BACKBONE|DICT|INTERRES
    41   19  144 1    
    42   20   21 2    
    43   20   22 1    
    44   22   23 1    
    45   22   24 1    
    46   22  145 1    
    47   23  146 1    
    48   23  147 1    
    49   23  148 1    
    50   24   25 am   BACKBONE|DICT|INTERRES
    51   24  149 1    
    52   25   26 2    
    53   25   27 1    
    54   27   28 1    
    55   27   29 1    
    56   27  150 1    
    57   28  151 1    
    58   28  152 1    
    59   28  153 1    
    60   29   30 am   BACKBONE|DICT|INTERRES
    61   29  154 1    
    62   30   31 2    
    63   30   32 1    
    64   32   33 1    
    65   32   34 1    
    66   32  155 1    
    67   33  156 1    
    68   33  157 1    
    69   33  158 1    
    70   34   35 am   BACKBONE|DICT|INTERRES
    71   34  159 1    
    72   35   36 2    
    73   35   37 1    
    74   37   38 1    
    75   37   39 1    
    76   37  160 1    
    77   38  161 1    
    78   38  162 1    
    79   38  163 1    
    80   39   40 am   BACKBONE|DICT|INTERRES
    81   39  164 1    
    82   40   41 2    
    83   40   42 1    
    84   42   43 1    
    85   42   44 1    
    86   42  165 1    
    87   43  166 1    
    88   43  167 1    
    89   43  168 1    
    90   44   45 am   BACKBONE|DICT|INTERRES
    91   44  169 1    
    92   45   46 2    
    93   45   47 1    
    94   47   48 1    
    95   47   49 1    
    96   47  170 1    
    97   48  171 1    
    98   48  172 1    
    99   48  173 1    
   100   49   50 am   BACKBONE|DICT|INTERRES
   101   49  174 1    
   102   50   51 2    
   103   50   52 1    
   104   52   53 1    
   105   52   54 1    
   106   52  175 1    
   107   53  176 1    
   108   53  177 1    
   109   53  178 1    
   110   54   55 am   BACKBONE|DICT|INTERRES
   111   54  179 1    
   112   55   56 2    
   113   55   57 1    
   114   57   58 1    
   115   57   59 1    
   116   57  180 1    
   117   58  181 1    
   118   58  182 1    
   119   58  183 1    
   120   59   60 am   BACKBONE|DICT|INTERRES
   121   59  184 1    
   122   60   61 2    
   123   60   62 1    
   124   62   63 1    
   125   62   64 1    
   126   62  185 1    
   127   63  186 1    
   128   63  187 1    
   129   63  188 1    
   130   64   65 am   BACKBONE|DICT|INTERRES
   131   64  189 1    
   132   65   66 2    
   133   67   68 2    
   134   67   69 am   BACKBONE|DICT|INTERRES
   135   69   70 1    
   136   69  190 1    
   137   70   71 1    
   138   70   72 1    
   139   70  191 1    
   140   71  192 1    
   141   71  193 1    
   142   71  194 1    
   143   72   73 2    
   144   72   74 am   BACKBONE|DICT|INTERRES
   145   74   75 1    
   146   74  195 1    
   147   75   76 1    
   148   75   77 1    
   149   75  196 1    
   150   76  197 1    
   151   76  198 1    
   152   76  199 1    
   153   77   78 2    
   154   77   79 am   BACKBONE|DICT|INTERRES
   155   79   80 1    
   156   79  200 1    
   157   80   81 1    
   158   80   82 1    
   159   80  201 1    
   160   81  202 1    
   161   81  203 1    
   162   81  204 1    
   163   82   83 2    
   164   82   84 am   BACKBONE|DICT|INTERRES
   165   84   85 1    
   166   84  205 1    
   167   85   86 1    
   168   85   87 1    
   169   85  206 1    
   170   86  207 1    
   171   86  208 1    
   172   86  209 1    
   173   87   88 2    
   174   87   89 am   BACKBONE|DICT|INTERRES
   175   89   90 1    
   176   89  210 1    
   177   90   91 1    
   178   90   92 1    
   179   90  211 1    
   180   91  212 1    
   181   91  213 1    
   182   91  214 1    
   183   92   93 2    
   184   92   94 am   BACKBONE|DICT|INTERRES
   185   94   95 1    
   186   94  215 1    
   187   95   96 1    
   188   95   97 1    
   189   95  216 1    
   190   96  217 1    
   191   96  218 1    
   192   96  219 1    
   193   97   98 2    
   194   97   99 am   BACKBONE|DICT|INTERRES
   195   99  100 1    
   196   99  220 1    
   197  100  101 1    
   198  100  102 1    
   199  100  221 1    
   200  101  222 1    
   201  101  223 1    
   202  101  224 1    
   203  102  103 2    
   204  102  104 am   BACKBONE|DICT|INTERRES
   205  104  105 1    
   206  104  225 1    
   207  105  106 1    
   208  105  107 1    
   209  105  226 1    
   210  106  227 1    
   211  106  228 1    
   212  106  229 1    
   213  107  108 2    
   214  107  109 am   BACKBONE|DICT|INTERRES
   215  109  110 1    
   216  109  230 1    
   217  110  111 1    
   218  110  112 1    
   219  110  231 1    
   220  111  232 1    
   221  111  233 1    
   222  111  234 1    
   223  112  113 2    
   224  112  114 am   BACKBONE|DICT|INTERRES
   225  114  115 1    
   226  114  235 1    
   227  115  116 1    
   228  115  117 1    
   229  115  236 1    
   230  116  237 1    
   231  116  238 1    
   232  116  239 1    
   233  117  118 2    
   234  117  119 am   BACKBONE|DICT|INTERRES
   235  119  120 1    
   236  119  240 1    
   237  120  121 1    
   238  120  124 1    
   239  120  241 1    
   240  121  122 am   BACKBONE|DICT|INTERRES
   241  121  123 2    
   242  122  242 1    
   243  122  243 1    
   244  124  125 1    
   245  124  244 1    
   246  124  245 1    
   247  125  126 1    
   248  126  246 1    
   249  126  247 1    
@<TRIPOS>SUBSTRUCTURE
     1 UNK         1 GROUP             0       ****    0 ROOT    
