@<TRIPOS>MOLECULE
3R540
247   249    1
SMALL
USER_CHARGES


@<TRIPOS>ATOM
      1 CA         -3.7268  -15.7175  -49.1306 C.3       0 UNK        -0.1800 
      2 C          -2.6073  -15.3259  -48.1794 C.2       0 UNK         0.5000 
      3 O          -2.8565  -14.6421  -47.1867 O.2       0 UNK        -0.5000 
      4 N          -1.3745  -15.7646  -48.4672 N.am      1 UNK        -0.5000 
      5 CA         -0.1600  -15.4076  -47.7217 C.3       1 UNK         0.1400 
      6 C6          1.1253  -15.9212  -48.4056 C.3       23 UNK        -0.0398 
      7 S7          1.3421  -15.2521  -50.0860 S.3       23 UNK        -0.2404 
      8 C8          2.6290  -16.3622  -50.7415 C.3       23 UNK        -0.0205 
      9 C9          2.1161  -17.7829  -50.9241 C.ar      23 UNK        -0.0193 
     10 C10         1.1925  -18.0669  -51.9341 C.ar      23 UNK        -0.1150 
     11 C11         0.6999  -19.3631  -52.0976 C.ar      23 UNK        -0.0193 
     12 C12         1.1390  -20.3788  -51.2445 C.ar      23 UNK        -0.1150 
     13 C13         2.0667  -20.1121  -50.2350 C.ar      23 UNK        -0.0193 
     14 C14         2.5577  -18.8114  -50.0845 C.ar      23 UNK        -0.1150 
     15 C15         2.5558  -21.2382  -49.3326 C.3       23 UNK        -0.0205 
     16 S16         2.1817  -20.9569  -47.5724 S.3       23 UNK        -0.2404 
     17 C17         0.3615  -21.1029  -47.5164 C.3       23 UNK        -0.0398 
     18 CA         -0.1440  -22.4637  -46.9672 C.3       11 UNK         0.1400 
     19 N           0.5261  -22.8626  -45.7225 N.am      11 UNK        -0.5000 
     20 C           0.5551  -24.1146  -45.2398 C.2       10 UNK         0.5000 
     21 O           0.0009  -25.0703  -45.7804 O.2       10 UNK        -0.5000 
     22 CA          1.2657  -24.3296  -43.8883 C.3       10 UNK         0.1400 
     23 CB          2.7609  -24.6015  -44.1089 C.3       10 UNK        -0.1800 
     24 N           1.1174  -23.2076  -42.9608 N.am      10 UNK        -0.5000 
     25 C          -0.0386  -22.6471  -42.5778 C.2       9 UNK         0.5000 
     26 O          -1.1415  -23.0818  -42.9089 O.2       9 UNK        -0.5000 
     27 CA          0.0441  -21.3586  -41.7334 C.3       9 UNK         0.1400 
     28 CB         -0.3547  -21.6466  -40.2787 C.3       9 UNK        -0.1800 
     29 N           1.3580  -20.7038  -41.7488 N.am      9 UNK        -0.5000 
     30 C           1.9766  -20.2163  -42.8336 C.2       8 UNK         0.5000 
     31 O           1.5087  -20.2762  -43.9737 O.2       8 UNK        -0.5000 
     32 CA          3.3906  -19.6534  -42.5955 C.3       8 UNK         0.1400 
     33 CB          4.3986  -20.8039  -42.4360 C.3       8 UNK        -0.1800 
     34 N           3.8440  -18.7932  -43.6857 N.am      8 UNK        -0.5000 
     35 C           3.3441  -17.5855  -43.9653 C.2       7 UNK         0.5000 
     36 O           2.4739  -17.0260  -43.2909 O.2       7 UNK        -0.5000 
     37 CA          3.9306  -16.8925  -45.2045 C.3       7 UNK         0.1400 
     38 CB          3.5685  -17.6497  -46.4933 C.3       7 UNK        -0.1800 
     39 N           3.4052  -15.5356  -45.2716 N.am      7 UNK        -0.5000 
     40 C           4.0942  -14.4336  -45.5878 C.2       6 UNK         0.5000 
     41 O           5.2602  -14.4441  -45.9835 O.2       6 UNK        -0.5000 
     42 CA          3.3616  -13.0882  -45.4203 C.3       6 UNK         0.1400 
     43 CB          2.8535  -12.5733  -46.7762 C.3       6 UNK        -0.1800 
     44 N           2.2252  -13.2042  -44.5084 N.am      6 UNK        -0.5000 
     45 C           2.2804  -13.1066  -43.1744 C.2       5 UNK         0.5000 
     46 O           3.2993  -12.7965  -42.5547 O.2       5 UNK        -0.5000 
     47 CA          0.9737  -13.4350  -42.4182 C.3       5 UNK         0.1400 
     48 CB          0.8929  -12.7761  -41.0257 C.3       5 UNK        -0.1800 
     49 N          -0.2285  -13.1578  -43.2138 N.am      5 UNK        -0.5000 
     50 C          -0.6694  -11.9682  -43.6520 C.2       4 UNK         0.5000 
     51 O          -0.1523  -10.8903  -43.3573 O.2       4 UNK        -0.5000 
     52 CA         -1.8746  -11.9815  -44.6156 C.3       4 UNK         0.1400 
     53 CB         -1.4066  -11.6837  -46.0488 C.3       4 UNK        -0.1800 
     54 N          -2.6082  -13.2488  -44.6200 N.am      4 UNK        -0.5000 
     55 C          -3.4083  -13.6773  -43.6342 C.2       3 UNK         0.5000 
     56 O          -3.6592  -13.0242  -42.6210 O.2       3 UNK        -0.5000 
     57 CA         -3.9978  -15.0886  -43.7976 C.3       3 UNK         0.1400 
     58 CB         -5.2820  -15.0532  -44.6404 C.3       3 UNK        -0.1800 
     59 N          -3.0391  -16.0108  -44.4086 N.am      3 UNK        -0.5000 
     60 C          -2.0024  -16.5634  -43.7627 C.2       2 UNK         0.5000 
     61 O          -1.7552  -16.3683  -42.5731 O.2       2 UNK        -0.5000 
     62 CA         -1.0781  -17.4747  -44.5920 C.3       2 UNK         0.1400 
     63 CB         -1.6507  -18.8987  -44.6480 C.3       2 UNK        -0.1800 
     64 N          -0.8635  -16.9772  -45.9534 N.am      2 UNK        -0.5000 
     65 C          -0.1903  -15.8554  -46.2462 C.2       1 UNK         0.5000 
     66 O           0.3722  -15.1586  -45.4028 O.2       1 UNK        -0.5000 
     67 C          -1.6859  -22.4535  -46.8364 C.2       11 UNK         0.5000 
     68 O          -2.3684  -22.4291  -47.8606 O.2       11 UNK        -0.5000 
     69 N          -2.2139  -22.4595  -45.6026 N.am      12 UNK        -0.5000 
     70 CA         -3.6392  -22.6182  -45.3103 C.3       12 UNK         0.1400 
     71 CB         -4.0487  -21.6775  -44.1665 C.3       12 UNK        -0.1800 
     72 C          -3.9796  -24.0770  -44.9591 C.2       12 UNK         0.5000 
     73 O          -5.0713  -24.5313  -45.2989 O.2       12 UNK        -0.5000 
     74 N          -3.0519  -24.7888  -44.2996 N.am      13 UNK        -0.5000 
     75 CA         -3.1734  -26.2099  -43.9609 C.3       13 UNK         0.1400 
     76 CB         -2.0344  -26.6161  -43.0136 C.3       13 UNK        -0.1800 
     77 C          -3.1975  -27.0998  -45.2176 C.2       13 UNK         0.5000 
     78 O          -4.1118  -27.9091  -45.3786 O.2       13 UNK        -0.5000 
     79 N          -2.2278  -26.8809  -46.1134 N.am      14 UNK        -0.5000 
     80 CA         -2.2579  -27.3254  -47.5012 C.3       14 UNK         0.1400 
     81 CB         -0.8509  -27.7897  -47.9163 C.3       14 UNK        -0.1800 
     82 C          -2.7381  -26.1061  -48.2982 C.2       14 UNK         0.5000 
     83 O          -1.9149  -25.2738  -48.6771 O.2       14 UNK        -0.5000 
     84 N          -4.0684  -25.9821  -48.4120 N.am      15 UNK        -0.5000 
     85 CA         -4.8603  -24.7881  -48.7385 C.3       15 UNK         0.1400 
     86 CB         -6.3457  -25.1202  -48.5027 C.3       15 UNK        -0.1800 
     87 C          -4.6260  -24.1220  -50.1141 C.2       15 UNK         0.5000 
     88 O          -5.5834  -23.8002  -50.8189 O.2       15 UNK        -0.5000 
     89 N          -3.3645  -23.8559  -50.4544 N.am      16 UNK        -0.5000 
     90 CA         -2.9417  -23.0329  -51.5838 C.3       16 UNK         0.1400 
     91 CB         -1.4264  -23.1881  -51.7586 C.3       16 UNK        -0.1800 
     92 C          -3.3330  -21.5527  -51.4039 C.2       16 UNK         0.5000 
     93 O          -3.6303  -20.8774  -52.3899 O.2       16 UNK        -0.5000 
     94 N          -3.3913  -21.0800  -50.1492 N.am      17 UNK        -0.5000 
     95 CA         -3.8350  -19.7350  -49.7716 C.3       17 UNK         0.1400 
     96 CB         -3.5814  -19.5123  -48.2718 C.3       17 UNK        -0.1800 
     97 C          -5.3053  -19.4291  -50.1291 C.2       17 UNK         0.5000 
     98 O          -5.6663  -18.2556  -50.1964 O.2       17 UNK        -0.5000 
     99 N          -6.1175  -20.4657  -50.3893 N.am      18 UNK        -0.5000 
    100 CA        -7.4766  -20.3295  -50.9179 C.3       18 UNK         0.1400 
    101 CB        -8.2265  -21.6605  -50.7600 C.3       18 UNK        -0.1800 
    102 C         -7.4912  -19.8665  -52.3892 C.2       18 UNK         0.5000 
    103 O         -8.4026  -19.1372  -52.7816 O.2       18 UNK        -0.5000 
    104 N         -6.4764  -20.2731  -53.1681 N.am      19 UNK        -0.5000 
    105 CA        -6.2296  -19.7769  -54.5242 C.3       19 UNK         0.1400 
    106 CB        -5.4388  -20.8261  -55.3218 C.3       19 UNK        -0.1800 
    107 C         -5.4780  -18.4332  -54.5001 C.2       19 UNK         0.5000 
    108 O         -5.6689  -17.6149  -55.3999 O.2       19 UNK        -0.5000 
    109 N         -4.6388  -18.2388  -53.4717 N.am      20 UNK        -0.5000 
    110 CA        -3.8833  -17.0378  -53.0894 C.3       20 UNK         0.1400 
    111 CB        -4.8164  -15.8415  -52.8275 C.3       20 UNK        -0.1800 
    112 C         -2.7386  -16.6588  -54.0458 C.2       20 UNK         0.5000 
    113 O         -1.6533  -16.3215  -53.5738 O.2       20 UNK        -0.5000 
    114 N         -2.9784  -16.7451  -55.3578 N.am      21 UNK        -0.5000 
    115 CA        -1.9563  -16.6228  -56.3964 C.3       21 UNK         0.1400 
    116 CB        -2.6191  -16.1755  -57.7085 C.3       21 UNK        -0.1800 
    117 C         -1.1971  -17.9484  -56.5928 C.2       21 UNK         0.5000 
    118 O          0.0178  -17.9223  -56.7893 O.2       21 UNK        -0.5000 
    119 N         -1.9429  -19.0628  -56.5201 N.am      22 UNK        -0.5000 
    120 CA        -1.5215  -20.4613  -56.7166 C.3       22 UNK         0.1400 
    121 C         -0.5923  -20.7177  -57.9454 C.2       22 UNK         0.5000 
    122 N          0.4223  -21.5664  -57.8427 N.am      22 UNK        -0.7600 
    123 O         -0.8352  -20.1939  -59.0305 O.2       22 UNK        -0.5000 
    124 C124       -1.1386  -21.1804  -55.3902 C.3       23 UNK        -0.0398 
    125 S125        0.3817  -20.5949  -54.5617 S.3       23 UNK        -0.2404 
    126 C126       -0.3300  -19.6670  -53.1705 C.3       23 UNK        -0.0205 
    127 H127       -4.5603  -16.1475  -48.5756 H         1 UNK         0.0600 
    128 H128       -3.3942  -16.4497  -49.8652 H         1 UNK         0.0600 
    129 H129       -4.0901  -14.8391  -49.6633 H         1 UNK         0.0600 
    130 H130       -1.2217  -16.3009  -49.3092 H         1 UNK         0.3000 
    131 H131       -0.1119  -14.3174  -47.7116 H         1 UNK         0.0600 
    132 H132        2.0069  -15.6358  -47.8310 H         1 UNK         0.0800 
    133 H133        1.1152  -17.0110  -48.4463 H         1 UNK         0.0800 
    134 H134        2.9690  -15.9788  -51.7045 H         1 UNK         0.0800 
    135 H135        3.4963  -16.3416  -50.0796 H         1 UNK         0.0800 
    136 H136        0.8468  -17.2734  -52.5826 H         1 UNK         0.1150 
    137 H137        0.7661  -21.3824  -51.3784 H         1 UNK         0.1150 
    138 H138        3.2778  -18.6024  -49.3064 H         1 UNK         0.1150 
    139 H139        2.1320  -22.1971  -49.6354 H         1 UNK         0.0800 
    140 H140        3.6363  -21.3320  -49.4480 H         1 UNK         0.0800 
    141 H141       -0.0464  -20.9245  -48.5127 H         1 UNK         0.0800 
    142 H142        0.0015  -20.2807  -46.8999 H         1 UNK         0.0800 
    143 H143        0.0924  -23.2209  -47.7183 H         1 UNK         0.0600 
    144 H144        0.9966  -22.1238  -45.2124 H         1 UNK         0.3000 
    145 H145        0.8252  -25.2067  -43.4131 H         1 UNK         0.0600 
    146 H146        3.2623  -24.8399  -43.1707 H         1 UNK         0.0600 
    147 H147        2.9086  -25.4492  -44.7795 H         1 UNK         0.0600 
    148 H148        3.2651  -23.7410  -44.5510 H         1 UNK         0.0600 
    149 H149        1.9713  -22.7777  -42.6400 H         1 UNK         0.3000 
    150 H150       -0.6787  -20.6568  -42.1528 H         1 UNK         0.0600 
    151 H151        0.3483  -22.3267  -39.7961 H         1 UNK         0.0600 
    152 H152       -1.3433  -22.1054  -40.2271 H         1 UNK         0.0600 
    153 H153       -0.3943  -20.7294  -39.6908 H         1 UNK         0.0600 
    154 H154        1.8232  -20.6321  -40.8551 H         1 UNK         0.3000 
    155 H155        3.3776  -19.0641  -41.6762 H         1 UNK         0.0600 
    156 H156        4.4416  -21.4280  -43.3299 H         1 UNK         0.0600 
    157 H157        4.1353  -21.4496  -41.5974 H         1 UNK         0.0600 
    158 H158        5.4025  -20.4245  -42.2442 H         1 UNK         0.0600 
    159 H159        4.5279  -19.1929  -44.3107 H         1 UNK         0.3000 
    160 H160        5.0163  -16.8661  -45.0906 H         1 UNK         0.0600 
    161 H161        2.4926  -17.8067  -46.5767 H         1 UNK         0.0600 
    162 H162        4.0409  -18.6319  -46.5180 H         1 UNK         0.0600 
    163 H163        3.9067  -17.1104  -47.3778 H         1 UNK         0.0600 
    164 H164        2.4658  -15.4336  -44.9024 H         1 UNK         0.3000 
    165 H165        4.0754  -12.3640  -45.0223 H         1 UNK         0.0600 
    166 H166        2.3826  -11.5955  -46.6731 H         1 UNK         0.0600 
    167 H167        3.6739  -12.4662  -47.4868 H         1 UNK         0.0600 
    168 H168        2.1225  -13.2499  -47.2180 H         1 UNK         0.0600 
    169 H169        1.3612  -13.5535  -44.9095 H         1 UNK         0.3000 
    170 H170        0.9837  -14.5158  -42.2675 H         1 UNK         0.0600 
    171 H171        1.7028  -13.1233  -40.3832 H         1 UNK         0.0600 
    172 H172        0.9673  -11.6901  -41.0835 H         1 UNK         0.0600 
    173 H173       -0.0442  -13.0235  -40.5270 H         1 UNK         0.0600 
    174 H174       -0.7121  -13.9777  -43.5543 H         1 UNK         0.3000 
    175 H175       -2.5572  -11.1884  -44.3040 H         1 UNK         0.0600 
    176 H176       -0.9169  -10.7108  -46.1069 H         1 UNK         0.0600 
    177 H177       -0.6938  -12.4298  -46.3995 H         1 UNK         0.0600 
    178 H178       -2.2457  -11.6679  -46.7447 H         1 UNK         0.0600 
    179 H179       -2.5217  -13.8230  -45.4541 H         1 UNK         0.3000 
    180 H180       -4.2565  -15.4613  -42.8041 H         1 UNK         0.0600 
    181 H181       -5.0954  -14.6878  -45.6507 H         1 UNK         0.0600 
    182 H182       -6.0262  -14.3969  -44.1876 H         1 UNK         0.0600 
    183 H183       -5.7286  -16.0444  -44.7197 H         1 UNK         0.0600 
    184 H184       -3.1357  -16.1665  -45.4019 H         1 UNK         0.3000 
    185 H185       -0.1130  -17.5165  -44.0824 H         1 UNK         0.0600 
    186 H186       -1.9732  -19.2326  -43.6611 H         1 UNK         0.0600 
    187 H187       -2.5108  -18.9620  -45.3147 H         1 UNK         0.0600 
    188 H188       -0.9028  -19.6103  -44.9891 H         1 UNK         0.0600 
    189 H189       -1.3040  -17.4852  -46.7050 H         1 UNK         0.3000 
    190 H190       -1.5913  -22.4966  -44.8047 H         1 UNK         0.3000 
    191 H191       -4.2343  -22.3467  -46.1844 H         1 UNK         0.0600 
    192 H192       -3.9547  -20.6349  -44.4645 H         1 UNK         0.0600 
    193 H193       -5.0912  -21.8349  -43.8869 H         1 UNK         0.0600 
    194 H194       -3.4444  -21.8302  -43.2725 H         1 UNK         0.0600 
    195 H195       -2.2169  -24.3127  -43.9762 H         1 UNK         0.3000 
    196 H196       -4.1188  -26.3470  -43.4320 H         1 UNK         0.0600 
    197 H197       -2.1610  -27.6449  -42.6746 H         1 UNK         0.0600 
    198 H198       -2.0097  -25.9808  -42.1278 H         1 UNK         0.0600 
    199 H199       -1.0623  -26.5516  -43.5009 H         1 UNK         0.0600 
    200 H200       -1.5223  -26.1758  -45.9090 H         1 UNK         0.3000 
    201 H201       -2.9540  -28.1546  -47.6437 H         1 UNK         0.0600 
    202 H202       -0.8336  -28.0850  -48.9658 H         1 UNK         0.0600 
    203 H203       -0.5349  -28.6514  -47.3284 H         1 UNK         0.0600 
    204 H204       -0.1046  -27.0056  -47.7822 H         1 UNK         0.0600 
    205 H205       -4.6188  -26.7507  -48.0567 H         1 UNK         0.3000 
    206 H206       -4.5853  -24.0291  -48.0058 H         1 UNK         0.0600 
    207 H207       -6.5136  -25.4910  -47.4913 H         1 UNK         0.0600 
    208 H208       -6.9737  -24.2365  -48.6242 H         1 UNK         0.0600 
    209 H209       -6.7020  -25.8775  -49.2019 H         1 UNK         0.0600 
    210 H210       -2.6384  -24.1717  -49.8104 H         1 UNK         0.3000 
    211 H211       -3.4355  -23.4020  -52.4849 H         1 UNK         0.0600 
    212 H212       -0.8906  -22.8636  -50.8660 H         1 UNK         0.0600 
    213 H213       -1.0633  -22.6064  -52.6052 H         1 UNK         0.0600 
    214 H214       -1.1585  -24.2282  -51.9448 H         1 UNK         0.0600 
    215 H215       -3.1058  -21.6901  -49.3849 H         1 UNK         0.3000 
    216 H216       -3.2188  -19.0235  -50.3243 H         1 UNK         0.0600 
    217 H217       -3.8984  -18.5171  -47.9593 H         1 UNK         0.0600 
    218 H218       -2.5217  -19.6030  -48.0345 H         1 UNK         0.0600 
    219 H219       -4.1261  -20.2341  -47.6623 H         1 UNK         0.0600 
    220 H220       -5.7498  -21.4045  -50.3203 H         1 UNK         0.3000 
    221 H221       -7.9988  -19.5755  -50.3249 H         1 UNK         0.0600 
    222 H222       -7.7908  -22.4453  -51.3787 H         1 UNK         0.0600 
    223 H223       -8.2159  -22.0024  -49.7250 H         1 UNK         0.0600 
    224 H224       -9.2705  -21.5545  -51.0574 H         1 UNK         0.0600 
    225 H225       -5.7491  -20.8486  -52.7631 H         1 UNK         0.3000 
    226 H226       -7.1846  -19.6186  -55.0296 H         1 UNK         0.0600 
    227 H227       -5.2821  -20.4966  -56.3496 H         1 UNK         0.0600 
    228 H228       -4.4584  -21.0169  -54.8865 H         1 UNK         0.0600 
    229 H229       -5.9755  -21.7740  -55.3637 H         1 UNK         0.0600 
    230 H230       -4.4863  -19.0396  -52.8700 H         1 UNK         0.3000 
    231 H231       -3.4116  -17.2917  -52.1397 H         1 UNK         0.0600 
    232 H232       -5.3271  -15.5146  -53.7335 H         1 UNK         0.0600 
    233 H233       -4.2554  -14.9885  -52.4441 H         1 UNK         0.0600 
    234 H234       -5.5747  -16.0911  -52.0852 H         1 UNK         0.0600 
    235 H235       -3.9214  -16.9935  -55.6452 H         1 UNK         0.3000 
    236 H236       -1.2338  -15.8576  -56.1040 H         1 UNK         0.0600 
    237 H237       -3.1088  -15.2086  -57.5915 H         1 UNK         0.0600 
    238 H238       -1.8790  -16.0715  -58.5031 H         1 UNK         0.0600 
    239 H239       -3.3683  -16.8915  -58.0485 H         1 UNK         0.0600 
    240 H240       -2.9315  -18.9354  -56.3720 H         1 UNK         0.3000 
    241 H241       -2.4454  -20.9489  -57.0305 H         1 UNK         0.0600 
    242 H242        0.6640  -21.9853  -56.9582 H         1 UNK         0.3800 
    243 H243        0.9992  -21.7423  -58.6505 H         1 UNK         0.3800 
    244 H244       -1.9743  -21.1021  -54.6944 H         1 UNK         0.0800 
    245 H245       -1.0310  -22.2516  -55.5660 H         1 UNK         0.0800 
    246 H246       -0.7710  -18.7503  -53.5553 H         1 UNK         0.0800 
    247 H247       -1.1406  -20.2309  -52.7170 H         1 UNK         0.0800 
@<TRIPOS>BOND
     1    1    2 1    
     2    1  127 1    
     3    1  128 1    
     4    1  129 1    
     5    2    3 2    
     6    2    4 am   BACKBONE|DICT|INTERRES
     7    4    5 1    
     8    4  130 1    
     9    5    6 1    
    10    5   65 1    
    11    5  131 1    
    12    6    7 1    
    13    6  132 1    
    14    6  133 1    
    15    7    8 1    
    16    8    9 1    
    17    8  134 1    
    18    8  135 1    
    19    9   10 ar   
    20    9   14 ar   
    21   10   11 ar   
    22   10  136 1    
    23   11   12 ar   
    24   11  126 1    
    25   12   13 ar   
    26   12  137 1    
    27   13   14 ar   
    28   13   15 1    
    29   14  138 1    
    30   15   16 1    
    31   15  139 1    
    32   15  140 1    
    33   16   17 1    
    34   17   18 1    
    35   17  141 1    
    36   17  142 1    
    37   18   19 1    
    38   18   67 1    
    39   18  143 1    
    40   19   20 am   BACKBONE|DICT|INTERRES
    41   19  144 1    
    42   20   21 2    
    43   20   22 1    
    44   22   23 1    
    45   22   24 1    
    46   22  145 1    
    47   23  146 1    
    48   23  147 1    
    49   23  148 1    
    50   24   25 am   BACKBONE|DICT|INTERRES
    51   24  149 1    
    52   25   26 2    
    53   25   27 1    
    54   27   28 1    
    55   27   29 1    
    56   27  150 1    
    57   28  151 1    
    58   28  152 1    
    59   28  153 1    
    60   29   30 am   BACKBONE|DICT|INTERRES
    61   29  154 1    
    62   30   31 2    
    63   30   32 1    
    64   32   33 1    
    65   32   34 1    
    66   32  155 1    
    67   33  156 1    
    68   33  157 1    
    69   33  158 1    
    70   34   35 am   BACKBONE|DICT|INTERRES
    71   34  159 1    
    72   35   36 2    
    73   35   37 1    
    74   37   38 1    
    75   37   39 1    
    76   37  160 1    
    77   38  161 1    
    78   38  162 1    
    79   38  163 1    
    80   39   40 am   BACKBONE|DICT|INTERRES
    81   39  164 1    
    82   40   41 2    
    83   40   42 1    
    84   42   43 1    
    85   42   44 1    
    86   42  165 1    
    87   43  166 1    
    88   43  167 1    
    89   43  168 1    
    90   44   45 am   BACKBONE|DICT|INTERRES
    91   44  169 1    
    92   45   46 2    
    93   45   47 1    
    94   47   48 1    
    95   47   49 1    
    96   47  170 1    
    97   48  171 1    
    98   48  172 1    
    99   48  173 1    
   100   49   50 am   BACKBONE|DICT|INTERRES
   101   49  174 1    
   102   50   51 2    
   103   50   52 1    
   104   52   53 1    
   105   52   54 1    
   106   52  175 1    
   107   53  176 1    
   108   53  177 1    
   109   53  178 1    
   110   54   55 am   BACKBONE|DICT|INTERRES
   111   54  179 1    
   112   55   56 2    
   113   55   57 1    
   114   57   58 1    
   115   57   59 1    
   116   57  180 1    
   117   58  181 1    
   118   58  182 1    
   119   58  183 1    
   120   59   60 am   BACKBONE|DICT|INTERRES
   121   59  184 1    
   122   60   61 2    
   123   60   62 1    
   124   62   63 1    
   125   62   64 1    
   126   62  185 1    
   127   63  186 1    
   128   63  187 1    
   129   63  188 1    
   130   64   65 am   BACKBONE|DICT|INTERRES
   131   64  189 1    
   132   65   66 2    
   133   67   68 2    
   134   67   69 am   BACKBONE|DICT|INTERRES
   135   69   70 1    
   136   69  190 1    
   137   70   71 1    
   138   70   72 1    
   139   70  191 1    
   140   71  192 1    
   141   71  193 1    
   142   71  194 1    
   143   72   73 2    
   144   72   74 am   BACKBONE|DICT|INTERRES
   145   74   75 1    
   146   74  195 1    
   147   75   76 1    
   148   75   77 1    
   149   75  196 1    
   150   76  197 1    
   151   76  198 1    
   152   76  199 1    
   153   77   78 2    
   154   77   79 am   BACKBONE|DICT|INTERRES
   155   79   80 1    
   156   79  200 1    
   157   80   81 1    
   158   80   82 1    
   159   80  201 1    
   160   81  202 1    
   161   81  203 1    
   162   81  204 1    
   163   82   83 2    
   164   82   84 am   BACKBONE|DICT|INTERRES
   165   84   85 1    
   166   84  205 1    
   167   85   86 1    
   168   85   87 1    
   169   85  206 1    
   170   86  207 1    
   171   86  208 1    
   172   86  209 1    
   173   87   88 2    
   174   87   89 am   BACKBONE|DICT|INTERRES
   175   89   90 1    
   176   89  210 1    
   177   90   91 1    
   178   90   92 1    
   179   90  211 1    
   180   91  212 1    
   181   91  213 1    
   182   91  214 1    
   183   92   93 2    
   184   92   94 am   BACKBONE|DICT|INTERRES
   185   94   95 1    
   186   94  215 1    
   187   95   96 1    
   188   95   97 1    
   189   95  216 1    
   190   96  217 1    
   191   96  218 1    
   192   96  219 1    
   193   97   98 2    
   194   97   99 am   BACKBONE|DICT|INTERRES
   195   99  100 1    
   196   99  220 1    
   197  100  101 1    
   198  100  102 1    
   199  100  221 1    
   200  101  222 1    
   201  101  223 1    
   202  101  224 1    
   203  102  103 2    
   204  102  104 am   BACKBONE|DICT|INTERRES
   205  104  105 1    
   206  104  225 1    
   207  105  106 1    
   208  105  107 1    
   209  105  226 1    
   210  106  227 1    
   211  106  228 1    
   212  106  229 1    
   213  107  108 2    
   214  107  109 am   BACKBONE|DICT|INTERRES
   215  109  110 1    
   216  109  230 1    
   217  110  111 1    
   218  110  112 1    
   219  110  231 1    
   220  111  232 1    
   221  111  233 1    
   222  111  234 1    
   223  112  113 2    
   224  112  114 am   BACKBONE|DICT|INTERRES
   225  114  115 1    
   226  114  235 1    
   227  115  116 1    
   228  115  117 1    
   229  115  236 1    
   230  116  237 1    
   231  116  238 1    
   232  116  239 1    
   233  117  118 2    
   234  117  119 am   BACKBONE|DICT|INTERRES
   235  119  120 1    
   236  119  240 1    
   237  120  121 1    
   238  120  124 1    
   239  120  241 1    
   240  121  122 am   BACKBONE|DICT|INTERRES
   241  121  123 2    
   242  122  242 1    
   243  122  243 1    
   244  124  125 1    
   245  124  244 1    
   246  124  245 1    
   247  125  126 1    
   248  126  246 1    
   249  126  247 1    
@<TRIPOS>SUBSTRUCTURE
     1 UNK         1 GROUP             0       ****    0 ROOT    
