@<TRIPOS>MOLECULE
3R540
247   249    1
SMALL
USER_CHARGES


@<TRIPOS>ATOM
      1 CA          4.3073  -11.8862  -51.7896 C.3       0 UNK        -0.1800 
      2 C           3.5494  -12.2472  -50.5203 C.2       0 UNK         0.5000 
      3 O           2.3189  -12.2191  -50.5143 O.2       0 UNK        -0.5000 
      4 N           4.2789  -12.5617  -49.4411 N.am      1 UNK        -0.5000 
      5 CA          3.8137  -13.0072  -48.1147 C.3       1 UNK         0.1400 
      6 C6          2.9408  -14.2881  -48.1490 C.3       23 UNK        -0.0398 
      7 S7          3.7630  -15.7251  -48.9062 S.3       23 UNK        -0.2404 
      8 C8          2.3892  -16.9196  -48.8397 C.3       23 UNK        -0.0205 
      9 C9          2.8358  -18.3475  -49.1009 C.ar      23 UNK        -0.0193 
     10 C10         2.2187  -19.1062  -50.0981 C.ar      23 UNK        -0.1150 
     11 C11         2.5806  -20.4417  -50.3105 C.ar      23 UNK        -0.0193 
     12 C12         3.5880  -21.0036  -49.5151 C.ar      23 UNK        -0.1150 
     13 C13         4.2148  -20.2547  -48.5138 C.ar      23 UNK        -0.0193 
     14 C14         3.8265  -18.9304  -48.3077 C.ar      23 UNK        -0.1150 
     15 C15         5.3289  -20.8550  -47.6666 C.3       23 UNK        -0.0205 
     16 S16         4.8073  -21.1634  -45.9478 S.3       23 UNK        -0.2404 
     17 C17         3.7714  -22.6441  -46.1623 C.3       23 UNK        -0.0398 
     18 CA          3.4436  -23.3456  -44.8186 C.3       11 UNK         0.1400 
     19 N           2.5151  -22.5558  -43.9982 N.am      11 UNK        -0.5000 
     20 C           2.2189  -22.8014  -42.7132 C.2       10 UNK         0.5000 
     21 O           2.7950  -23.6483  -42.0298 O.2       10 UNK        -0.5000 
     22 CA          1.0376  -22.0156  -42.1096 C.3       10 UNK         0.1400 
     23 CB          1.5012  -20.6573  -41.5629 C.3       10 UNK        -0.1800 
     24 N          -0.0553  -21.8208  -43.0676 N.am      10 UNK        -0.5000 
     25 C          -0.8120  -22.8054  -43.5751 C.2       9 UNK         0.5000 
     26 O          -0.7124  -23.9825  -43.2330 O.2       9 UNK        -0.5000 
     27 CA         -1.8031  -22.4335  -44.6913 C.3       9 UNK         0.1400 
     28 CB         -3.1563  -21.9870  -44.1180 C.3       9 UNK        -0.1800 
     29 N          -1.2710  -21.3920  -45.5660 N.am      9 UNK        -0.5000 
     30 C          -0.3386  -21.5892  -46.5088 C.2       8 UNK         0.5000 
     31 O           0.1392  -22.6918  -46.7894 O.2       8 UNK        -0.5000 
     32 CA          0.1679  -20.3262  -47.2338 C.3       8 UNK         0.1400 
     33 CB         -0.7156  -20.0220  -48.4482 C.3       8 UNK        -0.1800 
     34 N           0.2090  -19.1452  -46.3648 N.am      8 UNK        -0.5000 
     35 C           1.0355  -19.0299  -45.3154 C.2       7 UNK         0.5000 
     36 O           1.8402  -19.9018  -44.9936 O.2       7 UNK        -0.5000 
     37 CA          0.9038  -17.7759  -44.4315 C.3       7 UNK         0.1400 
     38 CB          1.7557  -16.6151  -44.9618 C.3       7 UNK        -0.1800 
     39 N          -0.4740  -17.3239  -44.2378 N.am      7 UNK        -0.5000 
     40 C          -1.4300  -18.0383  -43.6275 C.2       6 UNK         0.5000 
     41 O          -1.2660  -19.1923  -43.2347 O.2       6 UNK        -0.5000 
     42 CA         -2.7939  -17.3616  -43.4281 C.3       6 UNK         0.1400 
     43 CB         -2.7491  -16.4160  -42.2180 C.3       6 UNK        -0.1800 
     44 N          -3.1767  -16.6014  -44.6135 N.am      6 UNK        -0.5000 
     45 C          -4.0779  -16.9978  -45.5211 C.2       5 UNK         0.5000 
     46 O          -4.7501  -18.0282  -45.4358 O.2       5 UNK        -0.5000 
     47 CA         -4.2698  -16.0813  -46.7440 C.3       5 UNK         0.1400 
     48 CB         -5.3916  -15.0663  -46.4711 C.3       5 UNK        -0.1800 
     49 N          -3.0743  -15.3483  -47.1564 N.am      5 UNK        -0.5000 
     50 C          -1.8872  -15.8788  -47.4792 C.2       4 UNK         0.5000 
     51 O          -1.6248  -17.0807  -47.4480 O.2       4 UNK        -0.5000 
     52 CA         -0.7829  -14.8720  -47.8359 C.3       4 UNK         0.1400 
     53 CB         -0.8865  -14.4793  -49.3180 C.3       4 UNK        -0.1800 
     54 N          -0.7697  -13.6596  -47.0069 N.am      4 UNK        -0.5000 
     55 C          -0.7807  -13.6034  -45.6645 C.2       3 UNK         0.5000 
     56 O          -0.9037  -14.5965  -44.9435 O.2       3 UNK        -0.5000 
     57 CA         -0.6083  -12.2079  -45.0309 C.3       3 UNK         0.1400 
     58 CB         -0.2228  -12.2873  -43.5429 C.3       3 UNK        -0.1800 
     59 N           0.4189  -11.4459  -45.7406 N.am      3 UNK        -0.5000 
     60 C           0.2109  -10.5437  -46.7051 C.2       2 UNK         0.5000 
     61 O          -0.9081  -10.2017  -47.0868 O.2       2 UNK        -0.5000 
     62 CA          1.4607   -9.9772  -47.4068 C.3       2 UNK         0.1400 
     63 CB          2.2163   -8.9763  -46.5115 C.3       2 UNK        -0.1800 
     64 N           2.3453  -11.0245  -47.9367 N.am      2 UNK        -0.5000 
     65 C           3.0962  -11.9205  -47.2811 C.2       1 UNK         0.5000 
     66 O           3.2100  -11.9433  -46.0548 O.2       1 UNK        -0.5000 
     67 C           2.9165  -24.7705  -45.1047 C.2       11 UNK         0.5000 
     68 O           3.7128  -25.6403  -45.4595 O.2       11 UNK        -0.5000 
     69 N           1.5933  -24.9702  -44.9892 N.am      12 UNK        -0.5000 
     70 CA          0.8265  -26.1631  -45.3684 C.3       12 UNK         0.1400 
     71 CB          1.1993  -27.3679  -44.4805 C.3       12 UNK        -0.1800 
     72 C           0.9207  -26.4682  -46.8788 C.2       12 UNK         0.5000 
     73 O           0.8224  -27.6262  -47.2885 O.2       12 UNK        -0.5000 
     74 N           1.1211  -25.4127  -47.6771 N.am      13 UNK        -0.5000 
     75 CA          1.2941  -25.4723  -49.1259 C.3       13 UNK         0.1400 
     76 CB          2.2788  -24.3690  -49.5313 C.3       13 UNK        -0.1800 
     77 C          -0.0399  -25.3048  -49.8714 C.2       13 UNK         0.5000 
     78 O          -0.1361  -25.6883  -51.0376 O.2       13 UNK        -0.5000 
     79 N          -1.0409  -24.7435  -49.1879 N.am      14 UNK        -0.5000 
     80 CA         -2.4020  -24.5498  -49.6621 C.3       14 UNK         0.1400 
     81 CB         -2.4892  -23.2258  -50.4434 C.3       14 UNK        -0.1800 
     82 C          -3.3438  -24.5609  -48.4483 C.2       14 UNK         0.5000 
     83 O          -2.8841  -24.6388  -47.3056 O.2       14 UNK        -0.5000 
     84 N          -4.6492  -24.4798  -48.7211 N.am      15 UNK        -0.5000 
     85 CA         -5.7010  -24.3031  -47.7201 C.3       15 UNK         0.1400 
     86 CB         -7.0441  -24.6822  -48.3691 C.3       15 UNK        -0.1800 
     87 C          -5.7412  -22.8569  -47.1829 C.2       15 UNK         0.5000 
     88 O          -5.0038  -21.9912  -47.6620 O.2       15 UNK        -0.5000 
     89 N          -6.6448  -22.6042  -46.2256 N.am      16 UNK        -0.5000 
     90 CA         -6.9988  -21.2625  -45.7514 C.3       16 UNK         0.1400 
     91 CB         -8.0470  -21.3819  -44.6358 C.3       16 UNK        -0.1800 
     92 C          -7.5228  -20.3761  -46.8998 C.2       16 UNK         0.5000 
     93 O          -8.1712  -20.8864  -47.8174 O.2       16 UNK        -0.5000 
     94 N          -7.1812  -19.0811  -46.8514 N.am      17 UNK        -0.5000 
     95 CA         -7.3319  -18.1039  -47.9404 C.3       17 UNK         0.1400 
     96 CB         -8.8079  -17.9063  -48.3457 C.3       17 UNK        -0.1800 
     97 C          -6.4112  -18.4179  -49.1413 C.2       17 UNK         0.5000 
     98 O          -6.7033  -18.0158  -50.2684 O.2       17 UNK        -0.5000 
     99 N          -5.3205  -19.1560  -48.8746 N.am      18 UNK        -0.5000 
    100 CA        -4.2993  -19.6355  -49.8118 C.3       18 UNK         0.1400 
    101 CB        -3.4609  -18.4528  -50.3275 C.3       18 UNK        -0.1800 
    102 C         -4.8629  -20.4987  -50.9579 C.2       18 UNK         0.5000 
    103 O         -4.2833  -20.5229  -52.0472 O.2       18 UNK        -0.5000 
    104 N         -6.0204  -21.1346  -50.7099 N.am      19 UNK        -0.5000 
    105 CA        -6.8827  -21.8421  -51.6662 C.3       19 UNK         0.1400 
    106 CB        -6.2038  -23.1457  -52.1338 C.3       19 UNK        -0.1800 
    107 C         -7.3432  -20.9670  -52.8577 C.2       19 UNK         0.5000 
    108 O         -7.7303  -21.5089  -53.8939 O.2       19 UNK        -0.5000 
    109 N         -7.2507  -19.6341  -52.7058 N.am      20 UNK        -0.5000 
    110 CA        -7.3599  -18.6039  -53.7441 C.3       20 UNK         0.1400 
    111 CB        -8.8087  -18.5052  -54.2647 C.3       20 UNK        -0.1800 
    112 C         -6.3202  -18.7638  -54.8810 C.2       20 UNK         0.5000 
    113 O         -6.5649  -18.2988  -55.9960 O.2       20 UNK        -0.5000 
    114 N         -5.1899  -19.4250  -54.5890 N.am      21 UNK        -0.5000 
    115 CA        -4.1757  -19.8245  -55.5618 C.3       21 UNK         0.1400 
    116 CB        -4.1272  -21.3604  -55.6296 C.3       21 UNK        -0.1800 
    117 C         -2.7940  -19.2538  -55.2126 C.2       21 UNK         0.5000 
    118 O         -2.1554  -18.6627  -56.0843 O.2       21 UNK        -0.5000 
    119 N         -2.3512  -19.4379  -53.9602 N.am      22 UNK        -0.5000 
    120 CA        -1.0128  -19.0284  -53.4874 C.3       22 UNK         0.1400 
    121 C         -0.9360  -17.5681  -52.9458 C.2       22 UNK         0.5000 
    122 N         -2.0054  -16.7836  -52.9998 N.am      22 UNK        -0.7600 
    123 O          0.1109  -17.1315  -52.4781 O.2       22 UNK        -0.5000 
    124 C124       -0.4061  -20.0735  -52.5041 C.3       23 UNK        -0.0398 
    125 S125        1.3499  -20.4330  -52.8671 S.3       23 UNK        -0.2404 
    126 C126        1.8804  -21.3117  -51.3566 C.3       23 UNK        -0.0205 
    127 H127        5.3869  -11.9417  -51.6477 H         1 UNK         0.0600 
    128 H128        4.0563  -10.8722  -52.1010 H         1 UNK         0.0600 
    129 H129        4.0347  -12.5687  -52.5945 H         1 UNK         0.0600 
    130 H130        5.2849  -12.5261  -49.5295 H         1 UNK         0.3000 
    131 H131        4.7228  -13.2501  -47.5619 H         1 UNK         0.0600 
    132 H132        2.0138  -14.1006  -48.6882 H         1 UNK         0.0800 
    133 H133        2.6545  -14.5742  -47.1353 H         1 UNK         0.0800 
    134 H134        1.9307  -16.9003  -47.8542 H         1 UNK         0.0800 
    135 H135        1.6196  -16.6147  -49.5512 H         1 UNK         0.0800 
    136 H136        1.4404  -18.6545  -50.6946 H         1 UNK         0.1150 
    137 H137        3.8883  -22.0291  -49.6742 H         1 UNK         0.1150 
    138 H138        4.2980  -18.3514  -47.5259 H         1 UNK         0.1150 
    139 H139        5.7040  -21.7781  -48.1109 H         1 UNK         0.0800 
    140 H140        6.1722  -20.1631  -47.6541 H         1 UNK         0.0800 
    141 H141        2.8579  -22.3613  -46.6874 H         1 UNK         0.0800 
    142 H142        4.3109  -23.3197  -46.8293 H         1 UNK         0.0800 
    143 H143        4.3717  -23.4633  -44.2552 H         1 UNK         0.0600 
    144 H144        2.0764  -21.7597  -44.4535 H         1 UNK         0.3000 
    145 H145        0.6434  -22.5974  -41.2739 H         1 UNK         0.0600 
    146 H146        0.6672  -20.0907  -41.1482 H         1 UNK         0.0600 
    147 H147        1.9702  -20.0495  -42.3355 H         1 UNK         0.0600 
    148 H148        2.2338  -20.7909  -40.7663 H         1 UNK         0.0600 
    149 H149       -0.2545  -20.8651  -43.3465 H         1 UNK         0.3000 
    150 H150       -1.9731  -23.3300  -45.2883 H         1 UNK         0.0600 
    151 H151       -3.0625  -21.1050  -43.4850 H         1 UNK         0.0600 
    152 H152       -3.8591  -21.7525  -44.9170 H         1 UNK         0.0600 
    153 H153       -3.6022  -22.7782  -43.5144 H         1 UNK         0.0600 
    154 H154       -1.5677  -20.4462  -45.3743 H         1 UNK         0.3000 
    155 H155        1.1822  -20.5264  -47.5840 H         1 UNK         0.0600 
    156 H156       -0.7021  -20.8486  -49.1579 H         1 UNK         0.0600 
    157 H157       -0.3765  -19.1303  -48.9743 H         1 UNK         0.0600 
    158 H158       -1.7467  -19.8497  -48.1434 H         1 UNK         0.0600 
    159 H159       -0.4417  -18.3948  -46.5803 H         1 UNK         0.3000 
    160 H160        1.2962  -18.0422  -43.4485 H         1 UNK         0.0600 
    161 H161        1.2988  -16.1556  -45.8345 H         1 UNK         0.0600 
    162 H162        2.7570  -16.9473  -45.2402 H         1 UNK         0.0600 
    163 H163        1.8676  -15.8374  -44.2061 H         1 UNK         0.0600 
    164 H164       -0.6755  -16.3675  -44.5182 H         1 UNK         0.3000 
    165 H165       -3.5281  -18.1432  -43.2212 H         1 UNK         0.0600 
    166 H166       -3.7266  -15.9707  -42.0322 H         1 UNK         0.0600 
    167 H167       -2.4584  -16.9522  -41.3137 H         1 UNK         0.0600 
    168 H168       -2.0348  -15.6044  -42.3643 H         1 UNK         0.0600 
    169 H169       -2.6460  -15.7580  -44.7968 H         1 UNK         0.3000 
    170 H170       -4.5617  -16.7143  -47.5815 H         1 UNK         0.0600 
    171 H171       -6.2827  -15.5485  -46.0681 H         1 UNK         0.0600 
    172 H172       -5.0813  -14.3144  -45.7445 H         1 UNK         0.0600 
    173 H173       -5.6855  -14.5488  -47.3845 H         1 UNK         0.0600 
    174 H174       -3.1608  -14.3435  -47.1958 H         1 UNK         0.3000 
    175 H175        0.1701  -15.3742  -47.6835 H         1 UNK         0.0600 
    176 H176       -1.8315  -13.9803  -49.5364 H         1 UNK         0.0600 
    177 H177       -0.0827  -13.8066  -49.6159 H         1 UNK         0.0600 
    178 H178       -0.8251  -15.3599  -49.9598 H         1 UNK         0.0600 
    179 H179       -0.6968  -12.7838  -47.5042 H         1 UNK         0.3000 
    180 H180       -1.5714  -11.6990  -45.1025 H         1 UNK         0.0600 
    181 H181       -0.9911  -12.8013  -42.9639 H         1 UNK         0.0600 
    182 H182       -0.1064  -11.2923  -43.1132 H         1 UNK         0.0600 
    183 H183        0.7147  -12.8262  -43.3992 H         1 UNK         0.0600 
    184 H184        1.3851  -11.6954  -45.5453 H         1 UNK         0.3000 
    185 H185        1.1075   -9.4257  -48.2796 H         1 UNK         0.0600 
    186 H186        1.5679   -8.1463  -46.2286 H         1 UNK         0.0600 
    187 H187        2.5750   -9.4337  -45.5893 H         1 UNK         0.0600 
    188 H188        3.0757   -8.5542  -47.0324 H         1 UNK         0.0600 
    189 H189        2.2782  -11.1697  -48.9410 H         1 UNK         0.3000 
    190 H190        1.0331  -24.1954  -44.6604 H         1 UNK         0.3000 
    191 H191       -0.2205  -25.9242  -45.1769 H         1 UNK         0.0600 
    192 H192        0.5258  -28.2069  -44.6581 H         1 UNK         0.0600 
    193 H193        1.1267  -27.1131  -43.4231 H         1 UNK         0.0600 
    194 H194        2.2137  -27.7177  -44.6735 H         1 UNK         0.0600 
    195 H195        1.1101  -24.4879  -47.2609 H         1 UNK         0.3000 
    196 H196        1.7204  -26.4362  -49.4116 H         1 UNK         0.0600 
    197 H197        2.4353  -24.3586  -50.6105 H         1 UNK         0.0600 
    198 H198        3.2515  -24.5178  -49.0620 H         1 UNK         0.0600 
    199 H199        1.9098  -23.3871  -49.2344 H         1 UNK         0.0600 
    200 H200       -0.9020  -24.4979  -48.2146 H         1 UNK         0.3000 
    201 H201       -2.6806  -25.3809  -50.3134 H         1 UNK         0.0600 
    202 H202       -3.4595  -23.1208  -50.9266 H         1 UNK         0.0600 
    203 H203       -1.7352  -23.1721  -51.2288 H         1 UNK         0.0600 
    204 H204       -2.3532  -22.3670  -49.7872 H         1 UNK         0.0600 
    205 H205       -4.9379  -24.3993  -49.6834 H         1 UNK         0.3000 
    206 H206       -5.5096  -24.9753  -46.8811 H         1 UNK         0.0600 
    207 H207       -7.3156  -23.9891  -49.1665 H         1 UNK         0.0600 
    208 H208       -7.0088  -25.6855  -48.7942 H         1 UNK         0.0600 
    209 H209       -7.8553  -24.6735  -47.6404 H         1 UNK         0.0600 
    210 H210       -7.2319  -23.3579  -45.9009 H         1 UNK         0.3000 
    211 H211       -6.0981  -20.8041  -45.3378 H         1 UNK         0.0600 
    212 H212       -8.9640  -21.8515  -44.9942 H         1 UNK         0.0600 
    213 H213       -8.3130  -20.3995  -44.2433 H         1 UNK         0.0600 
    214 H214       -7.6697  -21.9728  -43.8009 H         1 UNK         0.0600 
    215 H215       -6.6080  -18.7662  -46.0744 H         1 UNK         0.3000 
    216 H216       -6.9869  -17.1531  -47.5414 H         1 UNK         0.0600 
    217 H217       -9.4376  -17.7321  -47.4733 H         1 UNK         0.0600 
    218 H218       -9.2062  -18.7669  -48.8832 H         1 UNK         0.0600 
    219 H219       -8.9165  -17.0414  -49.0011 H         1 UNK         0.0600 
    220 H220       -5.2033  -19.4857  -47.9257 H         1 UNK         0.3000 
    221 H221       -3.6467  -20.2941  -49.2417 H         1 UNK         0.0600 
    222 H222       -2.5856  -18.8086  -50.8660 H         1 UNK         0.0600 
    223 H223       -4.0307  -17.8142  -51.0031 H         1 UNK         0.0600 
    224 H224       -3.1013  -17.8344  -49.5074 H         1 UNK         0.0600 
    225 H225       -6.3992  -21.0401  -49.7764 H         1 UNK         0.3000 
    226 H226       -7.7876  -22.1121  -51.1201 H         1 UNK         0.0600 
    227 H227       -5.9046  -23.7614  -51.2876 H         1 UNK         0.0600 
    228 H228       -6.8818  -23.7463  -52.7412 H         1 UNK         0.0600 
    229 H229       -5.3172  -22.9461  -52.7365 H         1 UNK         0.0600 
    230 H230       -6.9590  -19.2799  -51.7996 H         1 UNK         0.3000 
    231 H231       -7.1222  -17.6595  -53.2527 H         1 UNK         0.0600 
    232 H232       -8.9326  -17.6407  -54.9177 H         1 UNK         0.0600 
    233 H233       -9.5155  -18.3920  -53.4427 H         1 UNK         0.0600 
    234 H234       -9.0958  -19.3887  -54.8354 H         1 UNK         0.0600 
    235 H235       -5.0527  -19.7639  -53.6416 H         1 UNK         0.3000 
    236 H236       -4.4330  -19.4570  -56.5573 H         1 UNK         0.0600 
    237 H237       -5.0863  -21.7679  -55.9500 H         1 UNK         0.0600 
    238 H238       -3.3743  -21.6981  -56.3428 H         1 UNK         0.0600 
    239 H239       -3.8869  -21.8018  -54.6614 H         1 UNK         0.0600 
    240 H240       -2.9502  -19.9036  -53.2845 H         1 UNK         0.3000 
    241 H241       -0.3672  -19.0108  -54.3673 H         1 UNK         0.0600 
    242 H242       -2.8646  -17.1188  -53.4025 H         1 UNK         0.3800 
    243 H243       -1.9415  -15.8378  -52.6603 H         1 UNK         0.3800 
    244 H244       -0.9398  -21.0223  -52.5778 H         1 UNK         0.0800 
    245 H245       -0.5121  -19.7596  -51.4656 H         1 UNK         0.0800 
    246 H246        2.5561  -22.1076  -51.6721 H         1 UNK         0.0800 
    247 H247        1.0221  -21.8034  -50.8971 H         1 UNK         0.0800 
@<TRIPOS>BOND
     1    1    2 1    
     2    1  127 1    
     3    1  128 1    
     4    1  129 1    
     5    2    3 2    
     6    2    4 am   BACKBONE|DICT|INTERRES
     7    4    5 1    
     8    4  130 1    
     9    5    6 1    
    10    5   65 1    
    11    5  131 1    
    12    6    7 1    
    13    6  132 1    
    14    6  133 1    
    15    7    8 1    
    16    8    9 1    
    17    8  134 1    
    18    8  135 1    
    19    9   10 ar   
    20    9   14 ar   
    21   10   11 ar   
    22   10  136 1    
    23   11   12 ar   
    24   11  126 1    
    25   12   13 ar   
    26   12  137 1    
    27   13   14 ar   
    28   13   15 1    
    29   14  138 1    
    30   15   16 1    
    31   15  139 1    
    32   15  140 1    
    33   16   17 1    
    34   17   18 1    
    35   17  141 1    
    36   17  142 1    
    37   18   19 1    
    38   18   67 1    
    39   18  143 1    
    40   19   20 am   BACKBONE|DICT|INTERRES
    41   19  144 1    
    42   20   21 2    
    43   20   22 1    
    44   22   23 1    
    45   22   24 1    
    46   22  145 1    
    47   23  146 1    
    48   23  147 1    
    49   23  148 1    
    50   24   25 am   BACKBONE|DICT|INTERRES
    51   24  149 1    
    52   25   26 2    
    53   25   27 1    
    54   27   28 1    
    55   27   29 1    
    56   27  150 1    
    57   28  151 1    
    58   28  152 1    
    59   28  153 1    
    60   29   30 am   BACKBONE|DICT|INTERRES
    61   29  154 1    
    62   30   31 2    
    63   30   32 1    
    64   32   33 1    
    65   32   34 1    
    66   32  155 1    
    67   33  156 1    
    68   33  157 1    
    69   33  158 1    
    70   34   35 am   BACKBONE|DICT|INTERRES
    71   34  159 1    
    72   35   36 2    
    73   35   37 1    
    74   37   38 1    
    75   37   39 1    
    76   37  160 1    
    77   38  161 1    
    78   38  162 1    
    79   38  163 1    
    80   39   40 am   BACKBONE|DICT|INTERRES
    81   39  164 1    
    82   40   41 2    
    83   40   42 1    
    84   42   43 1    
    85   42   44 1    
    86   42  165 1    
    87   43  166 1    
    88   43  167 1    
    89   43  168 1    
    90   44   45 am   BACKBONE|DICT|INTERRES
    91   44  169 1    
    92   45   46 2    
    93   45   47 1    
    94   47   48 1    
    95   47   49 1    
    96   47  170 1    
    97   48  171 1    
    98   48  172 1    
    99   48  173 1    
   100   49   50 am   BACKBONE|DICT|INTERRES
   101   49  174 1    
   102   50   51 2    
   103   50   52 1    
   104   52   53 1    
   105   52   54 1    
   106   52  175 1    
   107   53  176 1    
   108   53  177 1    
   109   53  178 1    
   110   54   55 am   BACKBONE|DICT|INTERRES
   111   54  179 1    
   112   55   56 2    
   113   55   57 1    
   114   57   58 1    
   115   57   59 1    
   116   57  180 1    
   117   58  181 1    
   118   58  182 1    
   119   58  183 1    
   120   59   60 am   BACKBONE|DICT|INTERRES
   121   59  184 1    
   122   60   61 2    
   123   60   62 1    
   124   62   63 1    
   125   62   64 1    
   126   62  185 1    
   127   63  186 1    
   128   63  187 1    
   129   63  188 1    
   130   64   65 am   BACKBONE|DICT|INTERRES
   131   64  189 1    
   132   65   66 2    
   133   67   68 2    
   134   67   69 am   BACKBONE|DICT|INTERRES
   135   69   70 1    
   136   69  190 1    
   137   70   71 1    
   138   70   72 1    
   139   70  191 1    
   140   71  192 1    
   141   71  193 1    
   142   71  194 1    
   143   72   73 2    
   144   72   74 am   BACKBONE|DICT|INTERRES
   145   74   75 1    
   146   74  195 1    
   147   75   76 1    
   148   75   77 1    
   149   75  196 1    
   150   76  197 1    
   151   76  198 1    
   152   76  199 1    
   153   77   78 2    
   154   77   79 am   BACKBONE|DICT|INTERRES
   155   79   80 1    
   156   79  200 1    
   157   80   81 1    
   158   80   82 1    
   159   80  201 1    
   160   81  202 1    
   161   81  203 1    
   162   81  204 1    
   163   82   83 2    
   164   82   84 am   BACKBONE|DICT|INTERRES
   165   84   85 1    
   166   84  205 1    
   167   85   86 1    
   168   85   87 1    
   169   85  206 1    
   170   86  207 1    
   171   86  208 1    
   172   86  209 1    
   173   87   88 2    
   174   87   89 am   BACKBONE|DICT|INTERRES
   175   89   90 1    
   176   89  210 1    
   177   90   91 1    
   178   90   92 1    
   179   90  211 1    
   180   91  212 1    
   181   91  213 1    
   182   91  214 1    
   183   92   93 2    
   184   92   94 am   BACKBONE|DICT|INTERRES
   185   94   95 1    
   186   94  215 1    
   187   95   96 1    
   188   95   97 1    
   189   95  216 1    
   190   96  217 1    
   191   96  218 1    
   192   96  219 1    
   193   97   98 2    
   194   97   99 am   BACKBONE|DICT|INTERRES
   195   99  100 1    
   196   99  220 1    
   197  100  101 1    
   198  100  102 1    
   199  100  221 1    
   200  101  222 1    
   201  101  223 1    
   202  101  224 1    
   203  102  103 2    
   204  102  104 am   BACKBONE|DICT|INTERRES
   205  104  105 1    
   206  104  225 1    
   207  105  106 1    
   208  105  107 1    
   209  105  226 1    
   210  106  227 1    
   211  106  228 1    
   212  106  229 1    
   213  107  108 2    
   214  107  109 am   BACKBONE|DICT|INTERRES
   215  109  110 1    
   216  109  230 1    
   217  110  111 1    
   218  110  112 1    
   219  110  231 1    
   220  111  232 1    
   221  111  233 1    
   222  111  234 1    
   223  112  113 2    
   224  112  114 am   BACKBONE|DICT|INTERRES
   225  114  115 1    
   226  114  235 1    
   227  115  116 1    
   228  115  117 1    
   229  115  236 1    
   230  116  237 1    
   231  116  238 1    
   232  116  239 1    
   233  117  118 2    
   234  117  119 am   BACKBONE|DICT|INTERRES
   235  119  120 1    
   236  119  240 1    
   237  120  121 1    
   238  120  124 1    
   239  120  241 1    
   240  121  122 am   BACKBONE|DICT|INTERRES
   241  121  123 2    
   242  122  242 1    
   243  122  243 1    
   244  124  125 1    
   245  124  244 1    
   246  124  245 1    
   247  125  126 1    
   248  126  246 1    
   249  126  247 1    
@<TRIPOS>SUBSTRUCTURE
     1 UNK         1 GROUP             0       ****    0 ROOT    
