@<TRIPOS>MOLECULE
3R540
247   249    1
SMALL
USER_CHARGES


@<TRIPOS>ATOM
      1 CA          0.3068  -13.8171  -49.1685 C.3       0 UNK        -0.1800 
      2 C          -0.4608  -13.9354  -47.8607 C.2       0 UNK         0.5000 
      3 O           0.1183  -14.2852  -46.8298 O.2       0 UNK        -0.5000 
      4 N          -1.7654  -13.6447  -47.9121 N.am      1 UNK        -0.5000 
      5 CA         -2.6506  -13.5680  -46.7459 C.3       1 UNK         0.1400 
      6 C6         -4.1402  -13.6912  -47.1631 C.3       23 UNK        -0.0398 
      7 S7         -5.1747  -14.4965  -45.8934 S.3       23 UNK        -0.2404 
      8 C8         -5.5302  -16.1099  -46.6643 C.3       23 UNK        -0.0205 
      9 C9         -4.3801  -17.0900  -46.4893 C.ar      23 UNK        -0.0193 
     10 C10        -3.3100  -17.0980  -47.3873 C.ar      23 UNK        -0.1150 
     11 C11        -2.2534  -17.9973  -47.2260 C.ar      23 UNK        -0.0193 
     12 C12        -2.2818  -18.9095  -46.1664 C.ar      23 UNK        -0.1150 
     13 C13        -3.3384  -18.9020  -45.2504 C.ar      23 UNK        -0.0193 
     14 C14        -4.3863  -17.9927  -45.4229 C.ar      23 UNK        -0.1150 
     15 C15        -3.3297  -19.8248  -44.0385 C.3       23 UNK        -0.0205 
     16 S16        -3.3525  -21.5884  -44.4902 S.3       23 UNK        -0.2404 
     17 C17        -1.6124  -22.0879  -44.2244 C.3       23 UNK        -0.0398 
     18 CA         -1.0050  -22.8500  -45.4312 C.3       11 UNK         0.1400 
     19 N           0.4506  -22.9140  -45.3651 N.am      11 UNK        -0.5000 
     20 C           1.2949  -21.9121  -45.6178 C.2       10 UNK         0.5000 
     21 O           0.9390  -20.7746  -45.9257 O.2       10 UNK        -0.5000 
     22 CA          2.7866  -22.2608  -45.5520 C.3       10 UNK         0.1400 
     23 CB          3.2849  -22.7650  -46.9180 C.3       10 UNK        -0.1800 
     24 N           3.5667  -21.0977  -45.1361 N.am      10 UNK        -0.5000 
     25 C           4.7703  -21.1673  -44.5518 C.2       9 UNK         0.5000 
     26 O           5.3383  -22.2283  -44.2876 O.2       9 UNK        -0.5000 
     27 CA          5.4631  -19.8435  -44.1911 C.3       9 UNK         0.1400 
     28 CB          6.1391  -19.2245  -45.4256 C.3       9 UNK        -0.1800 
     29 N           4.5278  -18.8833  -43.6092 N.am      9 UNK        -0.5000 
     30 C           4.2870  -18.7577  -42.2963 C.2       8 UNK         0.5000 
     31 O           4.8378  -19.4450  -41.4351 O.2       8 UNK        -0.5000 
     32 CA          3.2788  -17.6764  -41.8554 C.3       8 UNK         0.1400 
     33 CB          4.0194  -16.4277  -41.3529 C.3       8 UNK        -0.1800 
     34 N           2.3531  -17.2849  -42.9177 N.am      8 UNK        -0.5000 
     35 C           1.3316  -18.0426  -43.3392 C.2       7 UNK         0.5000 
     36 O           1.0129  -19.1101  -42.8146 O.2       7 UNK        -0.5000 
     37 CA          0.5468  -17.5402  -44.5650 C.3       7 UNK         0.1400 
     38 CB         -0.6806  -16.7319  -44.1218 C.3       7 UNK        -0.1800 
     39 N           1.3362  -16.7558  -45.5207 N.am      7 UNK        -0.5000 
     40 C           2.4188  -17.2120  -46.1718 C.2       6 UNK         0.5000 
     41 O           2.9076  -18.3238  -45.9791 O.2       6 UNK        -0.5000 
     42 CA          3.0892  -16.2789  -47.1906 C.3       6 UNK         0.1400 
     43 CB          2.5183  -16.5270  -48.5937 C.3       6 UNK        -0.1800 
     44 N           2.9025  -14.8777  -46.8168 N.am      6 UNK        -0.5000 
     45 C           3.8806  -14.0704  -46.3913 C.2       5 UNK         0.5000 
     46 O           5.0762  -14.3670  -46.4072 O.2       5 UNK        -0.5000 
     47 CA          3.4532  -12.7060  -45.8170 C.3       5 UNK         0.1400 
     48 CB          3.3083  -11.6690  -46.9407 C.3       5 UNK        -0.1800 
     49 N           2.2238  -12.7236  -45.0170 N.am      5 UNK        -0.5000 
     50 C           1.9802  -13.5133  -43.9575 C.2       4 UNK         0.5000 
     51 O           2.7257  -14.4268  -43.6005 O.2       4 UNK        -0.5000 
     52 CA          0.6839  -13.2378  -43.1626 C.3       4 UNK         0.1400 
     53 CB          0.7315  -13.7901  -41.7224 C.3       4 UNK        -0.1800 
     54 N           0.2821  -11.8308  -43.1643 N.am      4 UNK        -0.5000 
     55 C           0.9950  -10.7692  -42.7548 C.2       3 UNK         0.5000 
     56 O           2.0746  -10.8560  -42.1680 O.2       3 UNK        -0.5000 
     57 CA          0.4122   -9.3722  -43.0783 C.3       3 UNK         0.1400 
     58 CB          1.5129   -8.3641  -43.4696 C.3       3 UNK        -0.1800 
     59 N          -0.6526   -9.3836  -44.0940 N.am      3 UNK        -0.5000 
     60 C          -0.5646   -9.8292  -45.3560 C.2       2 UNK         0.5000 
     61 O           0.4636  -10.2826  -45.8640 O.2       2 UNK        -0.5000 
     62 CA         -1.8713   -9.8318  -46.1650 C.3       2 UNK         0.1400 
     63 CB         -1.7927   -8.8361  -47.3320 C.3       2 UNK        -0.1800 
     64 N          -2.1691  -11.1646  -46.6884 N.am      2 UNK        -0.5000 
     65 C          -2.3927  -12.2669  -45.9543 C.2       1 UNK         0.5000 
     66 O          -2.3797  -12.2838  -44.7222 O.2       1 UNK        -0.5000 
     67 C          -1.5242  -24.2989  -45.5394 C.2       11 UNK         0.5000 
     68 O          -0.8129  -25.2346  -45.1599 O.2       11 UNK        -0.5000 
     69 N          -2.7611  -24.4453  -46.0322 N.am      12 UNK        -0.5000 
     70 CA         -3.5489  -25.6791  -46.1150 C.3       12 UNK         0.1400 
     71 CB         -3.8115  -26.2606  -44.7092 C.3       12 UNK        -0.1800 
     72 C          -3.0205  -26.7353  -47.1100 C.2       12 UNK         0.5000 
     73 O          -3.3639  -27.9123  -46.9762 O.2       12 UNK        -0.5000 
     74 N          -2.2476  -26.3183  -48.1247 N.am      13 UNK        -0.5000 
     75 CA         -1.8594  -27.1591  -49.2620 C.3       13 UNK         0.1400 
     76 CB         -0.6385  -26.5441  -49.9650 C.3       13 UNK        -0.1800 
     77 C          -3.0476  -27.3587  -50.2280 C.2       13 UNK         0.5000 
     78 O          -3.1110  -26.7146  -51.2775 O.2       13 UNK        -0.5000 
     79 N          -3.9915  -28.2220  -49.8265 N.am      14 UNK        -0.5000 
     80 CA         -5.2575  -28.5341  -50.4966 C.3       14 UNK         0.1400 
     81 CB         -5.0063  -29.2861  -51.8236 C.3       14 UNK        -0.1800 
     82 C          -6.1322  -27.2713  -50.6371 C.2       14 UNK         0.5000 
     83 O          -6.6369  -26.7795  -49.6266 O.2       14 UNK        -0.5000 
     84 N          -6.2734  -26.7551  -51.8659 N.am      15 UNK        -0.5000 
     85 CA         -6.9565  -25.4970  -52.1790 C.3       15 UNK         0.1400 
     86 CB         -7.1122  -25.3835  -53.7023 C.3       15 UNK        -0.1800 
     87 C          -6.2391  -24.2541  -51.6143 C.2       15 UNK         0.5000 
     88 O          -6.8986  -23.2488  -51.3462 O.2       15 UNK        -0.5000 
     89 N          -4.9143  -24.3542  -51.4253 N.am      16 UNK        -0.5000 
     90 CA         -4.0332  -23.3798  -50.7843 C.3       16 UNK         0.1400 
     91 CB         -4.2633  -23.4096  -49.2557 C.3       16 UNK        -0.1800 
     92 C          -4.1503  -21.9729  -51.4094 C.2       16 UNK         0.5000 
     93 O          -3.7859  -21.7853  -52.5724 O.2       16 UNK        -0.5000 
     94 N          -4.6720  -21.0139  -50.6346 N.am      17 UNK        -0.5000 
     95 CA         -4.8781  -19.6197  -51.0205 C.3       17 UNK         0.1400 
     96 CB         -5.3718  -18.8375  -49.7955 C.3       17 UNK        -0.1800 
     97 C          -5.8441  -19.4350  -52.2061 C.2       17 UNK         0.5000 
     98 O          -5.6829  -18.4748  -52.9586 O.2       17 UNK        -0.5000 
     99 N          -6.7933  -20.3661  -52.3919 N.am      18 UNK        -0.5000 
    100 CA        -7.7284  -20.3655  -53.5219 C.3       18 UNK         0.1400 
    101 CB        -8.8981  -21.3164  -53.2271 C.3       18 UNK        -0.1800 
    102 C         -7.0527  -20.7293  -54.8591 C.2       18 UNK         0.5000 
    103 O         -7.5347  -20.3112  -55.9120 O.2       18 UNK        -0.5000 
    104 N         -5.9392  -21.4721  -54.7933 N.am      19 UNK        -0.5000 
    105 CA        -5.0749  -21.7896  -55.9318 C.3       19 UNK         0.1400 
    106 CB        -4.5474  -23.2236  -55.7604 C.3       19 UNK        -0.1800 
    107 C         -3.9050  -20.7940  -56.0717 C.2       19 UNK         0.5000 
    108 O         -3.1354  -20.9072  -57.0264 O.2       19 UNK        -0.5000 
    109 N         -3.7771  -19.8602  -55.1145 N.am      20 UNK        -0.5000 
    110 CA        -2.6801  -18.9026  -54.9355 C.3       20 UNK         0.1400 
    111 CB        -2.6609  -17.8670  -56.0788 C.3       20 UNK        -0.1800 
    112 C         -1.3161  -19.5945  -54.7165 C.2       20 UNK         0.5000 
    113 O         -0.2841  -19.0899  -55.1627 O.2       20 UNK        -0.5000 
    114 N         -1.3412  -20.7460  -54.0362 N.am      21 UNK        -0.5000 
    115 CA        -0.1908  -21.5995  -53.7693 C.3       21 UNK         0.1400 
    116 CB        -0.0400  -22.6276  -54.9065 C.3       21 UNK        -0.1800 
    117 C         -0.4171  -22.2423  -52.3974 C.2       21 UNK         0.5000 
    118 O         -0.8021  -23.4085  -52.3174 O.2       21 UNK        -0.5000 
    119 N         -0.2553  -21.4263  -51.3483 N.am      22 UNK        -0.5000 
    120 CA        -0.6241  -21.7347  -49.9564 C.3       22 UNK         0.1400 
    121 C          0.0340  -22.9984  -49.3411 C.2       22 UNK         0.5000 
    122 N          1.2422  -23.3719  -49.7418 N.am      22 UNK        -0.7600 
    123 O         -0.5804  -23.6584  -48.5098 O.2       22 UNK        -0.5000 
    124 C124       -0.4321  -20.5209  -49.0185 C.3       23 UNK        -0.0398 
    125 S125       -1.2813  -19.0211  -49.6120 S.3       23 UNK        -0.2404 
    126 C126       -1.0653  -17.9369  -48.1715 C.3       23 UNK        -0.0205 
    127 H127       -0.0426  -12.9637  -49.7498 H         1 UNK         0.0600 
    128 H128        0.1751  -14.7171  -49.7683 H         1 UNK         0.0600 
    129 H129        1.3714  -13.6793  -48.9818 H         1 UNK         0.0600 
    130 H130       -2.1760  -13.3924  -48.7998 H         1 UNK         0.3000 
    131 H131       -2.4014  -14.4079  -46.0932 H         1 UNK         0.0600 
    132 H132       -4.2281  -14.2644  -48.0860 H         1 UNK         0.0800 
    133 H133       -4.5754  -12.7186  -47.4008 H         1 UNK         0.0800 
    134 H134       -5.7657  -15.9844  -47.7222 H         1 UNK         0.0800 
    135 H135       -6.4327  -16.5186  -46.2073 H         1 UNK         0.0800 
    136 H136       -3.2923  -16.3996  -48.2110 H         1 UNK         0.1150 
    137 H137       -1.4679  -19.6068  -46.0345 H         1 UNK         0.1150 
    138 H138       -5.2048  -17.9755  -44.7170 H         1 UNK         0.1150 
    139 H139       -2.4687  -19.5936  -43.4109 H         1 UNK         0.0800 
    140 H140       -4.2047  -19.6335  -43.4155 H         1 UNK         0.0800 
    141 H141       -1.0213  -21.1933  -44.0262 H         1 UNK         0.0800 
    142 H142       -1.5503  -22.6858  -43.3135 H         1 UNK         0.0800 
    143 H143       -1.2742  -22.3272  -46.3497 H         1 UNK         0.0600 
    144 H144        0.7996  -23.8449  -45.1707 H         1 UNK         0.3000 
    145 H145        2.9122  -23.0536  -44.8112 H         1 UNK         0.0600 
    146 H146        4.3354  -23.0529  -46.8798 H         1 UNK         0.0600 
    147 H147        3.1733  -22.0020  -47.6896 H         1 UNK         0.0600 
    148 H148        2.7216  -23.6422  -47.2374 H         1 UNK         0.0600 
    149 H149        3.1442  -20.1937  -45.3371 H         1 UNK         0.3000 
    150 H150        6.2507  -20.0660  -43.4678 H         1 UNK         0.0600 
    151 H151        6.8889  -19.9018  -45.8362 H         1 UNK         0.0600 
    152 H152        6.6463  -18.2935  -45.1719 H         1 UNK         0.0600 
    153 H153        5.4252  -19.0108  -46.2209 H         1 UNK         0.0600 
    154 H154        3.9751  -18.3444  -44.2657 H         1 UNK         0.3000 
    155 H155        2.7004  -18.0841  -41.0236 H         1 UNK         0.0600 
    156 H156        4.6949  -16.6754  -40.5331 H         1 UNK         0.0600 
    157 H157        3.3213  -15.6766  -40.9830 H         1 UNK         0.0600 
    158 H158        4.6151  -15.9696  -42.1436 H         1 UNK         0.0600 
    159 H159        2.5301  -16.3913  -43.3682 H         1 UNK         0.3000 
    160 H160        0.2011  -18.4226  -45.0988 H         1 UNK         0.0600 
    161 H161       -0.4052  -15.9214  -43.4530 H         1 UNK         0.0600 
    162 H162       -1.3824  -17.3641  -43.5782 H         1 UNK         0.0600 
    163 H163       -1.2151  -16.3086  -44.9722 H         1 UNK         0.0600 
    164 H164        0.9743  -15.8406  -45.7588 H         1 UNK         0.3000 
    165 H165        4.1508  -16.5338  -47.2122 H         1 UNK         0.0600 
    166 H166        2.9714  -15.8621  -49.3290 H         1 UNK         0.0600 
    167 H167        2.7115  -17.5511  -48.9157 H         1 UNK         0.0600 
    168 H168        1.4407  -16.3777  -48.6207 H         1 UNK         0.0600 
    169 H169        1.9441  -14.5421  -46.7647 H         1 UNK         0.3000 
    170 H170        4.2546  -12.3742  -45.1542 H         1 UNK         0.0600 
    171 H171        4.1993  -11.6407  -47.5694 H         1 UNK         0.0600 
    172 H172        2.4560  -11.8907  -47.5836 H         1 UNK         0.0600 
    173 H173        3.1670  -10.6673  -46.5343 H         1 UNK         0.0600 
    174 H174        1.5431  -12.0070  -45.2451 H         1 UNK         0.3000 
    175 H175       -0.1090  -13.7548  -43.7013 H         1 UNK         0.0600 
    176 H176        1.5303  -13.3296  -41.1405 H         1 UNK         0.0600 
    177 H177       -0.2092  -13.6122  -41.2015 H         1 UNK         0.0600 
    178 H178        0.9053  -14.8664  -41.7152 H         1 UNK         0.0600 
    179 H179       -0.6000  -11.6489  -43.6293 H         1 UNK         0.3000 
    180 H180       -0.0494   -9.0181  -42.1555 H         1 UNK         0.0600 
    181 H181        1.0901   -7.3840  -43.6901 H         1 UNK         0.0600 
    182 H182        2.0706   -8.6942  -44.3466 H         1 UNK         0.0600 
    183 H183        2.2299   -8.2303  -42.6589 H         1 UNK         0.0600 
    184 H184       -1.5540   -9.0629  -43.7673 H         1 UNK         0.3000 
    185 H185       -2.6979   -9.5359  -45.5156 H         1 UNK         0.0600 
    186 H186       -1.0009   -9.1003  -48.0344 H         1 UNK         0.0600 
    187 H187       -2.7324   -8.7978  -47.8834 H         1 UNK         0.0600 
    188 H188       -1.5873   -7.8276  -46.9706 H         1 UNK         0.0600 
    189 H189       -2.1444  -11.2587  -47.6922 H         1 UNK         0.3000 
    190 H190       -3.2548  -23.6066  -46.3039 H         1 UNK         0.3000 
    191 H191       -4.5174  -25.3746  -46.5143 H         1 UNK         0.0600 
    192 H192       -4.5468  -27.0652  -44.7478 H         1 UNK         0.0600 
    193 H193       -4.2036  -25.4996  -44.0343 H         1 UNK         0.0600 
    194 H194       -2.9048  -26.6704  -44.2636 H         1 UNK         0.0600 
    195 H195       -1.9567  -25.3480  -48.1617 H         1 UNK         0.3000 
    196 H196       -1.5590  -28.1407  -48.8892 H         1 UNK         0.0600 
    197 H197       -0.8753  -25.5807  -50.4171 H         1 UNK         0.0600 
    198 H198       -0.2810  -27.1959  -50.7627 H         1 UNK         0.0600 
    199 H199        0.1869  -26.3963  -49.2688 H         1 UNK         0.0600 
    200 H200       -3.8849  -28.6100  -48.8954 H         1 UNK         0.3000 
    201 H201       -5.8010  -29.2100  -49.8348 H         1 UNK         0.0600 
    202 H202       -4.4216  -28.7009  -52.5338 H         1 UNK         0.0600 
    203 H203       -5.9471  -29.5530  -52.3068 H         1 UNK         0.0600 
    204 H204       -4.4654  -30.2152  -51.6439 H         1 UNK         0.0600 
    205 H205       -5.8061  -27.2178  -52.6320 H         1 UNK         0.3000 
    206 H206       -7.9525  -25.5284  -51.7326 H         1 UNK         0.0600 
    207 H207       -7.7508  -26.1764  -54.0920 H         1 UNK         0.0600 
    208 H208       -7.5649  -24.4330  -53.9870 H         1 UNK         0.0600 
    209 H209       -6.1479  -25.4541  -54.2051 H         1 UNK         0.0600 
    210 H210       -4.4615  -25.2270  -51.6772 H         1 UNK         0.3000 
    211 H211       -3.0167  -23.7246  -50.9715 H         1 UNK         0.0600 
    212 H212       -5.2733  -23.1017  -48.9827 H         1 UNK         0.0600 
    213 H213       -3.5590  -22.7645  -48.7293 H         1 UNK         0.0600 
    214 H214       -4.1244  -24.4184  -48.8720 H         1 UNK         0.0600 
    215 H215       -4.9748  -21.2663  -49.7056 H         1 UNK         0.3000 
    216 H216       -3.9088  -19.2154  -51.3192 H         1 UNK         0.0600 
    217 H217       -4.6869  -18.9545  -48.9563 H         1 UNK         0.0600 
    218 H218       -6.3570  -19.1747  -49.4712 H         1 UNK         0.0600 
    219 H219       -5.4419  -17.7711  -50.0132 H         1 UNK         0.0600 
    220 H220       -6.8393  -21.1623  -51.7643 H         1 UNK         0.3000 
    221 H221       -8.1353  -19.3571  -53.6236 H         1 UNK         0.0600 
    222 H222       -9.6538  -21.2562  -54.0112 H         1 UNK         0.0600 
    223 H223       -8.5725  -22.3544  -53.1699 H         1 UNK         0.0600 
    224 H224       -9.3859  -21.0645  -52.2854 H         1 UNK         0.0600 
    225 H225       -5.5911  -21.7492  -53.8838 H         1 UNK         0.3000 
    226 H226       -5.6464  -21.7490  -56.8613 H         1 UNK         0.0600 
    227 H227       -5.3660  -23.9413  -55.7829 H         1 UNK         0.0600 
    228 H228       -3.8649  -23.4937  -56.5672 H         1 UNK         0.0600 
    229 H229       -4.0095  -23.3498  -54.8199 H         1 UNK         0.0600 
    230 H230       -4.4816  -19.8420  -54.3903 H         1 UNK         0.3000 
    231 H231       -2.8961  -18.3657  -54.0107 H         1 UNK         0.0600 
    232 H232       -1.9423  -17.0726  -55.8742 H         1 UNK         0.0600 
    233 H233       -3.6367  -17.3966  -56.1997 H         1 UNK         0.0600 
    234 H234       -2.3850  -18.3187  -57.0319 H         1 UNK         0.0600 
    235 H235       -2.2262  -21.0820  -53.6651 H         1 UNK         0.3000 
    236 H236        0.7226  -21.0036  -53.7117 H         1 UNK         0.0600 
    237 H237       -0.9439  -23.2256  -55.0311 H         1 UNK         0.0600 
    238 H238        0.1652  -22.1347  -55.8569 H         1 UNK         0.0600 
    239 H239        0.7857  -23.3117  -54.7078 H         1 UNK         0.0600 
    240 H240        0.0314  -20.4732  -51.5180 H         1 UNK         0.3000 
    241 H241       -1.6913  -21.9417  -49.9739 H         1 UNK         0.0600 
    242 H242        1.6498  -24.2086  -49.3596 H         1 UNK         0.3800 
    243 H243        1.7343  -22.8523  -50.4500 H         1 UNK         0.3800 
    244 H244        0.6288  -20.2952  -48.8938 H         1 UNK         0.0800 
    245 H245       -0.8163  -20.7518  -48.0251 H         1 UNK         0.0800 
    246 H246       -0.9345  -16.9141  -48.5254 H         1 UNK         0.0800 
    247 H247       -0.1466  -18.1934  -47.6424 H         1 UNK         0.0800 
@<TRIPOS>BOND
     1    1    2 1    
     2    1  127 1    
     3    1  128 1    
     4    1  129 1    
     5    2    3 2    
     6    2    4 am   BACKBONE|DICT|INTERRES
     7    4    5 1    
     8    4  130 1    
     9    5    6 1    
    10    5   65 1    
    11    5  131 1    
    12    6    7 1    
    13    6  132 1    
    14    6  133 1    
    15    7    8 1    
    16    8    9 1    
    17    8  134 1    
    18    8  135 1    
    19    9   10 ar   
    20    9   14 ar   
    21   10   11 ar   
    22   10  136 1    
    23   11   12 ar   
    24   11  126 1    
    25   12   13 ar   
    26   12  137 1    
    27   13   14 ar   
    28   13   15 1    
    29   14  138 1    
    30   15   16 1    
    31   15  139 1    
    32   15  140 1    
    33   16   17 1    
    34   17   18 1    
    35   17  141 1    
    36   17  142 1    
    37   18   19 1    
    38   18   67 1    
    39   18  143 1    
    40   19   20 am   BACKBONE|DICT|INTERRES
    41   19  144 1    
    42   20   21 2    
    43   20   22 1    
    44   22   23 1    
    45   22   24 1    
    46   22  145 1    
    47   23  146 1    
    48   23  147 1    
    49   23  148 1    
    50   24   25 am   BACKBONE|DICT|INTERRES
    51   24  149 1    
    52   25   26 2    
    53   25   27 1    
    54   27   28 1    
    55   27   29 1    
    56   27  150 1    
    57   28  151 1    
    58   28  152 1    
    59   28  153 1    
    60   29   30 am   BACKBONE|DICT|INTERRES
    61   29  154 1    
    62   30   31 2    
    63   30   32 1    
    64   32   33 1    
    65   32   34 1    
    66   32  155 1    
    67   33  156 1    
    68   33  157 1    
    69   33  158 1    
    70   34   35 am   BACKBONE|DICT|INTERRES
    71   34  159 1    
    72   35   36 2    
    73   35   37 1    
    74   37   38 1    
    75   37   39 1    
    76   37  160 1    
    77   38  161 1    
    78   38  162 1    
    79   38  163 1    
    80   39   40 am   BACKBONE|DICT|INTERRES
    81   39  164 1    
    82   40   41 2    
    83   40   42 1    
    84   42   43 1    
    85   42   44 1    
    86   42  165 1    
    87   43  166 1    
    88   43  167 1    
    89   43  168 1    
    90   44   45 am   BACKBONE|DICT|INTERRES
    91   44  169 1    
    92   45   46 2    
    93   45   47 1    
    94   47   48 1    
    95   47   49 1    
    96   47  170 1    
    97   48  171 1    
    98   48  172 1    
    99   48  173 1    
   100   49   50 am   BACKBONE|DICT|INTERRES
   101   49  174 1    
   102   50   51 2    
   103   50   52 1    
   104   52   53 1    
   105   52   54 1    
   106   52  175 1    
   107   53  176 1    
   108   53  177 1    
   109   53  178 1    
   110   54   55 am   BACKBONE|DICT|INTERRES
   111   54  179 1    
   112   55   56 2    
   113   55   57 1    
   114   57   58 1    
   115   57   59 1    
   116   57  180 1    
   117   58  181 1    
   118   58  182 1    
   119   58  183 1    
   120   59   60 am   BACKBONE|DICT|INTERRES
   121   59  184 1    
   122   60   61 2    
   123   60   62 1    
   124   62   63 1    
   125   62   64 1    
   126   62  185 1    
   127   63  186 1    
   128   63  187 1    
   129   63  188 1    
   130   64   65 am   BACKBONE|DICT|INTERRES
   131   64  189 1    
   132   65   66 2    
   133   67   68 2    
   134   67   69 am   BACKBONE|DICT|INTERRES
   135   69   70 1    
   136   69  190 1    
   137   70   71 1    
   138   70   72 1    
   139   70  191 1    
   140   71  192 1    
   141   71  193 1    
   142   71  194 1    
   143   72   73 2    
   144   72   74 am   BACKBONE|DICT|INTERRES
   145   74   75 1    
   146   74  195 1    
   147   75   76 1    
   148   75   77 1    
   149   75  196 1    
   150   76  197 1    
   151   76  198 1    
   152   76  199 1    
   153   77   78 2    
   154   77   79 am   BACKBONE|DICT|INTERRES
   155   79   80 1    
   156   79  200 1    
   157   80   81 1    
   158   80   82 1    
   159   80  201 1    
   160   81  202 1    
   161   81  203 1    
   162   81  204 1    
   163   82   83 2    
   164   82   84 am   BACKBONE|DICT|INTERRES
   165   84   85 1    
   166   84  205 1    
   167   85   86 1    
   168   85   87 1    
   169   85  206 1    
   170   86  207 1    
   171   86  208 1    
   172   86  209 1    
   173   87   88 2    
   174   87   89 am   BACKBONE|DICT|INTERRES
   175   89   90 1    
   176   89  210 1    
   177   90   91 1    
   178   90   92 1    
   179   90  211 1    
   180   91  212 1    
   181   91  213 1    
   182   91  214 1    
   183   92   93 2    
   184   92   94 am   BACKBONE|DICT|INTERRES
   185   94   95 1    
   186   94  215 1    
   187   95   96 1    
   188   95   97 1    
   189   95  216 1    
   190   96  217 1    
   191   96  218 1    
   192   96  219 1    
   193   97   98 2    
   194   97   99 am   BACKBONE|DICT|INTERRES
   195   99  100 1    
   196   99  220 1    
   197  100  101 1    
   198  100  102 1    
   199  100  221 1    
   200  101  222 1    
   201  101  223 1    
   202  101  224 1    
   203  102  103 2    
   204  102  104 am   BACKBONE|DICT|INTERRES
   205  104  105 1    
   206  104  225 1    
   207  105  106 1    
   208  105  107 1    
   209  105  226 1    
   210  106  227 1    
   211  106  228 1    
   212  106  229 1    
   213  107  108 2    
   214  107  109 am   BACKBONE|DICT|INTERRES
   215  109  110 1    
   216  109  230 1    
   217  110  111 1    
   218  110  112 1    
   219  110  231 1    
   220  111  232 1    
   221  111  233 1    
   222  111  234 1    
   223  112  113 2    
   224  112  114 am   BACKBONE|DICT|INTERRES
   225  114  115 1    
   226  114  235 1    
   227  115  116 1    
   228  115  117 1    
   229  115  236 1    
   230  116  237 1    
   231  116  238 1    
   232  116  239 1    
   233  117  118 2    
   234  117  119 am   BACKBONE|DICT|INTERRES
   235  119  120 1    
   236  119  240 1    
   237  120  121 1    
   238  120  124 1    
   239  120  241 1    
   240  121  122 am   BACKBONE|DICT|INTERRES
   241  121  123 2    
   242  122  242 1    
   243  122  243 1    
   244  124  125 1    
   245  124  244 1    
   246  124  245 1    
   247  125  126 1    
   248  126  246 1    
   249  126  247 1    
@<TRIPOS>SUBSTRUCTURE
     1 UNK         1 GROUP             0       ****    0 ROOT    
