@<TRIPOS>MOLECULE
3R540
247   249    1
SMALL
USER_CHARGES


@<TRIPOS>ATOM
      1 CA          3.8401  -18.0859  -44.9281 C.3       0 UNK        -0.1800 
      2 C           4.4085  -17.7198  -46.2958 C.2       0 UNK         0.5000 
      3 O           5.1325  -18.5195  -46.8830 O.2       0 UNK        -0.5000 
      4 N           4.1303  -16.5286  -46.8407 N.am      1 UNK        -0.5000 
      5 CA          3.3132  -15.4466  -46.2746 C.3       1 UNK         0.1400 
      6 C6          2.3345  -14.8699  -47.3274 C.3       23 UNK        -0.0398 
      7 S7          3.1099  -13.9818  -48.7295 S.3       23 UNK        -0.2404 
      8 C8          3.4363  -15.2949  -49.9565 C.3       23 UNK        -0.0205 
      9 C9          2.2218  -16.1556  -50.2787 C.ar      23 UNK        -0.0193 
     10 C10         1.0263  -15.5700  -50.7020 C.ar      23 UNK        -0.1150 
     11 C11        -0.0832  -16.3611  -51.0077 C.ar      23 UNK        -0.0193 
     12 C12         0.0073  -17.7521  -50.8868 C.ar      23 UNK        -0.1150 
     13 C13         1.2029  -18.3551  -50.4795 C.ar      23 UNK        -0.0193 
     14 C14         2.3049  -17.5470  -50.1775 C.ar      23 UNK        -0.1150 
     15 C15         1.3097  -19.8784  -50.4269 C.3       23 UNK        -0.0205 
     16 S16         2.1871  -20.5139  -48.9558 S.3       23 UNK        -0.2404 
     17 C17         0.9956  -20.1162  -47.6361 C.3       23 UNK        -0.0398 
     18 CA          0.2621  -21.3495  -47.0550 C.3       11 UNK         0.1400 
     19 N          -0.4949  -20.9857  -45.8561 N.am      11 UNK        -0.5000 
     20 C          -1.1765  -21.8258  -45.0656 C.2       10 UNK         0.5000 
     21 O          -1.1915  -23.0464  -45.2099 O.2       10 UNK        -0.5000 
     22 CA         -2.0400  -21.1818  -43.9666 C.3       10 UNK         0.1400 
     23 CB         -1.1915  -20.8060  -42.7423 C.3       10 UNK        -0.1800 
     24 N          -2.7555  -20.0035  -44.4608 N.am      10 UNK        -0.5000 
     25 C          -3.7290  -20.0465  -45.3826 C.2       9 UNK         0.5000 
     26 O          -4.1702  -21.0916  -45.8594 O.2       9 UNK        -0.5000 
     27 CA         -4.2643  -18.6957  -45.8900 C.3       9 UNK         0.1400 
     28 CB         -5.3597  -18.1577  -44.9583 C.3       9 UNK        -0.1800 
     29 N          -3.2004  -17.6999  -46.0271 N.am      9 UNK        -0.5000 
     30 C          -2.2530  -17.7415  -46.9768 C.2       8 UNK         0.5000 
     31 O          -2.2106  -18.5996  -47.8574 O.2       8 UNK        -0.5000 
     32 CA         -1.1349  -16.6824  -46.8978 C.3       8 UNK         0.1400 
     33 CB         -1.5559  -15.4070  -47.6392 C.3       8 UNK        -0.1800 
     34 N          -0.7698  -16.3496  -45.5186 N.am      8 UNK        -0.5000 
     35 C          -0.2715  -17.2306  -44.6375 C.2       7 UNK         0.5000 
     36 O           0.0622  -18.3713  -44.9503 O.2       7 UNK        -0.5000 
     37 CA         -0.1853  -16.8126  -43.1570 C.3       7 UNK         0.1400 
     38 CB          1.2727  -16.7192  -42.6813 C.3       7 UNK        -0.1800 
     39 N          -0.8922  -15.5635  -42.8675 N.am      7 UNK        -0.5000 
     40 C          -2.2291  -15.4487  -42.8208 C.2       6 UNK         0.5000 
     41 O          -2.9915  -16.3917  -43.0355 O.2       6 UNK        -0.5000 
     42 CA         -2.8195  -14.0558  -42.5219 C.3       6 UNK         0.1400 
     43 CB         -3.1846  -13.9404  -41.0345 C.3       6 UNK        -0.1800 
     44 N          -1.9259  -12.9525  -42.8770 N.am      6 UNK        -0.5000 
     45 C          -1.5603  -12.6276  -44.1252 C.2       5 UNK         0.5000 
     46 O          -1.9853  -13.1972  -45.1297 O.2       5 UNK        -0.5000 
     47 CA         -0.4942  -11.5211  -44.2660 C.3       5 UNK         0.1400 
     48 CB         -1.1614  -10.1467  -44.4236 C.3       5 UNK        -0.1800 
     49 N           0.4570  -11.4738  -43.1474 N.am      5 UNK        -0.5000 
     50 C           1.2563  -12.4891  -42.7952 C.2       4 UNK         0.5000 
     51 O           1.2544  -13.5831  -43.3635 O.2       4 UNK        -0.5000 
     52 CA          2.1448  -12.2865  -41.5628 C.3       4 UNK         0.1400 
     53 CB          1.3298  -12.5879  -40.2878 C.3       4 UNK        -0.1800 
     54 N           3.2797  -13.1957  -41.6869 N.am      4 UNK        -0.5000 
     55 C           4.3310  -13.2975  -40.8667 C.2       3 UNK         0.5000 
     56 O           4.5000  -12.5962  -39.8685 O.2       3 UNK        -0.5000 
     57 CA          5.3821  -14.3621  -41.2347 C.3       3 UNK         0.1400 
     58 CB          4.9314  -15.7525  -40.7589 C.3       3 UNK        -0.1800 
     59 N           5.6657  -14.4163  -42.6701 N.am      3 UNK        -0.5000 
     60 C           6.2802  -13.4490  -43.3665 C.2       2 UNK         0.5000 
     61 O           6.7001  -12.4059  -42.8639 O.2       2 UNK        -0.5000 
     62 CA          6.4687  -13.6858  -44.8788 C.3       2 UNK         0.1400 
     63 CB          7.8832  -14.2120  -45.1669 C.3       2 UNK        -0.1800 
     64 N           5.4927  -14.6093  -45.4647 N.am      2 UNK        -0.5000 
     65 C           4.1815  -14.3585  -45.5981 C.2       1 UNK         0.5000 
     66 O           3.6590  -13.3160  -45.2073 O.2       1 UNK        -0.5000 
     67 C          -0.6358  -22.0471  -48.0999 C.2       11 UNK         0.5000 
     68 O          -0.2844  -23.1250  -48.5786 O.2       11 UNK        -0.5000 
     69 N          -1.7991  -21.4482  -48.3925 N.am      12 UNK        -0.5000 
     70 CA         -2.8224  -21.9932  -49.2850 C.3       12 UNK         0.1400 
     71 CB         -3.9583  -20.9702  -49.4190 C.3       12 UNK        -0.1800 
     72 C          -3.3594  -23.3594  -48.8193 C.2       12 UNK         0.5000 
     73 O          -3.4362  -24.2899  -49.6229 O.2       12 UNK        -0.5000 
     74 N          -3.6813  -23.4685  -47.5228 N.am      13 UNK        -0.5000 
     75 CA         -4.1401  -24.7024  -46.8835 C.3       13 UNK         0.1400 
     76 CB         -4.6013  -24.3978  -45.4505 C.3       13 UNK        -0.1800 
     77 C          -3.0793  -25.8193  -46.8914 C.2       13 UNK         0.5000 
     78 O          -3.4242  -26.9746  -47.1407 O.2       13 UNK        -0.5000 
     79 N          -1.8129  -25.4559  -46.6434 N.am      14 UNK        -0.5000 
     80 CA         -0.6620  -26.3587  -46.6912 C.3       14 UNK         0.1400 
     81 CB          0.5647  -25.6667  -46.0775 C.3       14 UNK        -0.1800 
     82 C          -0.3528  -26.8530  -48.1157 C.2       14 UNK         0.5000 
     83 O          -0.0233  -28.0272  -48.2887 O.2       14 UNK        -0.5000 
     84 N          -0.4804  -25.9597  -49.1078 N.am      15 UNK        -0.5000 
     85 CA         -0.3440  -26.2731  -50.5306 C.3       15 UNK         0.1400 
     86 CB         -0.3043  -24.9700  -51.3435 C.3       15 UNK        -0.1800 
     87 C          -1.4662  -27.1949  -51.0404 C.2       15 UNK         0.5000 
     88 O          -1.1984  -28.0778  -51.8562 O.2       15 UNK        -0.5000 
     89 N          -2.6947  -26.9689  -50.5498 N.am      16 UNK        -0.5000 
     90 CA         -3.9415  -27.7174  -50.7646 C.3       16 UNK         0.1400 
     91 CB         -3.8063  -29.1803  -50.3042 C.3       16 UNK        -0.1800 
     92 C          -4.5030  -27.6291  -52.1966 C.2       16 UNK         0.5000 
     93 O          -5.7020  -27.4109  -52.3660 O.2       16 UNK        -0.5000 
     94 N          -3.6329  -27.7449  -53.2057 N.am      17 UNK        -0.5000 
     95 CA         -3.9419  -27.5169  -54.6188 C.3       17 UNK         0.1400 
     96 CB         -2.7885  -28.0651  -55.4723 C.3       17 UNK        -0.1800 
     97 C          -4.1895  -26.0282  -54.9380 C.2       17 UNK         0.5000 
     98 O          -4.8482  -25.7209  -55.9316 O.2       17 UNK        -0.5000 
     99 N          -3.6689  -25.1401  -54.0812 N.am      18 UNK        -0.5000 
    100 CA        -3.8030  -23.6877  -54.1577 C.3       18 UNK         0.1400 
    101 CB        -2.3974  -23.0608  -54.2025 C.3       18 UNK        -0.1800 
    102 C         -4.6398  -23.1481  -52.9818 C.2       18 UNK         0.5000 
    103 O         -4.4126  -22.0198  -52.5472 O.2       18 UNK        -0.5000 
    104 N         -5.6049  -23.9427  -52.4898 N.am      19 UNK        -0.5000 
    105 CA        -6.4794  -23.6257  -51.3499 C.3       19 UNK         0.1400 
    106 CB        -7.3524  -24.8451  -51.0200 C.3       19 UNK        -0.1800 
    107 C         -7.3531  -22.3646  -51.5188 C.2       19 UNK         0.5000 
    108 O         -7.8035  -21.8055  -50.5187 O.2       19 UNK        -0.5000 
    109 N         -7.5510  -21.9190  -52.7670 N.am      20 UNK        -0.5000 
    110 CA        -8.1860  -20.6455  -53.1164 C.3       20 UNK         0.1400 
    111 CB        -8.5216  -20.6615  -54.6160 C.3       20 UNK        -0.1800 
    112 C         -7.3275  -19.4076  -52.7687 C.2       20 UNK         0.5000 
    113 O         -7.8575  -18.2951  -52.7656 O.2       20 UNK        -0.5000 
    114 N         -6.0318  -19.6176  -52.4880 N.am      21 UNK        -0.5000 
    115 CA        -5.0120  -18.6172  -52.1753 C.3       21 UNK         0.1400 
    116 CB        -5.3363  -17.8970  -50.8444 C.3       21 UNK        -0.1800 
    117 C         -4.7482  -17.6682  -53.3633 C.2       21 UNK         0.5000 
    118 O         -4.8426  -18.0899  -54.5187 O.2       21 UNK        -0.5000 
    119 N         -4.3920  -16.4173  -53.0590 N.am      22 UNK        -0.5000 
    120 CA        -4.0562  -15.3673  -54.0337 C.3       22 UNK         0.1400 
    121 C         -5.2802  -14.5142  -54.4836 C.2       22 UNK         0.5000 
    122 N         -6.4985  -14.8045  -54.0419 N.am      22 UNK        -0.7600 
    123 O         -5.1267  -13.5764  -55.2614 O.2       22 UNK        -0.5000 
    124 C124       -2.8945  -14.4799  -53.5157 C.3       23 UNK        -0.0398 
    125 S125       -1.3481  -15.4230  -53.2732 S.3       23 UNK        -0.2404 
    126 C126       -1.3710  -15.7035  -51.4760 C.3       23 UNK        -0.0205 
    127 H127        4.0600  -17.3163  -44.1887 H         1 UNK         0.0600 
    128 H128        2.7615  -18.2224  -44.9911 H         1 UNK         0.0600 
    129 H129        4.2731  -19.0207  -44.5714 H         1 UNK         0.0600 
    130 H130        4.5335  -16.3152  -47.7410 H         1 UNK         0.3000 
    131 H131        2.6821  -15.8467  -45.4820 H         1 UNK         0.0600 
    132 H132        1.6479  -14.1741  -46.8416 H         1 UNK         0.0800 
    133 H133        1.6991  -15.6690  -47.7070 H         1 UNK         0.0800 
    134 H134        3.7808  -14.8261  -50.8791 H         1 UNK         0.0800 
    135 H135        4.2654  -15.9103  -49.6071 H         1 UNK         0.0800 
    136 H136        0.9613  -14.4951  -50.7977 H         1 UNK         0.1150 
    137 H137       -0.8489  -18.3652  -51.1315 H         1 UNK         0.1150 
    138 H138        3.2352  -18.0055  -49.8727 H         1 UNK         0.1150 
    139 H139        0.3203  -20.3362  -50.4729 H         1 UNK         0.0800 
    140 H140        1.8428  -20.2131  -51.3174 H         1 UNK         0.0800 
    141 H141        0.2837  -19.3741  -47.9950 H         1 UNK         0.0800 
    142 H142        1.5609  -19.6226  -46.8447 H         1 UNK         0.0800 
    143 H143        1.0170  -22.0730  -46.7405 H         1 UNK         0.0600 
    144 H144       -0.4856  -19.9995  -45.6075 H         1 UNK         0.3000 
    145 H145       -2.7822  -21.9177  -43.6499 H         1 UNK         0.0600 
    146 H146       -1.8039  -20.3599  -41.9585 H         1 UNK         0.0600 
    147 H147       -0.7146  -21.6903  -42.3179 H         1 UNK         0.0600 
    148 H148       -0.3998  -20.1006  -42.9933 H         1 UNK         0.0600 
    149 H149       -2.4454  -19.1032  -44.1280 H         1 UNK         0.3000 
    150 H150       -4.7089  -18.8589  -46.8740 H         1 UNK         0.0600 
    151 H151       -6.1875  -18.8641  -44.8842 H         1 UNK         0.0600 
    152 H152       -5.7670  -17.2173  -45.3296 H         1 UNK         0.0600 
    153 H153       -4.9850  -17.9862  -43.9487 H         1 UNK         0.0600 
    154 H154       -3.1523  -16.9856  -45.3127 H         1 UNK         0.3000 
    155 H155       -0.2534  -17.0919  -47.3944 H         1 UNK         0.0600 
    156 H156       -2.4182  -14.9339  -47.1685 H         1 UNK         0.0600 
    157 H157       -1.8328  -15.6322  -48.6681 H         1 UNK         0.0600 
    158 H158       -0.7470  -14.6774  -47.6704 H         1 UNK         0.0600 
    159 H159       -1.0235  -15.4265  -45.1918 H         1 UNK         0.3000 
    160 H160       -0.6641  -17.6039  -42.5766 H         1 UNK         0.0600 
    161 H161        1.3325  -16.3692  -41.6506 H         1 UNK         0.0600 
    162 H162        1.8630  -16.0451  -43.2987 H         1 UNK         0.0600 
    163 H163        1.7531  -17.6974  -42.7180 H         1 UNK         0.0600 
    164 H164       -0.3138  -14.7364  -42.7708 H         1 UNK         0.3000 
    165 H165       -3.7341  -13.9542  -43.1097 H         1 UNK         0.0600 
    166 H166       -3.6759  -12.9909  -40.8210 H         1 UNK         0.0600 
    167 H167       -3.8719  -14.7340  -40.7380 H         1 UNK         0.0600 
    168 H168       -2.3027  -14.0143  -40.3967 H         1 UNK         0.0600 
    169 H169       -1.5237  -12.4312  -42.1124 H         1 UNK         0.3000 
    170 H170        0.0746  -11.7322  -45.1741 H         1 UNK         0.0600 
    171 H171       -1.8586  -10.1451  -45.2626 H         1 UNK         0.0600 
    172 H172       -1.7213   -9.8659  -43.5307 H         1 UNK         0.0600 
    173 H173       -0.4223   -9.3689  -44.6162 H         1 UNK         0.0600 
    174 H174        0.4973  -10.6099  -42.6256 H         1 UNK         0.3000 
    175 H175        2.5109  -11.2584  -41.5461 H         1 UNK         0.0600 
    176 H176        0.9991  -13.6272  -40.2607 H         1 UNK         0.0600 
    177 H177        1.9071  -12.3980  -39.3835 H         1 UNK         0.0600 
    178 H178        0.4405  -11.9591  -40.2310 H         1 UNK         0.0600 
    179 H179        3.2294  -13.7841  -42.5096 H         1 UNK         0.3000 
    180 H180        6.3089  -14.1085  -40.7156 H         1 UNK         0.0600 
    181 H181        4.0240  -16.0801  -41.2678 H         1 UNK         0.0600 
    182 H182        4.7239  -15.7499  -39.6880 H         1 UNK         0.0600 
    183 H183        5.7046  -16.5002  -40.9368 H         1 UNK         0.0600 
    184 H184        5.3729  -15.2456  -43.1630 H         1 UNK         0.3000 
    185 H185        6.3568  -12.7196  -45.3755 H         1 UNK         0.0600 
    186 H186        8.6409  -13.5346  -44.7705 H         1 UNK         0.0600 
    187 H187        8.0486  -15.1905  -44.7142 H         1 UNK         0.0600 
    188 H188        8.0603  -14.3025  -46.2388 H         1 UNK         0.0600 
    189 H189        5.8530  -15.4804  -45.8265 H         1 UNK         0.3000 
    190 H190       -1.9969  -20.5368  -47.9901 H         1 UNK         0.3000 
    191 H191       -2.3693  -22.1316  -50.2688 H         1 UNK         0.0600 
    192 H192       -4.4287  -20.7548  -48.4610 H         1 UNK         0.0600 
    193 H193       -4.7411  -21.3249  -50.0867 H         1 UNK         0.0600 
    194 H194       -3.5833  -20.0311  -49.8233 H         1 UNK         0.0600 
    195 H195       -3.6280  -22.6434  -46.9323 H         1 UNK         0.3000 
    196 H196       -5.0030  -25.0639  -47.4468 H         1 UNK         0.0600 
    197 H197       -3.7888  -23.9997  -44.8422 H         1 UNK         0.0600 
    198 H198       -4.9705  -25.2984  -44.9585 H         1 UNK         0.0600 
    199 H199       -5.4112  -23.6680  -45.4443 H         1 UNK         0.0600 
    200 H200       -1.6213  -24.4924  -46.3816 H         1 UNK         0.3000 
    201 H201       -0.8966  -27.2332  -46.0808 H         1 UNK         0.0600 
    202 H202        0.8289  -24.7588  -46.6205 H         1 UNK         0.0600 
    203 H203        1.4342  -26.3249  -46.0932 H         1 UNK         0.0600 
    204 H204        0.3828  -25.3930  -45.0381 H         1 UNK         0.0600 
    205 H205       -0.6782  -24.9909  -48.8713 H         1 UNK         0.3000 
    206 H206        0.6053  -26.7933  -50.6736 H         1 UNK         0.0600 
    207 H207        0.5437  -24.3504  -51.0510 H         1 UNK         0.0600 
    208 H208       -0.2054  -25.1747  -52.4103 H         1 UNK         0.0600 
    209 H209       -1.2099  -24.3800  -51.2020 H         1 UNK         0.0600 
    210 H210       -2.8035  -26.1485  -49.9601 H         1 UNK         0.3000 
    211 H211       -4.6756  -27.2396  -50.1137 H         1 UNK         0.0600 
    212 H212       -3.0979  -29.7390  -50.9161 H         1 UNK         0.0600 
    213 H213       -4.7654  -29.6960  -50.3635 H         1 UNK         0.0600 
    214 H214       -3.4709  -29.2345  -49.2681 H         1 UNK         0.0600 
    215 H215       -2.6643  -27.9431  -52.9646 H         1 UNK         0.3000 
    216 H216       -4.8509  -28.0677  -54.8690 H         1 UNK         0.0600 
    217 H217       -2.9914  -27.9336  -56.5359 H         1 UNK         0.0600 
    218 H218       -2.6428  -29.1316  -55.2992 H         1 UNK         0.0600 
    219 H219       -1.8484  -27.5580  -55.2509 H         1 UNK         0.0600 
    220 H220       -3.1697  -25.4980  -53.2802 H         1 UNK         0.3000 
    221 H221       -4.3275  -23.4006  -55.0710 H         1 UNK         0.0600 
    222 H222       -1.8493  -23.2337  -53.2764 H         1 UNK         0.0600 
    223 H223       -1.8085  -23.4710  -55.0229 H         1 UNK         0.0600 
    224 H224       -2.4529  -21.9820  -54.3538 H         1 UNK         0.0600 
    225 H225       -5.7264  -24.8577  -52.9012 H         1 UNK         0.3000 
    226 H226       -5.8375  -23.4396  -50.4889 H         1 UNK         0.0600 
    227 H227       -6.7432  -25.6775  -50.6700 H         1 UNK         0.0600 
    228 H228       -8.0647  -24.6195  -50.2251 H         1 UNK         0.0600 
    229 H229       -7.9216  -25.1808  -51.8875 H         1 UNK         0.0600 
    230 H230       -7.1533  -22.4491  -53.5279 H         1 UNK         0.3000 
    231 H231       -9.1197  -20.5627  -52.5564 H         1 UNK         0.0600 
    232 H232       -9.1796  -21.4942  -54.8654 H         1 UNK         0.0600 
    233 H233       -7.6225  -20.7464  -55.2277 H         1 UNK         0.0600 
    234 H234       -9.0337  -19.7450  -54.9121 H         1 UNK         0.0600 
    235 H235       -5.6740  -20.5659  -52.5537 H         1 UNK         0.3000 
    236 H236       -4.0866  -19.1764  -52.0322 H         1 UNK         0.0600 
    237 H237       -4.4721  -17.3497  -50.4668 H         1 UNK         0.0600 
    238 H238       -6.1604  -17.1909  -50.9512 H         1 UNK         0.0600 
    239 H239       -5.6188  -18.6108  -50.0706 H         1 UNK         0.0600 
    240 H240       -4.3733  -16.1418  -52.0890 H         1 UNK         0.3000 
    241 H241       -3.7016  -15.8470  -54.9480 H         1 UNK         0.0600 
    242 H242       -7.2819  -14.2480  -54.3464 H         1 UNK         0.3800 
    243 H243       -6.6514  -15.5931  -53.4325 H         1 UNK         0.3800 
    244 H244       -2.6702  -13.6886  -54.2330 H         1 UNK         0.0800 
    245 H245       -3.1756  -13.9746  -52.5905 H         1 UNK         0.0800 
    246 H246       -1.5052  -14.7507  -50.9615 H         1 UNK         0.0800 
    247 H247       -2.2253  -16.3261  -51.2100 H         1 UNK         0.0800 
@<TRIPOS>BOND
     1    1    2 1    
     2    1  127 1    
     3    1  128 1    
     4    1  129 1    
     5    2    3 2    
     6    2    4 am   BACKBONE|DICT|INTERRES
     7    4    5 1    
     8    4  130 1    
     9    5    6 1    
    10    5   65 1    
    11    5  131 1    
    12    6    7 1    
    13    6  132 1    
    14    6  133 1    
    15    7    8 1    
    16    8    9 1    
    17    8  134 1    
    18    8  135 1    
    19    9   10 ar   
    20    9   14 ar   
    21   10   11 ar   
    22   10  136 1    
    23   11   12 ar   
    24   11  126 1    
    25   12   13 ar   
    26   12  137 1    
    27   13   14 ar   
    28   13   15 1    
    29   14  138 1    
    30   15   16 1    
    31   15  139 1    
    32   15  140 1    
    33   16   17 1    
    34   17   18 1    
    35   17  141 1    
    36   17  142 1    
    37   18   19 1    
    38   18   67 1    
    39   18  143 1    
    40   19   20 am   BACKBONE|DICT|INTERRES
    41   19  144 1    
    42   20   21 2    
    43   20   22 1    
    44   22   23 1    
    45   22   24 1    
    46   22  145 1    
    47   23  146 1    
    48   23  147 1    
    49   23  148 1    
    50   24   25 am   BACKBONE|DICT|INTERRES
    51   24  149 1    
    52   25   26 2    
    53   25   27 1    
    54   27   28 1    
    55   27   29 1    
    56   27  150 1    
    57   28  151 1    
    58   28  152 1    
    59   28  153 1    
    60   29   30 am   BACKBONE|DICT|INTERRES
    61   29  154 1    
    62   30   31 2    
    63   30   32 1    
    64   32   33 1    
    65   32   34 1    
    66   32  155 1    
    67   33  156 1    
    68   33  157 1    
    69   33  158 1    
    70   34   35 am   BACKBONE|DICT|INTERRES
    71   34  159 1    
    72   35   36 2    
    73   35   37 1    
    74   37   38 1    
    75   37   39 1    
    76   37  160 1    
    77   38  161 1    
    78   38  162 1    
    79   38  163 1    
    80   39   40 am   BACKBONE|DICT|INTERRES
    81   39  164 1    
    82   40   41 2    
    83   40   42 1    
    84   42   43 1    
    85   42   44 1    
    86   42  165 1    
    87   43  166 1    
    88   43  167 1    
    89   43  168 1    
    90   44   45 am   BACKBONE|DICT|INTERRES
    91   44  169 1    
    92   45   46 2    
    93   45   47 1    
    94   47   48 1    
    95   47   49 1    
    96   47  170 1    
    97   48  171 1    
    98   48  172 1    
    99   48  173 1    
   100   49   50 am   BACKBONE|DICT|INTERRES
   101   49  174 1    
   102   50   51 2    
   103   50   52 1    
   104   52   53 1    
   105   52   54 1    
   106   52  175 1    
   107   53  176 1    
   108   53  177 1    
   109   53  178 1    
   110   54   55 am   BACKBONE|DICT|INTERRES
   111   54  179 1    
   112   55   56 2    
   113   55   57 1    
   114   57   58 1    
   115   57   59 1    
   116   57  180 1    
   117   58  181 1    
   118   58  182 1    
   119   58  183 1    
   120   59   60 am   BACKBONE|DICT|INTERRES
   121   59  184 1    
   122   60   61 2    
   123   60   62 1    
   124   62   63 1    
   125   62   64 1    
   126   62  185 1    
   127   63  186 1    
   128   63  187 1    
   129   63  188 1    
   130   64   65 am   BACKBONE|DICT|INTERRES
   131   64  189 1    
   132   65   66 2    
   133   67   68 2    
   134   67   69 am   BACKBONE|DICT|INTERRES
   135   69   70 1    
   136   69  190 1    
   137   70   71 1    
   138   70   72 1    
   139   70  191 1    
   140   71  192 1    
   141   71  193 1    
   142   71  194 1    
   143   72   73 2    
   144   72   74 am   BACKBONE|DICT|INTERRES
   145   74   75 1    
   146   74  195 1    
   147   75   76 1    
   148   75   77 1    
   149   75  196 1    
   150   76  197 1    
   151   76  198 1    
   152   76  199 1    
   153   77   78 2    
   154   77   79 am   BACKBONE|DICT|INTERRES
   155   79   80 1    
   156   79  200 1    
   157   80   81 1    
   158   80   82 1    
   159   80  201 1    
   160   81  202 1    
   161   81  203 1    
   162   81  204 1    
   163   82   83 2    
   164   82   84 am   BACKBONE|DICT|INTERRES
   165   84   85 1    
   166   84  205 1    
   167   85   86 1    
   168   85   87 1    
   169   85  206 1    
   170   86  207 1    
   171   86  208 1    
   172   86  209 1    
   173   87   88 2    
   174   87   89 am   BACKBONE|DICT|INTERRES
   175   89   90 1    
   176   89  210 1    
   177   90   91 1    
   178   90   92 1    
   179   90  211 1    
   180   91  212 1    
   181   91  213 1    
   182   91  214 1    
   183   92   93 2    
   184   92   94 am   BACKBONE|DICT|INTERRES
   185   94   95 1    
   186   94  215 1    
   187   95   96 1    
   188   95   97 1    
   189   95  216 1    
   190   96  217 1    
   191   96  218 1    
   192   96  219 1    
   193   97   98 2    
   194   97   99 am   BACKBONE|DICT|INTERRES
   195   99  100 1    
   196   99  220 1    
   197  100  101 1    
   198  100  102 1    
   199  100  221 1    
   200  101  222 1    
   201  101  223 1    
   202  101  224 1    
   203  102  103 2    
   204  102  104 am   BACKBONE|DICT|INTERRES
   205  104  105 1    
   206  104  225 1    
   207  105  106 1    
   208  105  107 1    
   209  105  226 1    
   210  106  227 1    
   211  106  228 1    
   212  106  229 1    
   213  107  108 2    
   214  107  109 am   BACKBONE|DICT|INTERRES
   215  109  110 1    
   216  109  230 1    
   217  110  111 1    
   218  110  112 1    
   219  110  231 1    
   220  111  232 1    
   221  111  233 1    
   222  111  234 1    
   223  112  113 2    
   224  112  114 am   BACKBONE|DICT|INTERRES
   225  114  115 1    
   226  114  235 1    
   227  115  116 1    
   228  115  117 1    
   229  115  236 1    
   230  116  237 1    
   231  116  238 1    
   232  116  239 1    
   233  117  118 2    
   234  117  119 am   BACKBONE|DICT|INTERRES
   235  119  120 1    
   236  119  240 1    
   237  120  121 1    
   238  120  124 1    
   239  120  241 1    
   240  121  122 am   BACKBONE|DICT|INTERRES
   241  121  123 2    
   242  122  242 1    
   243  122  243 1    
   244  124  125 1    
   245  124  244 1    
   246  124  245 1    
   247  125  126 1    
   248  126  246 1    
   249  126  247 1    
@<TRIPOS>SUBSTRUCTURE
     1 UNK         1 GROUP             0       ****    0 ROOT    
