@<TRIPOS>MOLECULE
3R540
247   249    1
SMALL
USER_CHARGES


@<TRIPOS>ATOM
      1 CA         -3.3780  -16.3450  -43.4663 C.3       0 UNK        -0.1800 
      2 C          -3.6626  -15.1566  -44.3723 C.2       0 UNK         0.5000 
      3 O          -4.6491  -14.4515  -44.1614 O.2       0 UNK        -0.5000 
      4 N          -2.7951  -14.9205  -45.3673 N.am      1 UNK        -0.5000 
      5 CA         -2.8477  -13.7649  -46.2787 C.3       1 UNK         0.1400 
      6 C6         -1.8598  -13.9098  -47.4622 C.3       23 UNK        -0.0398 
      7 S7         -2.2058  -15.3670  -48.5059 S.3       23 UNK        -0.2404 
      8 C8         -0.6117  -15.5241  -49.3683 C.3       23 UNK        -0.0205 
      9 C9         -0.6641  -16.5656  -50.4763 C.ar      23 UNK        -0.0193 
     10 C10        -1.2283  -16.2406  -51.7127 C.ar      23 UNK        -0.1150 
     11 C11        -1.2481  -17.1765  -52.7491 C.ar      23 UNK        -0.0193 
     12 C12        -0.6903  -18.4395  -52.5432 C.ar      23 UNK        -0.1150 
     13 C13        -0.1363  -18.7933  -51.3098 C.ar      23 UNK        -0.0193 
     14 C14        -0.1284  -17.8426  -50.2789 C.ar      23 UNK        -0.1150 
     15 C15         0.4120  -20.2144  -51.1577 C.3       23 UNK        -0.0205 
     16 S16         1.1020  -20.6481  -49.5251 S.3       23 UNK        -0.2404 
     17 C17         0.9150  -22.4723  -49.5173 C.3       23 UNK        -0.0398 
     18 CA         -0.2218  -22.9847  -48.5927 C.3       11 UNK         0.1400 
     19 N          -0.0704  -22.4733  -47.2253 N.am      11 UNK        -0.5000 
     20 C          -0.8918  -22.6905  -46.1887 C.2       10 UNK         0.5000 
     21 O          -1.8531  -23.4568  -46.2264 O.2       10 UNK        -0.5000 
     22 CA         -0.6548  -21.8555  -44.9140 C.3       10 UNK         0.1400 
     23 CB          0.1694  -22.6556  -43.8957 C.3       10 UNK        -0.1800 
     24 N           0.0056  -20.5681  -45.1435 N.am      10 UNK        -0.5000 
     25 C          -0.3448  -19.6189  -46.0233 C.2       9 UNK         0.5000 
     26 O          -1.3468  -19.6913  -46.7380 O.2       9 UNK        -0.5000 
     27 CA          0.5935  -18.4039  -46.1614 C.3       9 UNK         0.1400 
     28 CB         -0.1373  -17.1074  -45.7888 C.3       9 UNK        -0.1800 
     29 N           1.8305  -18.4932  -45.3830 N.am      9 UNK        -0.5000 
     30 C           2.8570  -19.3227  -45.6186 C.2       8 UNK         0.5000 
     31 O           2.8682  -20.1622  -46.5178 O.2       8 UNK        -0.5000 
     32 CA          4.0530  -19.2176  -44.6591 C.3       8 UNK         0.1400 
     33 CB          4.9848  -18.0709  -45.0814 C.3       8 UNK        -0.1800 
     34 N           3.6071  -18.9947  -43.2836 N.am      8 UNK        -0.5000 
     35 C           3.3343  -19.9668  -42.4035 C.2       7 UNK         0.5000 
     36 O           3.4698  -21.1662  -42.6466 O.2       7 UNK        -0.5000 
     37 CA          2.8188  -19.5302  -41.0172 C.3       7 UNK         0.1400 
     38 CB          3.9933  -19.3112  -40.0517 C.3       7 UNK        -0.1800 
     39 N           2.0010  -18.3162  -41.0580 N.am      7 UNK        -0.5000 
     40 C           0.7753  -18.2477  -41.5942 C.2       6 UNK         0.5000 
     41 O           0.1905  -19.2125  -42.0865 O.2       6 UNK        -0.5000 
     42 CA          0.0951  -16.8644  -41.6129 C.3       6 UNK         0.1400 
     43 CB         -0.7370  -16.6532  -40.3399 C.3       6 UNK        -0.1800 
     44 N           0.9845  -15.7118  -41.7934 N.am      6 UNK        -0.5000 
     45 C           1.9032  -15.5477  -42.7562 C.2       5 UNK         0.5000 
     46 O           2.2414  -16.4382  -43.5334 O.2       5 UNK        -0.5000 
     47 CA          2.5410  -14.1573  -42.9111 C.3       5 UNK         0.1400 
     48 CB          2.0926  -13.5256  -44.2391 C.3       5 UNK        -0.1800 
     49 N           2.1991  -13.2465  -41.8179 N.am      5 UNK        -0.5000 
     50 C           2.9323  -13.0682  -40.7109 C.2       4 UNK         0.5000 
     51 O           3.9695  -13.6876  -40.4728 O.2       4 UNK        -0.5000 
     52 CA          2.4345  -12.0124  -39.7034 C.3       4 UNK         0.1400 
     53 CB          3.2020  -10.6944  -39.8907 C.3       4 UNK        -0.1800 
     54 N           0.9999  -11.7417  -39.8178 N.am      4 UNK        -0.5000 
     55 C           0.0383  -12.5378  -39.3322 C.2       3 UNK         0.5000 
     56 O           0.2589  -13.5752  -38.7072 O.2       3 UNK        -0.5000 
     57 CA         -1.4149  -12.1221  -39.6348 C.3       3 UNK         0.1400 
     58 CB         -1.9255  -11.1324  -38.5767 C.3       3 UNK        -0.1800 
     59 N          -1.5990  -11.5431  -40.9717 N.am      3 UNK        -0.5000 
     60 C          -1.3575  -12.1972  -42.1143 C.2       2 UNK         0.5000 
     61 O          -0.8847  -13.3368  -42.1591 O.2       2 UNK        -0.5000 
     62 CA         -1.6680  -11.4636  -43.4261 C.3       2 UNK         0.1400 
     63 CB         -0.5225  -10.5196  -43.8284 C.3       2 UNK        -0.1800 
     64 N          -1.8509  -12.4948  -44.4361 N.am      2 UNK        -0.5000 
     65 C          -2.6061  -12.4284  -45.5364 C.2       1 UNK         0.5000 
     66 O          -3.1262  -11.3915  -45.9503 O.2       1 UNK        -0.5000 
     67 C          -1.6133  -22.7017  -49.2079 C.2       11 UNK         0.5000 
     68 O          -2.1521  -23.5560  -49.9148 O.2       11 UNK        -0.5000 
     69 N          -2.1734  -21.5220  -48.9150 N.am      12 UNK        -0.5000 
     70 CA         -3.5158  -21.1116  -49.3143 C.3       12 UNK         0.1400 
     71 CB         -3.4575  -19.6876  -49.8910 C.3       12 UNK        -0.1800 
     72 C          -4.4808  -21.1589  -48.1204 C.2       12 UNK         0.5000 
     73 O          -5.6245  -21.5810  -48.2851 O.2       12 UNK        -0.5000 
     74 N          -4.0151  -20.7132  -46.9463 N.am      13 UNK        -0.5000 
     75 CA         -4.8549  -20.4757  -45.7733 C.3       13 UNK         0.1400 
     76 CB         -4.1282  -19.5014  -44.8361 C.3       13 UNK        -0.1800 
     77 C          -5.2841  -21.7424  -45.0104 C.2       13 UNK         0.5000 
     78 O          -6.3146  -21.6981  -44.3367 O.2       13 UNK        -0.5000 
     79 N          -4.5021  -22.8268  -45.0988 N.am      14 UNK        -0.5000 
     80 CA         -4.7388  -24.0677  -44.3565 C.3       14 UNK         0.1400 
     81 CB         -3.6419  -24.2472  -43.2933 C.3       14 UNK        -0.1800 
     82 C          -4.8021  -25.2814  -45.2931 C.2       14 UNK         0.5000 
     83 O          -5.7505  -26.0627  -45.2097 O.2       14 UNK        -0.5000 
     84 N          -3.7983  -25.4218  -46.1683 N.am      15 UNK        -0.5000 
     85 CA         -3.6750  -26.5298  -47.1163 C.3       15 UNK         0.1400 
     86 CB         -2.2267  -26.5929  -47.6249 C.3       15 UNK        -0.1800 
     87 C          -4.6515  -26.4181  -48.2998 C.2       15 UNK         0.5000 
     88 O          -5.0344  -27.4442  -48.8625 O.2       15 UNK        -0.5000 
     89 N          -5.0184  -25.1770  -48.6572 N.am      16 UNK        -0.5000 
     90 CA         -5.9121  -24.7943  -49.7582 C.3       16 UNK         0.1400 
     91 CB         -7.3523  -25.2732  -49.4819 C.3       16 UNK        -0.1800 
     92 C          -5.4010  -25.2096  -51.1559 C.2       16 UNK         0.5000 
     93 O          -6.1958  -25.3295  -52.0898 O.2       16 UNK        -0.5000 
     94 N          -4.0821  -25.4066  -51.2821 N.am      17 UNK        -0.5000 
     95 CA         -3.4045  -25.7245  -52.5372 C.3       17 UNK         0.1400 
     96 CB         -2.0705  -26.4194  -52.2228 C.3       17 UNK        -0.1800 
     97 C          -3.1674  -24.4605  -53.3786 C.2       17 UNK         0.5000 
     98 O          -3.2161  -24.5252  -54.6076 O.2       17 UNK        -0.5000 
     99 N          -2.8961  -23.3393  -52.6908 N.am      18 UNK        -0.5000 
    100 CA        -2.6658  -21.9930  -53.2272 C.3       18 UNK         0.1400 
    101 CB        -3.9547  -21.4429  -53.8661 C.3       18 UNK        -0.1800 
    102 C         -1.4479  -21.8931  -54.1710 C.2       18 UNK         0.5000 
    103 O         -1.3759  -20.9648  -54.9782 O.2       18 UNK        -0.5000 
    104 N         -0.5279  -22.8683  -54.0735 N.am      19 UNK        -0.5000 
    105 CA         0.7118  -23.0426  -54.8469 C.3       19 UNK         0.1400 
    106 CB         1.7475  -21.9870  -54.4101 C.3       19 UNK        -0.1800 
    107 C          0.5289  -23.0719  -56.3836 C.2       19 UNK         0.5000 
    108 O          1.5033  -22.8835  -57.1131 O.2       19 UNK        -0.5000 
    109 N         -0.7184  -23.2607  -56.8453 N.am      20 UNK        -0.5000 
    110 CA        -1.2070  -23.0418  -58.2137 C.3       20 UNK         0.1400 
    111 CB        -0.6002  -24.0730  -59.1876 C.3       20 UNK        -0.1800 
    112 C         -1.0357  -21.5822  -58.7071 C.2       20 UNK         0.5000 
    113 O         -1.0757  -21.3383  -59.9143 O.2       20 UNK        -0.5000 
    114 N         -0.8499  -20.6387  -57.7731 N.am      21 UNK        -0.5000 
    115 CA        -0.5862  -19.2252  -58.0333 C.3       21 UNK         0.1400 
    116 CB         0.4609  -18.7273  -57.0241 C.3       21 UNK        -0.1800 
    117 C         -1.8642  -18.3757  -57.9474 C.2       21 UNK         0.5000 
    118 O         -1.9644  -17.3691  -58.6503 O.2       21 UNK        -0.5000 
    119 N         -2.8183  -18.7917  -57.1064 N.am      22 UNK        -0.5000 
    120 CA        -4.1146  -18.1211  -56.9122 C.3       22 UNK         0.1400 
    121 C         -5.2999  -19.1039  -56.6853 C.2       22 UNK         0.5000 
    122 N         -5.1586  -20.3876  -56.9951 N.am      22 UNK        -0.7600 
    123 O         -6.3762  -18.6993  -56.2541 O.2       22 UNK        -0.5000 
    124 C124       -4.0394  -16.9569  -55.8855 C.3       23 UNK        -0.0398 
    125 S125       -3.5732  -17.4683  -54.1949 S.3       23 UNK        -0.2404 
    126 C126       -1.8738  -16.8319  -54.0904 C.3       23 UNK        -0.0205 
    127 H127       -2.9986  -15.9961  -42.5060 H         1 UNK         0.0600 
    128 H128       -4.2936  -16.9072  -43.2848 H         1 UNK         0.0600 
    129 H129       -2.6436  -17.0219  -43.9011 H         1 UNK         0.0600 
    130 H130       -2.0261  -15.5557  -45.5176 H         1 UNK         0.3000 
    131 H131       -3.8587  -13.7186  -46.6895 H         1 UNK         0.0600 
    132 H132       -0.8340  -13.9698  -47.0933 H         1 UNK         0.0800 
    133 H133       -1.9037  -13.0290  -48.1059 H         1 UNK         0.0800 
    134 H134        0.1664  -15.7761  -48.6462 H         1 UNK         0.0800 
    135 H135       -0.3345  -14.5589  -49.7950 H         1 UNK         0.0800 
    136 H136       -1.6535  -15.2586  -51.8655 H         1 UNK         0.1150 
    137 H137       -0.7020  -19.1555  -53.3504 H         1 UNK         0.1150 
    138 H138        0.2950  -18.0828  -49.3183 H         1 UNK         0.1150 
    139 H139       -0.3921  -20.9106  -51.3890 H         1 UNK         0.0800 
    140 H140        1.1879  -20.3701  -51.9068 H         1 UNK         0.0800 
    141 H141        1.8632  -22.8897  -49.1759 H         1 UNK         0.0800 
    142 H142        0.7901  -22.8445  -50.5359 H         1 UNK         0.0800 
    143 H143       -0.1291  -24.0702  -48.5280 H         1 UNK         0.0600 
    144 H144        0.6779  -21.8055  -47.0964 H         1 UNK         0.3000 
    145 H145       -1.6318  -21.6508  -44.4750 H         1 UNK         0.0600 
    146 H146        0.2471  -22.1226  -42.9475 H         1 UNK         0.0600 
    147 H147       -0.2894  -23.6228  -43.6874 H         1 UNK         0.0600 
    148 H148        1.1816  -22.8425  -44.2570 H         1 UNK         0.0600 
    149 H149        0.8273  -20.3894  -44.5848 H         1 UNK         0.3000 
    150 H150        0.8758  -18.3449  -47.2119 H         1 UNK         0.0600 
    151 H151       -1.0688  -17.0161  -46.3466 H         1 UNK         0.0600 
    152 H152        0.4708  -16.2313  -46.0154 H         1 UNK         0.0600 
    153 H153       -0.3803  -17.0825  -44.7283 H         1 UNK         0.0600 
    154 H154        1.9347  -17.8093  -44.6358 H         1 UNK         0.3000 
    155 H155        4.6182  -20.1504  -44.7179 H         1 UNK         0.0600 
    156 H156        4.4805  -17.1043  -45.0477 H         1 UNK         0.0600 
    157 H157        5.3458  -18.2175  -46.1001 H         1 UNK         0.0600 
    158 H158        5.8583  -18.0150  -44.4317 H         1 UNK         0.0600 
    159 H159        3.3895  -18.0369  -43.0339 H         1 UNK         0.3000 
    160 H160        2.2027  -20.3420  -40.6243 H         1 UNK         0.0600 
    161 H161        3.6401  -19.0801  -39.0466 H         1 UNK         0.0600 
    162 H162        4.6366  -18.4932  -40.3788 H         1 UNK         0.0600 
    163 H163        4.6119  -20.2069  -39.9797 H         1 UNK         0.0600 
    164 H164        2.4099  -17.4722  -40.6843 H         1 UNK         0.3000 
    165 H165       -0.5924  -16.8628  -42.4580 H         1 UNK         0.0600 
    166 H166       -1.3233  -15.7357  -40.4010 H         1 UNK         0.0600 
    167 H167       -1.4369  -17.4757  -40.1862 H         1 UNK         0.0600 
    168 H168       -0.1043  -16.5864  -39.4539 H         1 UNK         0.0600 
    169 H169        0.7592  -14.8994  -41.2365 H         1 UNK         0.3000 
    170 H170        3.6233  -14.2965  -42.9519 H         1 UNK         0.0600 
    171 H171        2.3958  -14.1413  -45.0872 H         1 UNK         0.0600 
    172 H172        1.0090  -13.4166  -44.2883 H         1 UNK         0.0600 
    173 H173        2.5384  -12.5409  -44.3795 H         1 UNK         0.0600 
    174 H174        1.3261  -12.7464  -41.9082 H         1 UNK         0.3000 
    175 H175        2.6438  -12.3884  -38.6995 H         1 UNK         0.0600 
    176 H176        2.9061   -9.9563  -39.1449 H         1 UNK         0.0600 
    177 H177        4.2765  -10.8490  -39.7840 H         1 UNK         0.0600 
    178 H178        3.0287  -10.2638  -40.8778 H         1 UNK         0.0600 
    179 H179        0.7296  -10.9057  -40.3149 H         1 UNK         0.3000 
    180 H180       -2.0283  -13.0241  -39.5793 H         1 UNK         0.0600 
    181 H181       -1.3748  -10.1914  -38.6054 H         1 UNK         0.0600 
    182 H182       -1.8188  -11.5447  -37.5723 H         1 UNK         0.0600 
    183 H183       -2.9822  -10.9084  -38.7232 H         1 UNK         0.0600 
    184 H184       -1.9767  -10.6071  -41.0096 H         1 UNK         0.3000 
    185 H185       -2.5955  -10.9000  -43.3057 H         1 UNK         0.0600 
    186 H186        0.4237  -11.0506  -43.9315 H         1 UNK         0.0600 
    187 H187       -0.7331  -10.0273  -44.7779 H         1 UNK         0.0600 
    188 H188       -0.3805   -9.7368  -43.0826 H         1 UNK         0.0600 
    189 H189       -1.5062  -13.3988  -44.1361 H         1 UNK         0.3000 
    190 H190       -1.6695  -20.8834  -48.3076 H         1 UNK         0.3000 
    191 H191       -3.9098  -21.7734  -50.0883 H         1 UNK         0.0600 
    192 H192       -2.8453  -19.6488  -50.7904 H         1 UNK         0.0600 
    193 H193       -3.0388  -18.9768  -49.1767 H         1 UNK         0.0600 
    194 H194       -4.4520  -19.3332  -50.1644 H         1 UNK         0.0600 
    195 H195       -3.0619  -20.3627  -46.8946 H         1 UNK         0.3000 
    196 H196       -5.7695  -19.9832  -46.1111 H         1 UNK         0.0600 
    197 H197       -4.7483  -19.2529  -43.9741 H         1 UNK         0.0600 
    198 H198       -3.8953  -18.5699  -45.3520 H         1 UNK         0.0600 
    199 H199       -3.1945  -19.9171  -44.4589 H         1 UNK         0.0600 
    200 H200       -3.6788  -22.8006  -45.6888 H         1 UNK         0.3000 
    201 H201       -5.6970  -24.0282  -43.8343 H         1 UNK         0.0600 
    202 H202       -3.6329  -23.4114  -42.5936 H         1 UNK         0.0600 
    203 H203       -2.6504  -24.3192  -43.7397 H         1 UNK         0.0600 
    204 H204       -3.8066  -25.1558  -42.7130 H         1 UNK         0.0600 
    205 H205       -3.0399  -24.7410  -46.1674 H         1 UNK         0.3000 
    206 H206       -3.8929  -27.4620  -46.5908 H         1 UNK         0.0600 
    207 H207       -1.5240  -26.7206  -46.8013 H         1 UNK         0.0600 
    208 H208       -2.0870  -27.4329  -48.3067 H         1 UNK         0.0600 
    209 H209       -1.9508  -25.6858  -48.1617 H         1 UNK         0.0600 
    210 H210       -4.6381  -24.4119  -48.1193 H         1 UNK         0.3000 
    211 H211       -5.9299  -23.7052  -49.7704 H         1 UNK         0.0600 
    212 H212       -7.4345  -26.3594  -49.5282 H         1 UNK         0.0600 
    213 H213       -8.0500  -24.8614  -50.2118 H         1 UNK         0.0600 
    214 H214       -7.6906  -24.9524  -48.4965 H         1 UNK         0.0600 
    215 H215       -3.4916  -25.2282  -50.4800 H         1 UNK         0.3000 
    216 H216       -4.0228  -26.4115  -53.1190 H         1 UNK         0.0600 
    217 H217       -1.5399  -26.6801  -53.1395 H         1 UNK         0.0600 
    218 H218       -2.2315  -27.3433  -51.6669 H         1 UNK         0.0600 
    219 H219       -1.4119  -25.7839  -51.6292 H         1 UNK         0.0600 
    220 H220       -2.8133  -23.4259  -51.6810 H         1 UNK         0.3000 
    221 H221       -2.4347  -21.3611  -52.3714 H         1 UNK         0.0600 
    222 H222       -4.2346  -22.0015  -54.7591 H         1 UNK         0.0600 
    223 H223       -4.7902  -21.4861  -53.1675 H         1 UNK         0.0600 
    224 H224       -3.8344  -20.4004  -54.1579 H         1 UNK         0.0600 
    225 H225       -0.7161  -23.5978  -53.4014 H         1 UNK         0.3000 
    226 H226        1.1054  -24.0238  -54.5784 H         1 UNK         0.0600 
    227 H227        1.9460  -22.0570  -53.3413 H         1 UNK         0.0600 
    228 H228        2.7021  -22.1300  -54.9176 H         1 UNK         0.0600 
    229 H229        1.4089  -20.9734  -54.6278 H         1 UNK         0.0600 
    230 H230       -1.4387  -23.4305  -56.1554 H         1 UNK         0.3000 
    231 H231       -2.2827  -23.2191  -58.1776 H         1 UNK         0.0600 
    232 H232       -0.7305  -25.0896  -58.8170 H         1 UNK         0.0600 
    233 H233        0.4657  -23.9063  -59.3443 H         1 UNK         0.0600 
    234 H234       -1.0839  -24.0211  -60.1637 H         1 UNK         0.0600 
    235 H235       -0.8760  -20.9101  -56.7937 H         1 UNK         0.3000 
    236 H236       -0.1719  -19.1028  -59.0362 H         1 UNK         0.0600 
    237 H237        0.6729  -17.6670  -57.1675 H         1 UNK         0.0600 
    238 H238        0.1271  -18.8619  -55.9949 H         1 UNK         0.0600 
    239 H239        1.4014  -19.2665  -57.1392 H         1 UNK         0.0600 
    240 H240       -2.6411  -19.5948  -56.5180 H         1 UNK         0.3000 
    241 H241       -4.3806  -17.6607  -57.8655 H         1 UNK         0.0600 
    242 H242       -5.9378  -21.0117  -56.8578 H         1 UNK         0.3800 
    243 H243       -4.3142  -20.7294  -57.4217 H         1 UNK         0.3800 
    244 H244       -3.3338  -16.2055  -56.2419 H         1 UNK         0.0800 
    245 H245       -4.9989  -16.4406  -55.8293 H         1 UNK         0.0800 
    246 H246       -1.8792  -15.7512  -54.2401 H         1 UNK         0.0800 
    247 H247       -1.2764  -17.2552  -54.8981 H         1 UNK         0.0800 
@<TRIPOS>BOND
     1    1    2 1    
     2    1  127 1    
     3    1  128 1    
     4    1  129 1    
     5    2    3 2    
     6    2    4 am   BACKBONE|DICT|INTERRES
     7    4    5 1    
     8    4  130 1    
     9    5    6 1    
    10    5   65 1    
    11    5  131 1    
    12    6    7 1    
    13    6  132 1    
    14    6  133 1    
    15    7    8 1    
    16    8    9 1    
    17    8  134 1    
    18    8  135 1    
    19    9   10 ar   
    20    9   14 ar   
    21   10   11 ar   
    22   10  136 1    
    23   11   12 ar   
    24   11  126 1    
    25   12   13 ar   
    26   12  137 1    
    27   13   14 ar   
    28   13   15 1    
    29   14  138 1    
    30   15   16 1    
    31   15  139 1    
    32   15  140 1    
    33   16   17 1    
    34   17   18 1    
    35   17  141 1    
    36   17  142 1    
    37   18   19 1    
    38   18   67 1    
    39   18  143 1    
    40   19   20 am   BACKBONE|DICT|INTERRES
    41   19  144 1    
    42   20   21 2    
    43   20   22 1    
    44   22   23 1    
    45   22   24 1    
    46   22  145 1    
    47   23  146 1    
    48   23  147 1    
    49   23  148 1    
    50   24   25 am   BACKBONE|DICT|INTERRES
    51   24  149 1    
    52   25   26 2    
    53   25   27 1    
    54   27   28 1    
    55   27   29 1    
    56   27  150 1    
    57   28  151 1    
    58   28  152 1    
    59   28  153 1    
    60   29   30 am   BACKBONE|DICT|INTERRES
    61   29  154 1    
    62   30   31 2    
    63   30   32 1    
    64   32   33 1    
    65   32   34 1    
    66   32  155 1    
    67   33  156 1    
    68   33  157 1    
    69   33  158 1    
    70   34   35 am   BACKBONE|DICT|INTERRES
    71   34  159 1    
    72   35   36 2    
    73   35   37 1    
    74   37   38 1    
    75   37   39 1    
    76   37  160 1    
    77   38  161 1    
    78   38  162 1    
    79   38  163 1    
    80   39   40 am   BACKBONE|DICT|INTERRES
    81   39  164 1    
    82   40   41 2    
    83   40   42 1    
    84   42   43 1    
    85   42   44 1    
    86   42  165 1    
    87   43  166 1    
    88   43  167 1    
    89   43  168 1    
    90   44   45 am   BACKBONE|DICT|INTERRES
    91   44  169 1    
    92   45   46 2    
    93   45   47 1    
    94   47   48 1    
    95   47   49 1    
    96   47  170 1    
    97   48  171 1    
    98   48  172 1    
    99   48  173 1    
   100   49   50 am   BACKBONE|DICT|INTERRES
   101   49  174 1    
   102   50   51 2    
   103   50   52 1    
   104   52   53 1    
   105   52   54 1    
   106   52  175 1    
   107   53  176 1    
   108   53  177 1    
   109   53  178 1    
   110   54   55 am   BACKBONE|DICT|INTERRES
   111   54  179 1    
   112   55   56 2    
   113   55   57 1    
   114   57   58 1    
   115   57   59 1    
   116   57  180 1    
   117   58  181 1    
   118   58  182 1    
   119   58  183 1    
   120   59   60 am   BACKBONE|DICT|INTERRES
   121   59  184 1    
   122   60   61 2    
   123   60   62 1    
   124   62   63 1    
   125   62   64 1    
   126   62  185 1    
   127   63  186 1    
   128   63  187 1    
   129   63  188 1    
   130   64   65 am   BACKBONE|DICT|INTERRES
   131   64  189 1    
   132   65   66 2    
   133   67   68 2    
   134   67   69 am   BACKBONE|DICT|INTERRES
   135   69   70 1    
   136   69  190 1    
   137   70   71 1    
   138   70   72 1    
   139   70  191 1    
   140   71  192 1    
   141   71  193 1    
   142   71  194 1    
   143   72   73 2    
   144   72   74 am   BACKBONE|DICT|INTERRES
   145   74   75 1    
   146   74  195 1    
   147   75   76 1    
   148   75   77 1    
   149   75  196 1    
   150   76  197 1    
   151   76  198 1    
   152   76  199 1    
   153   77   78 2    
   154   77   79 am   BACKBONE|DICT|INTERRES
   155   79   80 1    
   156   79  200 1    
   157   80   81 1    
   158   80   82 1    
   159   80  201 1    
   160   81  202 1    
   161   81  203 1    
   162   81  204 1    
   163   82   83 2    
   164   82   84 am   BACKBONE|DICT|INTERRES
   165   84   85 1    
   166   84  205 1    
   167   85   86 1    
   168   85   87 1    
   169   85  206 1    
   170   86  207 1    
   171   86  208 1    
   172   86  209 1    
   173   87   88 2    
   174   87   89 am   BACKBONE|DICT|INTERRES
   175   89   90 1    
   176   89  210 1    
   177   90   91 1    
   178   90   92 1    
   179   90  211 1    
   180   91  212 1    
   181   91  213 1    
   182   91  214 1    
   183   92   93 2    
   184   92   94 am   BACKBONE|DICT|INTERRES
   185   94   95 1    
   186   94  215 1    
   187   95   96 1    
   188   95   97 1    
   189   95  216 1    
   190   96  217 1    
   191   96  218 1    
   192   96  219 1    
   193   97   98 2    
   194   97   99 am   BACKBONE|DICT|INTERRES
   195   99  100 1    
   196   99  220 1    
   197  100  101 1    
   198  100  102 1    
   199  100  221 1    
   200  101  222 1    
   201  101  223 1    
   202  101  224 1    
   203  102  103 2    
   204  102  104 am   BACKBONE|DICT|INTERRES
   205  104  105 1    
   206  104  225 1    
   207  105  106 1    
   208  105  107 1    
   209  105  226 1    
   210  106  227 1    
   211  106  228 1    
   212  106  229 1    
   213  107  108 2    
   214  107  109 am   BACKBONE|DICT|INTERRES
   215  109  110 1    
   216  109  230 1    
   217  110  111 1    
   218  110  112 1    
   219  110  231 1    
   220  111  232 1    
   221  111  233 1    
   222  111  234 1    
   223  112  113 2    
   224  112  114 am   BACKBONE|DICT|INTERRES
   225  114  115 1    
   226  114  235 1    
   227  115  116 1    
   228  115  117 1    
   229  115  236 1    
   230  116  237 1    
   231  116  238 1    
   232  116  239 1    
   233  117  118 2    
   234  117  119 am   BACKBONE|DICT|INTERRES
   235  119  120 1    
   236  119  240 1    
   237  120  121 1    
   238  120  124 1    
   239  120  241 1    
   240  121  122 am   BACKBONE|DICT|INTERRES
   241  121  123 2    
   242  122  242 1    
   243  122  243 1    
   244  124  125 1    
   245  124  244 1    
   246  124  245 1    
   247  125  126 1    
   248  126  246 1    
   249  126  247 1    
@<TRIPOS>SUBSTRUCTURE
     1 UNK         1 GROUP             0       ****    0 ROOT    
