@<TRIPOS>MOLECULE
3R540
247   249    1
SMALL
USER_CHARGES


@<TRIPOS>ATOM
      1 CA          2.4744   -8.4976  -49.2677 C.3       0 UNK        -0.1800 
      2 C           3.1604   -9.8103  -48.9174 C.2       0 UNK         0.5000 
      3 O           4.2230   -9.8002  -48.2962 O.2       0 UNK        -0.5000 
      4 N           2.5561  -10.9392  -49.3101 N.am      1 UNK        -0.5000 
      5 CA          3.0703  -12.2957  -49.0726 C.3       1 UNK         0.1400 
      6 C6          2.3577  -13.3499  -49.9513 C.3       23 UNK        -0.0398 
      7 S7          2.4595  -13.0136  -51.7428 S.3       23 UNK        -0.2404 
      8 C8          2.2542  -14.6898  -52.4307 C.3       23 UNK        -0.0205 
      9 C9          0.8808  -15.2693  -52.1195 C.ar      23 UNK        -0.0193 
     10 C10        -0.1912  -15.0659  -52.9931 C.ar      23 UNK        -0.1150 
     11 C11        -1.4568  -15.5851  -52.6987 C.ar      23 UNK        -0.0193 
     12 C12        -1.6462  -16.3042  -51.5126 C.ar      23 UNK        -0.1150 
     13 C13        -0.5787  -16.5244  -50.6382 C.ar      23 UNK        -0.0193 
     14 C14         0.6812  -16.0103  -50.9523 C.ar      23 UNK        -0.1150 
     15 C15        -0.7783  -17.2852  -49.3368 C.3       23 UNK        -0.0205 
     16 S16         0.1784  -18.8347  -49.3074 S.3       23 UNK        -0.2404 
     17 C17         0.1898  -19.1819  -47.5169 C.3       23 UNK        -0.0398 
     18 CA         -0.3234  -20.5893  -47.1352 C.3       11 UNK         0.1400 
     19 N          -0.0563  -20.8713  -45.7237 N.am      11 UNK        -0.5000 
     20 C          -0.2418  -22.0513  -45.1179 C.2       10 UNK         0.5000 
     21 O          -0.6142  -23.0697  -45.6990 O.2       10 UNK        -0.5000 
     22 CA         -0.0194  -22.0852  -43.5954 C.3       10 UNK         0.1400 
     23 CB          1.4755  -22.2058  -43.2649 C.3       10 UNK        -0.1800 
     24 N          -0.5848  -20.9161  -42.9181 N.am      10 UNK        -0.5000 
     25 C          -1.8919  -20.6168  -42.8926 C.2       9 UNK         0.5000 
     26 O          -2.7622  -21.3190  -43.4054 O.2       9 UNK        -0.5000 
     27 CA         -2.2963  -19.2921  -42.2230 C.3       9 UNK         0.1400 
     28 CB         -2.3172  -19.4375  -40.6943 C.3       9 UNK        -0.1800 
     29 N          -1.4317  -18.1755  -42.6054 N.am      9 UNK        -0.5000 
     30 C          -1.3077  -17.7000  -43.8532 C.2       8 UNK         0.5000 
     31 O          -1.9354  -18.1359  -44.8182 O.2       8 UNK        -0.5000 
     32 CA         -0.2653  -16.5878  -44.0718 C.3       8 UNK         0.1400 
     33 CB         -0.8019  -15.2266  -43.6065 C.3       8 UNK        -0.1800 
     34 N           1.0016  -16.8709  -43.3983 N.am      8 UNK        -0.5000 
     35 C           1.7873  -17.9233  -43.6676 C.2       7 UNK         0.5000 
     36 O           1.5522  -18.7473  -44.5511 O.2       7 UNK        -0.5000 
     37 CA          3.0101  -18.1184  -42.7569 C.3       7 UNK         0.1400 
     38 CB          4.1634  -17.1908  -43.1711 C.3       7 UNK        -0.1800 
     39 N           2.6764  -17.9029  -41.3486 N.am      7 UNK        -0.5000 
     40 C           1.8767  -18.7057  -40.6309 C.2       6 UNK         0.5000 
     41 O           1.3642  -19.7337  -41.0721 O.2       6 UNK        -0.5000 
     42 CA          1.5645  -18.2615  -39.1907 C.3       6 UNK         0.1400 
     43 CB          2.6863  -18.6939  -38.2350 C.3       6 UNK        -0.1800 
     44 N           1.3637  -16.8162  -39.0821 N.am      6 UNK        -0.5000 
     45 C           0.3420  -16.1482  -39.6366 C.2       5 UNK         0.5000 
     46 O          -0.5641  -16.6863  -40.2710 O.2       5 UNK        -0.5000 
     47 CA          0.3720  -14.6146  -39.5062 C.3       5 UNK         0.1400 
     48 CB         -0.2550  -14.1705  -38.1764 C.3       5 UNK        -0.1800 
     49 N           1.7258  -14.0638  -39.6182 N.am      5 UNK        -0.5000 
     50 C           2.4794  -14.1447  -40.7213 C.2       4 UNK         0.5000 
     51 O           2.1101  -14.6907  -41.7661 O.2       4 UNK        -0.5000 
     52 CA          3.8939  -13.5609  -40.6322 C.3       4 UNK         0.1400 
     53 CB          4.8761  -14.5840  -40.0365 C.3       4 UNK        -0.1800 
     54 N           4.3070  -13.2047  -41.9807 N.am      4 UNK        -0.5000 
     55 C           5.1659  -12.2384  -42.3186 C.2       3 UNK         0.5000 
     56 O           5.8155  -11.5820  -41.5035 O.2       3 UNK        -0.5000 
     57 CA          5.3089  -11.9420  -43.8255 C.3       3 UNK         0.1400 
     58 CB          6.5329  -12.6690  -44.4025 C.3       3 UNK        -0.1800 
     59 N           4.1259  -12.3154  -44.6069 N.am      3 UNK        -0.5000 
     60 C           2.9215  -11.7370  -44.5191 C.2       2 UNK         0.5000 
     61 O           2.6804  -10.7730  -43.7903 O.2       2 UNK        -0.5000 
     62 CA          1.8154  -12.3394  -45.4096 C.3       2 UNK         0.1400 
     63 CB          0.4158  -11.8036  -45.0583 C.3       2 UNK        -0.1800 
     64 N           2.0675  -12.0933  -46.8290 N.am      2 UNK        -0.5000 
     65 C           2.9759  -12.7207  -47.5896 C.2       1 UNK         0.5000 
     66 O           3.7127  -13.6135  -47.1665 O.2       1 UNK        -0.5000 
     67 C          -1.8136  -20.7932  -47.4832 C.2       11 UNK         0.5000 
     68 O          -2.1200  -21.4855  -48.4548 O.2       11 UNK        -0.5000 
     69 N          -2.7112  -20.2367  -46.6564 N.am      12 UNK        -0.5000 
     70 CA         -4.1604  -20.3966  -46.7806 C.3       12 UNK         0.1400 
     71 CB         -4.8699  -19.4929  -45.7616 C.3       12 UNK        -0.1800 
     72 C          -4.6148  -21.8598  -46.6306 C.2       12 UNK         0.5000 
     73 O          -5.4351  -22.3207  -47.4239 O.2       12 UNK        -0.5000 
     74 N          -4.0464  -22.5745  -45.6490 N.am      13 UNK        -0.5000 
     75 CA         -4.2828  -23.9993  -45.4174 C.3       13 UNK         0.1400 
     76 CB         -3.6118  -24.4355  -44.1067 C.3       13 UNK        -0.1800 
     77 C          -3.8152  -24.8754  -46.5922 C.2       13 UNK         0.5000 
     78 O          -4.5579  -25.7610  -47.0132 O.2       13 UNK        -0.5000 
     79 N          -2.6207  -24.5904  -47.1298 N.am      14 UNK        -0.5000 
     80 CA         -2.0637  -25.2575  -48.3073 C.3       14 UNK         0.1400 
     81 CB         -0.6130  -24.8037  -48.5273 C.3       14 UNK        -0.1800 
     82 C          -2.9101  -25.0271  -49.5715 C.2       14 UNK         0.5000 
     83 O          -3.1922  -25.9841  -50.2925 O.2       14 UNK        -0.5000 
     84 N          -3.3398  -23.7767  -49.7913 N.am      15 UNK        -0.5000 
     85 CA         -4.2232  -23.3853  -50.8906 C.3       15 UNK         0.1400 
     86 CB         -4.3346  -21.8544  -50.9368 C.3       15 UNK        -0.1800 
     87 C          -5.6184  -24.0339  -50.8079 C.2       15 UNK         0.5000 
     88 O          -6.1844  -24.3783  -51.8443 O.2       15 UNK        -0.5000 
     89 N          -6.1407  -24.2059  -49.5861 N.am      16 UNK        -0.5000 
     90 CA         -7.3969  -24.9053  -49.3203 C.3       16 UNK         0.1400 
     91 CB         -7.8793  -24.5733  -47.8998 C.3       16 UNK        -0.1800 
     92 C          -7.2789  -26.4288  -49.5161 C.2       16 UNK         0.5000 
     93 O          -8.2009  -27.0396  -50.0580 O.2       16 UNK        -0.5000 
     94 N          -6.1600  -27.0145  -49.0659 N.am      17 UNK        -0.5000 
     95 CA         -5.8706  -28.4458  -49.1640 C.3       17 UNK         0.1400 
     96 CB         -4.6779  -28.7931  -48.2592 C.3       17 UNK        -0.1800 
     97 C          -5.6098  -28.9070  -50.6087 C.2       17 UNK         0.5000 
     98 O          -6.1493  -29.9347  -51.0222 O.2       17 UNK        -0.5000 
     99 N          -4.7913  -28.1422  -51.3410 N.am      18 UNK        -0.5000 
    100 CA        -4.4874  -28.3511  -52.7527 C.3       18 UNK         0.1400 
    101 CB        -2.9782  -28.1232  -52.9780 C.3       18 UNK        -0.1800 
    102 C         -5.3977  -27.4358  -53.5924 C.2       18 UNK         0.5000 
    103 O         -6.6048  -27.6759  -53.6549 O.2       18 UNK        -0.5000 
    104 N         -4.8172  -26.4088  -54.2180 N.am      19 UNK        -0.5000 
    105 CA        -5.5065  -25.3590  -54.9558 C.3       19 UNK         0.1400 
    106 CB        -5.7100  -25.7916  -56.4180 C.3       19 UNK        -0.1800 
    107 C         -4.6565  -24.0857  -54.8664 C.2       19 UNK         0.5000 
    108 O         -3.4348  -24.1767  -54.7105 O.2       19 UNK        -0.5000 
    109 N         -5.3088  -22.9238  -54.9711 N.am      20 UNK        -0.5000 
    110 CA        -4.6515  -21.6204  -54.9894 C.3       20 UNK         0.1400 
    111 CB        -5.6789  -20.5328  -54.6348 C.3       20 UNK        -0.1800 
    112 C         -4.0336  -21.3408  -56.3703 C.2       20 UNK         0.5000 
    113 O         -4.6841  -21.5774  -57.3908 O.2       20 UNK        -0.5000 
    114 N         -2.8153  -20.7888  -56.3741 N.am      21 UNK        -0.5000 
    115 CA        -2.1235  -20.2984  -57.5728 C.3       21 UNK         0.1400 
    116 CB        -0.6086  -20.4426  -57.3516 C.3       21 UNK        -0.1800 
    117 C         -2.4895  -18.8345  -57.9067 C.2       21 UNK         0.5000 
    118 O         -1.9975  -18.2916  -58.8964 O.2       21 UNK        -0.5000 
    119 N         -3.3180  -18.2176  -57.0563 N.am      22 UNK        -0.5000 
    120 CA        -3.6912  -16.7947  -57.0529 C.3       22 UNK         0.1400 
    121 C         -4.6097  -16.3387  -58.2249 C.2       22 UNK         0.5000 
    122 N         -5.1745  -17.2382  -59.0209 N.am      22 UNK        -0.7600 
    123 O         -4.8114  -15.1426  -58.4162 O.2       22 UNK        -0.5000 
    124 C124       -4.3069  -16.3887  -55.6860 C.3       23 UNK        -0.0398 
    125 S125       -3.2960  -16.9344  -54.2635 S.3       23 UNK        -0.2404 
    126 C126       -2.6183  -15.3590  -53.6570 C.3       23 UNK        -0.0205 
    127 H127        3.1323   -7.8831  -49.8822 H         1 UNK         0.0600 
    128 H128        2.2385   -7.9435  -48.3592 H         1 UNK         0.0600 
    129 H129        1.5474   -8.6586  -49.8185 H         1 UNK         0.0600 
    130 H130        1.6986  -10.8848  -49.8418 H         1 UNK         0.3000 
    131 H131        4.1300  -12.3005  -49.3372 H         1 UNK         0.0600 
    132 H132        2.8004  -14.3300  -49.7665 H         1 UNK         0.0800 
    133 H133        1.3030  -13.4281  -49.6801 H         1 UNK         0.0800 
    134 H134        3.0382  -15.3433  -52.0449 H         1 UNK         0.0800 
    135 H135        2.4011  -14.6474  -53.5110 H         1 UNK         0.0800 
    136 H136       -0.0384  -14.4979  -53.9001 H         1 UNK         0.1150 
    137 H137       -2.6255  -16.6973  -51.2774 H         1 UNK         0.1150 
    138 H138        1.5059  -16.1847  -50.2762 H         1 UNK         0.1150 
    139 H139       -0.4638  -16.6407  -48.5145 H         1 UNK         0.0800 
    140 H140       -1.8326  -17.5125  -49.1705 H         1 UNK         0.0800 
    141 H141       -0.3706  -18.4165  -46.9792 H         1 UNK         0.0800 
    142 H142        1.2242  -19.0727  -47.1888 H         1 UNK         0.0800 
    143 H143        0.2459  -21.3197  -47.7141 H         1 UNK         0.0600 
    144 H144        0.3003  -20.0963  -45.1716 H         1 UNK         0.3000 
    145 H145       -0.5244  -22.9716  -43.2066 H         1 UNK         0.0600 
    146 H146        2.0330  -21.3271  -43.5904 H         1 UNK         0.0600 
    147 H147        1.6328  -22.3224  -42.1926 H         1 UNK         0.0600 
    148 H148        1.9154  -23.0754  -43.7547 H         1 UNK         0.0600 
    149 H149        0.0701  -20.3123  -42.4298 H         1 UNK         0.3000 
    150 H150       -3.3094  -19.0523  -42.5523 H         1 UNK         0.0600 
    151 H151       -2.9659  -20.2593  -40.3886 H         1 UNK         0.0600 
    152 H152       -2.6936  -18.5321  -40.2181 H         1 UNK         0.0600 
    153 H153       -1.3229  -19.6369  -40.2945 H         1 UNK         0.0600 
    154 H154       -0.9147  -17.7261  -41.8548 H         1 UNK         0.3000 
    155 H155       -0.0635  -16.5247  -45.1430 H         1 UNK         0.0600 
    156 H156       -0.0711  -14.4377  -43.7791 H         1 UNK         0.0600 
    157 H157       -1.7089  -14.9582  -44.1494 H         1 UNK         0.0600 
    158 H158       -1.0428  -15.2280  -42.5435 H         1 UNK         0.0600 
    159 H159        1.2910  -16.2181  -42.6760 H         1 UNK         0.3000 
    160 H160        3.3493  -19.1503  -42.8704 H         1 UNK         0.0600 
    161 H161        4.4508  -17.3697  -44.2080 H         1 UNK         0.0600 
    162 H162        5.0470  -17.3615  -42.5562 H         1 UNK         0.0600 
    163 H163        3.8938  -16.1385  -43.0860 H         1 UNK         0.0600 
    164 H164        3.0179  -17.0550  -40.9236 H         1 UNK         0.3000 
    165 H165        0.6418  -18.7570  -38.8814 H         1 UNK         0.0600 
    166 H166        2.4387  -18.4511  -37.2015 H         1 UNK         0.0600 
    167 H167        2.8467  -19.7717  -38.2849 H         1 UNK         0.0600 
    168 H168        3.6331  -18.2093  -38.4766 H         1 UNK         0.0600 
    169 H169        2.0628  -16.2936  -38.5758 H         1 UNK         0.3000 
    170 H170       -0.2275  -14.2021  -40.3205 H         1 UNK         0.0600 
    171 H171       -1.2712  -14.5546  -38.0773 H         1 UNK         0.0600 
    172 H172        0.3168  -14.5294  -37.3198 H         1 UNK         0.0600 
    173 H173       -0.3123  -13.0838  -38.1111 H         1 UNK         0.0600 
    174 H174        2.0963  -13.6040  -38.7987 H         1 UNK         0.3000 
    175 H175        3.8642  -12.6650  -40.0083 H         1 UNK         0.0600 
    176 H176        4.9334  -15.4884  -40.6431 H         1 UNK         0.0600 
    177 H177        5.8813  -14.1683  -39.9646 H         1 UNK         0.0600 
    178 H178        4.5758  -14.8790  -39.0304 H         1 UNK         0.0600 
    179 H179        3.7765  -13.6672  -42.7076 H         1 UNK         0.3000 
    180 H180        5.4622  -10.8667  -43.9372 H         1 UNK         0.0600 
    181 H181        6.4257  -13.7524  -44.3342 H         1 UNK         0.0600 
    182 H182        7.4411  -12.3936  -43.8647 H         1 UNK         0.0600 
    183 H183        6.6862  -12.4121  -45.4510 H         1 UNK         0.0600 
    184 H184        4.2433  -13.0518  -45.2954 H         1 UNK         0.3000 
    185 H185        1.8093  -13.4179  -45.2360 H         1 UNK         0.0600 
    186 H186        0.3313  -10.7340  -45.2545 H         1 UNK         0.0600 
    187 H187       -0.3568  -12.3127  -45.6350 H         1 UNK         0.0600 
    188 H188        0.1889  -11.9625  -44.0032 H         1 UNK         0.0600 
    189 H189        1.5322  -11.3510  -47.2549 H         1 UNK         0.3000 
    190 H190       -2.3840  -19.6544  -45.8898 H         1 UNK         0.3000 
    191 H191       -4.4436  -20.0644  -47.7815 H         1 UNK         0.0600 
    192 H192       -4.6015  -19.7516  -44.7371 H         1 UNK         0.0600 
    193 H193       -5.9535  -19.5799  -45.8502 H         1 UNK         0.0600 
    194 H194       -4.6130  -18.4452  -45.9189 H         1 UNK         0.0600 
    195 H195       -3.4174  -22.1066  -45.0013 H         1 UNK         0.3000 
    196 H196       -5.3598  -24.1417  -45.3080 H         1 UNK         0.0600 
    197 H197       -2.5326  -24.2851  -44.1360 H         1 UNK         0.0600 
    198 H198       -3.7915  -25.4929  -43.9090 H         1 UNK         0.0600 
    199 H199       -4.0040  -23.8746  -43.2583 H         1 UNK         0.0600 
    200 H200       -2.0447  -23.8722  -46.6985 H         1 UNK         0.3000 
    201 H201       -2.0545  -26.3307  -48.1070 H         1 UNK         0.0600 
    202 H202        0.0100  -25.0491  -47.6671 H         1 UNK         0.0600 
    203 H203       -0.5463  -23.7278  -48.6907 H         1 UNK         0.0600 
    204 H204       -0.1767  -25.2969  -49.3967 H         1 UNK         0.0600 
    205 H205       -3.0299  -23.0344  -49.1692 H         1 UNK         0.3000 
    206 H206       -3.7610  -23.7198  -51.8217 H         1 UNK         0.0600 
    207 H207       -3.3601  -21.3927  -51.0970 H         1 UNK         0.0600 
    208 H208       -4.9849  -21.5347  -51.7505 H         1 UNK         0.0600 
    209 H209       -4.7461  -21.4536  -50.0101 H         1 UNK         0.0600 
    210 H210       -5.6495  -23.8246  -48.7843 H         1 UNK         0.3000 
    211 H211       -8.1475  -24.5371  -50.0229 H         1 UNK         0.0600 
    212 H212       -7.1605  -24.8909  -47.1441 H         1 UNK         0.0600 
    213 H213       -8.8259  -25.0696  -47.6827 H         1 UNK         0.0600 
    214 H214       -8.0382  -23.5016  -47.7790 H         1 UNK         0.0600 
    215 H215       -5.4796  -26.4488  -48.5664 H         1 UNK         0.3000 
    216 H216       -6.7415  -28.9907  -48.7938 H         1 UNK         0.0600 
    217 H217       -4.4417  -29.8565  -48.3131 H         1 UNK         0.0600 
    218 H218       -4.8946  -28.5607  -47.2165 H         1 UNK         0.0600 
    219 H219       -3.7815  -28.2414  -48.5448 H         1 UNK         0.0600 
    220 H220       -4.3809  -27.3142  -50.9150 H         1 UNK         0.3000 
    221 H221       -4.7111  -29.3796  -53.0428 H         1 UNK         0.0600 
    222 H222       -2.6629  -27.1201  -52.6889 H         1 UNK         0.0600 
    223 H223       -2.3896  -28.8305  -52.3935 H         1 UNK         0.0600 
    224 H224       -2.7096  -28.2716  -54.0247 H         1 UNK         0.0600 
    225 H225       -3.8273  -26.2382  -54.0914 H         1 UNK         0.3000 
    226 H226       -6.4759  -25.1621  -54.4927 H         1 UNK         0.0600 
    227 H227       -6.3268  -26.6880  -56.4828 H         1 UNK         0.0600 
    228 H228       -6.2108  -25.0103  -56.9910 H         1 UNK         0.0600 
    229 H229       -4.7594  -26.0024  -56.9095 H         1 UNK         0.0600 
    230 H230       -6.3052  -22.9282  -55.1334 H         1 UNK         0.3000 
    231 H231       -3.8660  -21.6106  -54.2302 H         1 UNK         0.0600 
    232 H232       -5.2037  -19.5537  -54.5653 H         1 UNK         0.0600 
    233 H233       -6.1529  -20.7308  -53.6738 H         1 UNK         0.0600 
    234 H234       -6.4677  -20.4623  -55.3851 H         1 UNK         0.0600 
    235 H235       -2.3421  -20.6334  -55.4949 H         1 UNK         0.3000 
    236 H236       -2.4012  -20.9103  -58.4337 H         1 UNK         0.0600 
    237 H237       -0.0510  -20.1345  -58.2371 H         1 UNK         0.0600 
    238 H238       -0.3374  -21.4780  -57.1444 H         1 UNK         0.0600 
    239 H239       -0.2635  -19.8310  -56.5169 H         1 UNK         0.0600 
    240 H240       -3.6548  -18.7499  -56.2697 H         1 UNK         0.3000 
    241 H241       -2.7636  -16.2314  -57.1711 H         1 UNK         0.0600 
    242 H242       -5.7644  -16.9319  -59.7789 H         1 UNK         0.3800 
    243 H243       -5.0083  -18.2219  -58.8795 H         1 UNK         0.3800 
    244 H244       -5.2985  -16.8310  -55.5740 H         1 UNK         0.0800 
    245 H245       -4.4526  -15.3082  -55.6358 H         1 UNK         0.0800 
    246 H246       -3.4035  -14.7960  -53.1506 H         1 UNK         0.0800 
    247 H247       -2.2977  -14.7559  -54.5081 H         1 UNK         0.0800 
@<TRIPOS>BOND
     1    1    2 1    
     2    1  127 1    
     3    1  128 1    
     4    1  129 1    
     5    2    3 2    
     6    2    4 am   BACKBONE|DICT|INTERRES
     7    4    5 1    
     8    4  130 1    
     9    5    6 1    
    10    5   65 1    
    11    5  131 1    
    12    6    7 1    
    13    6  132 1    
    14    6  133 1    
    15    7    8 1    
    16    8    9 1    
    17    8  134 1    
    18    8  135 1    
    19    9   10 ar   
    20    9   14 ar   
    21   10   11 ar   
    22   10  136 1    
    23   11   12 ar   
    24   11  126 1    
    25   12   13 ar   
    26   12  137 1    
    27   13   14 ar   
    28   13   15 1    
    29   14  138 1    
    30   15   16 1    
    31   15  139 1    
    32   15  140 1    
    33   16   17 1    
    34   17   18 1    
    35   17  141 1    
    36   17  142 1    
    37   18   19 1    
    38   18   67 1    
    39   18  143 1    
    40   19   20 am   BACKBONE|DICT|INTERRES
    41   19  144 1    
    42   20   21 2    
    43   20   22 1    
    44   22   23 1    
    45   22   24 1    
    46   22  145 1    
    47   23  146 1    
    48   23  147 1    
    49   23  148 1    
    50   24   25 am   BACKBONE|DICT|INTERRES
    51   24  149 1    
    52   25   26 2    
    53   25   27 1    
    54   27   28 1    
    55   27   29 1    
    56   27  150 1    
    57   28  151 1    
    58   28  152 1    
    59   28  153 1    
    60   29   30 am   BACKBONE|DICT|INTERRES
    61   29  154 1    
    62   30   31 2    
    63   30   32 1    
    64   32   33 1    
    65   32   34 1    
    66   32  155 1    
    67   33  156 1    
    68   33  157 1    
    69   33  158 1    
    70   34   35 am   BACKBONE|DICT|INTERRES
    71   34  159 1    
    72   35   36 2    
    73   35   37 1    
    74   37   38 1    
    75   37   39 1    
    76   37  160 1    
    77   38  161 1    
    78   38  162 1    
    79   38  163 1    
    80   39   40 am   BACKBONE|DICT|INTERRES
    81   39  164 1    
    82   40   41 2    
    83   40   42 1    
    84   42   43 1    
    85   42   44 1    
    86   42  165 1    
    87   43  166 1    
    88   43  167 1    
    89   43  168 1    
    90   44   45 am   BACKBONE|DICT|INTERRES
    91   44  169 1    
    92   45   46 2    
    93   45   47 1    
    94   47   48 1    
    95   47   49 1    
    96   47  170 1    
    97   48  171 1    
    98   48  172 1    
    99   48  173 1    
   100   49   50 am   BACKBONE|DICT|INTERRES
   101   49  174 1    
   102   50   51 2    
   103   50   52 1    
   104   52   53 1    
   105   52   54 1    
   106   52  175 1    
   107   53  176 1    
   108   53  177 1    
   109   53  178 1    
   110   54   55 am   BACKBONE|DICT|INTERRES
   111   54  179 1    
   112   55   56 2    
   113   55   57 1    
   114   57   58 1    
   115   57   59 1    
   116   57  180 1    
   117   58  181 1    
   118   58  182 1    
   119   58  183 1    
   120   59   60 am   BACKBONE|DICT|INTERRES
   121   59  184 1    
   122   60   61 2    
   123   60   62 1    
   124   62   63 1    
   125   62   64 1    
   126   62  185 1    
   127   63  186 1    
   128   63  187 1    
   129   63  188 1    
   130   64   65 am   BACKBONE|DICT|INTERRES
   131   64  189 1    
   132   65   66 2    
   133   67   68 2    
   134   67   69 am   BACKBONE|DICT|INTERRES
   135   69   70 1    
   136   69  190 1    
   137   70   71 1    
   138   70   72 1    
   139   70  191 1    
   140   71  192 1    
   141   71  193 1    
   142   71  194 1    
   143   72   73 2    
   144   72   74 am   BACKBONE|DICT|INTERRES
   145   74   75 1    
   146   74  195 1    
   147   75   76 1    
   148   75   77 1    
   149   75  196 1    
   150   76  197 1    
   151   76  198 1    
   152   76  199 1    
   153   77   78 2    
   154   77   79 am   BACKBONE|DICT|INTERRES
   155   79   80 1    
   156   79  200 1    
   157   80   81 1    
   158   80   82 1    
   159   80  201 1    
   160   81  202 1    
   161   81  203 1    
   162   81  204 1    
   163   82   83 2    
   164   82   84 am   BACKBONE|DICT|INTERRES
   165   84   85 1    
   166   84  205 1    
   167   85   86 1    
   168   85   87 1    
   169   85  206 1    
   170   86  207 1    
   171   86  208 1    
   172   86  209 1    
   173   87   88 2    
   174   87   89 am   BACKBONE|DICT|INTERRES
   175   89   90 1    
   176   89  210 1    
   177   90   91 1    
   178   90   92 1    
   179   90  211 1    
   180   91  212 1    
   181   91  213 1    
   182   91  214 1    
   183   92   93 2    
   184   92   94 am   BACKBONE|DICT|INTERRES
   185   94   95 1    
   186   94  215 1    
   187   95   96 1    
   188   95   97 1    
   189   95  216 1    
   190   96  217 1    
   191   96  218 1    
   192   96  219 1    
   193   97   98 2    
   194   97   99 am   BACKBONE|DICT|INTERRES
   195   99  100 1    
   196   99  220 1    
   197  100  101 1    
   198  100  102 1    
   199  100  221 1    
   200  101  222 1    
   201  101  223 1    
   202  101  224 1    
   203  102  103 2    
   204  102  104 am   BACKBONE|DICT|INTERRES
   205  104  105 1    
   206  104  225 1    
   207  105  106 1    
   208  105  107 1    
   209  105  226 1    
   210  106  227 1    
   211  106  228 1    
   212  106  229 1    
   213  107  108 2    
   214  107  109 am   BACKBONE|DICT|INTERRES
   215  109  110 1    
   216  109  230 1    
   217  110  111 1    
   218  110  112 1    
   219  110  231 1    
   220  111  232 1    
   221  111  233 1    
   222  111  234 1    
   223  112  113 2    
   224  112  114 am   BACKBONE|DICT|INTERRES
   225  114  115 1    
   226  114  235 1    
   227  115  116 1    
   228  115  117 1    
   229  115  236 1    
   230  116  237 1    
   231  116  238 1    
   232  116  239 1    
   233  117  118 2    
   234  117  119 am   BACKBONE|DICT|INTERRES
   235  119  120 1    
   236  119  240 1    
   237  120  121 1    
   238  120  124 1    
   239  120  241 1    
   240  121  122 am   BACKBONE|DICT|INTERRES
   241  121  123 2    
   242  122  242 1    
   243  122  243 1    
   244  124  125 1    
   245  124  244 1    
   246  124  245 1    
   247  125  126 1    
   248  126  246 1    
   249  126  247 1    
@<TRIPOS>SUBSTRUCTURE
     1 UNK         1 GROUP             0       ****    0 ROOT    
