@<TRIPOS>MOLECULE
3R540
247   249    1
SMALL
USER_CHARGES


@<TRIPOS>ATOM
      1 CA          3.5869  -10.2822  -48.9770 C.3       0 UNK        -0.1800 
      2 C           2.5732  -11.0878  -48.1790 C.2       0 UNK         0.5000 
      3 O           2.4897  -10.9304  -46.9619 O.2       0 UNK        -0.5000 
      4 N           1.7881  -11.9334  -48.8591 N.am      1 UNK        -0.5000 
      5 CA          0.7920  -12.8540  -48.2860 C.3       1 UNK         0.1400 
      6 C6          0.1658  -13.7586  -49.3745 C.3       23 UNK        -0.0398 
      7 S7          1.4055  -14.7746  -50.2491 S.3       23 UNK        -0.2404 
      8 C8          0.9208  -16.4466  -49.7109 C.3       23 UNK        -0.0205 
      9 C9          1.5678  -17.5602  -50.5252 C.ar      23 UNK        -0.0193 
     10 C10         1.5780  -17.5097  -51.9239 C.ar      23 UNK        -0.1150 
     11 C11         2.0917  -18.5707  -52.6743 C.ar      23 UNK        -0.0193 
     12 C12         2.6080  -19.6886  -52.0142 C.ar      23 UNK        -0.1150 
     13 C13         2.6093  -19.7523  -50.6177 C.ar      23 UNK        -0.0193 
     14 C14         2.0932  -18.6835  -49.8782 C.ar      23 UNK        -0.1150 
     15 C15         3.1610  -20.9837  -49.9161 C.3       23 UNK        -0.0205 
     16 S16         1.8786  -22.2580  -49.7001 S.3       23 UNK        -0.2404 
     17 C17         0.9584  -21.6176  -48.2602 C.3       23 UNK        -0.0398 
     18 CA          0.4357  -22.7605  -47.3545 C.3       11 UNK         0.1400 
     19 N           0.2902  -22.3514  -45.9560 N.am      11 UNK        -0.5000 
     20 C           0.0073  -23.1834  -44.9428 C.2       10 UNK         0.5000 
     21 O          -0.1043  -24.4024  -45.0689 O.2       10 UNK        -0.5000 
     22 CA         -0.2478  -22.5441  -43.5664 C.3       10 UNK         0.1400 
     23 CB          1.0755  -22.2599  -42.8414 C.3       10 UNK        -0.1800 
     24 N          -1.0455  -21.3196  -43.6555 N.am      10 UNK        -0.5000 
     25 C          -2.3080  -21.2754  -44.1063 C.2       9 UNK         0.5000 
     26 O          -2.9476  -22.2726  -44.4402 O.2       9 UNK        -0.5000 
     27 CA         -2.9527  -19.8858  -44.2528 C.3       9 UNK         0.1400 
     28 CB         -3.4802  -19.3863  -42.9000 C.3       9 UNK        -0.1800 
     29 N          -2.0442  -18.8917  -44.8248 N.am      9 UNK        -0.5000 
     30 C          -1.5086  -18.9611  -46.0522 C.2       8 UNK         0.5000 
     31 O          -1.7406  -19.8679  -46.8528 O.2       8 UNK        -0.5000 
     32 CA         -0.4907  -17.8657  -46.4207 C.3       8 UNK         0.1400 
     33 CB         -1.1804  -16.5187  -46.6927 C.3       8 UNK        -0.1800 
     34 N           0.5203  -17.6821  -45.3805 N.am      8 UNK        -0.5000 
     35 C           1.3675  -18.6304  -44.9570 C.2       7 UNK         0.5000 
     36 O           1.4357  -19.7567  -45.4453 O.2       7 UNK        -0.5000 
     37 CA          2.2507  -18.2764  -43.7503 C.3       7 UNK         0.1400 
     38 CB          3.4985  -17.5009  -44.1963 C.3       7 UNK        -0.1800 
     39 N           1.5135  -17.5065  -42.7477 N.am      7 UNK        -0.5000 
     40 C           0.5344  -18.0112  -41.9825 C.2       6 UNK         0.5000 
     41 O           0.1753  -19.1875  -42.0194 O.2       6 UNK        -0.5000 
     42 CA         -0.1948  -17.0252  -41.0521 C.3       6 UNK         0.1400 
     43 CB          0.6082  -16.7976  -39.7628 C.3       6 UNK        -0.1800 
     44 N          -0.4549  -15.7387  -41.6983 N.am      6 UNK        -0.5000 
     45 C          -1.2895  -15.5693  -42.7335 C.2       5 UNK         0.5000 
     46 O          -1.9658  -16.4750  -43.2194 O.2       5 UNK        -0.5000 
     47 CA         -1.3426  -14.1645  -43.3597 C.3       5 UNK         0.1400 
     48 CB         -2.4072  -13.2990  -42.6708 C.3       5 UNK        -0.1800 
     49 N          -0.0585  -13.4630  -43.3283 N.am      5 UNK        -0.5000 
     50 C           1.0578  -13.8620  -43.9512 C.2       4 UNK         0.5000 
     51 O           1.1465  -14.9272  -44.5650 O.2       4 UNK        -0.5000 
     52 CA          2.2642  -12.9040  -43.8695 C.3       4 UNK         0.1400 
     53 CB          3.4519  -13.3706  -44.7297 C.3       4 UNK        -0.1800 
     54 N           1.8992  -11.5484  -44.2781 N.am      4 UNK        -0.5000 
     55 C           1.2984  -10.6284  -43.5126 C.2       3 UNK         0.5000 
     56 O           0.9746  -10.8240  -42.3406 O.2       3 UNK        -0.5000 
     57 CA          0.9553   -9.2940  -44.1910 C.3       3 UNK         0.1400 
     58 CB          2.2184   -8.4468  -44.4132 C.3       3 UNK        -0.1800 
     59 N           0.2963   -9.5352  -45.4730 N.am      3 UNK        -0.5000 
     60 C          -1.0286   -9.6562  -45.6349 C.2       2 UNK         0.5000 
     61 O          -1.8470   -9.4954  -44.7289 O.2       2 UNK        -0.5000 
     62 CA         -1.5283  -10.0239  -47.0464 C.3       2 UNK         0.1400 
     63 CB         -1.8087   -8.7552  -47.8660 C.3       2 UNK        -0.1800 
     64 N          -0.5862  -10.8694  -47.7811 N.am      2 UNK        -0.5000 
     65 C          -0.3264  -12.1507  -47.4839 C.2       1 UNK         0.5000 
     66 O          -0.9238  -12.7767  -46.6095 O.2       1 UNK        -0.5000 
     67 C          -0.8698  -23.3672  -47.9039 C.2       11 UNK         0.5000 
     68 O          -0.8315  -24.4466  -48.4923 O.2       11 UNK        -0.5000 
     69 N          -2.0048  -22.6955  -47.6573 N.am      12 UNK        -0.5000 
     70 CA         -3.3384  -23.1670  -48.0349 C.3       12 UNK         0.1400 
     71 CB         -4.3802  -22.0795  -47.7437 C.3       12 UNK        -0.1800 
     72 C          -3.7249  -24.4967  -47.3664 C.2       12 UNK         0.5000 
     73 O          -4.2507  -25.3821  -48.0414 O.2       12 UNK        -0.5000 
     74 N          -3.4190  -24.6309  -46.0690 N.am      13 UNK        -0.5000 
     75 CA         -3.6219  -25.8538  -45.2925 C.3       13 UNK         0.1400 
     76 CB         -3.3498  -25.5711  -43.8074 C.3       13 UNK        -0.1800 
     77 C          -2.7636  -27.0306  -45.7936 C.2       13 UNK         0.5000 
     78 O          -3.2666  -28.1515  -45.8761 O.2       13 UNK        -0.5000 
     79 N          -1.4976  -26.7541  -46.1366 N.am      14 UNK        -0.5000 
     80 CA         -0.5576  -27.7277  -46.6922 C.3       14 UNK         0.1400 
     81 CB          0.8644  -27.1464  -46.6586 C.3       14 UNK        -0.1800 
     82 C          -0.9327  -28.1699  -48.1183 C.2       14 UNK         0.5000 
     83 O          -0.8733  -29.3632  -48.4184 O.2       14 UNK        -0.5000 
     84 N          -1.3138  -27.2063  -48.9675 N.am      15 UNK        -0.5000 
     85 CA         -1.7193  -27.4351  -50.3547 C.3       15 UNK         0.1400 
     86 CB         -1.7214  -26.0939  -51.1066 C.3       15 UNK        -0.1800 
     87 C          -3.0973  -28.1076  -50.4849 C.2       15 UNK         0.5000 
     88 O          -3.3253  -28.8182  -51.4647 O.2       15 UNK        -0.5000 
     89 N          -3.9898  -27.8413  -49.5182 N.am      16 UNK        -0.5000 
     90 CA         -5.4200  -28.1686  -49.5150 C.3       16 UNK         0.1400 
     91 CB         -5.6469  -29.6935  -49.4556 C.3       16 UNK        -0.1800 
     92 C          -6.1533  -27.4777  -50.6853 C.2       16 UNK         0.5000 
     93 O          -6.9767  -28.0936  -51.3652 O.2       16 UNK        -0.5000 
     94 N          -5.8023  -26.2076  -50.9134 N.am      17 UNK        -0.5000 
     95 CA         -6.2310  -25.3740  -52.0302 C.3       17 UNK         0.1400 
     96 CB         -5.4293  -25.7516  -53.2909 C.3       17 UNK        -0.1800 
     97 C          -6.0098  -23.9014  -51.6557 C.2       17 UNK         0.5000 
     98 O          -5.3992  -23.6144  -50.6235 O.2       17 UNK        -0.5000 
     99 N          -6.4749  -22.9832  -52.5112 N.am      18 UNK        -0.5000 
    100 CA        -6.4012  -21.5271  -52.3388 C.3       18 UNK         0.1400 
    101 CB        -7.4430  -20.8688  -53.2615 C.3       18 UNK        -0.1800 
    102 C         -4.9865  -20.9293  -52.5347 C.2       18 UNK         0.5000 
    103 O         -4.8431  -19.8603  -53.1319 O.2       18 UNK        -0.5000 
    104 N         -3.9561  -21.5948  -51.9973 N.am      19 UNK        -0.5000 
    105 CA        -2.5533  -21.1684  -52.0471 C.3       19 UNK         0.1400 
    106 CB        -1.6436  -22.3324  -51.6303 C.3       19 UNK        -0.1800 
    107 C         -2.2599  -19.9032  -51.2152 C.2       19 UNK         0.5000 
    108 O         -1.2119  -19.2935  -51.4053 O.2       19 UNK        -0.5000 
    109 N         -3.1990  -19.4990  -50.3463 N.am      20 UNK        -0.5000 
    110 CA        -3.1788  -18.2080  -49.6580 C.3       20 UNK         0.1400 
    111 CB        -4.2586  -18.1837  -48.5639 C.3       20 UNK        -0.1800 
    112 C         -3.3770  -17.0237  -50.6247 C.2       20 UNK         0.5000 
    113 O         -2.7801  -15.9673  -50.4177 O.2       20 UNK        -0.5000 
    114 N         -4.2022  -17.2290  -51.6618 N.am      21 UNK        -0.5000 
    115 CA        -4.3847  -16.2956  -52.7716 C.3       21 UNK         0.1400 
    116 CB        -5.8068  -16.4402  -53.3368 C.3       21 UNK        -0.1800 
    117 C         -3.3296  -16.5510  -53.8601 C.2       21 UNK         0.5000 
    118 O         -2.7322  -15.5996  -54.3636 O.2       21 UNK        -0.5000 
    119 N         -3.0998  -17.8354  -54.1708 N.am      22 UNK        -0.5000 
    120 CA        -2.0669  -18.3329  -55.0948 C.3       22 UNK         0.1400 
    121 C         -2.3311  -18.0206  -56.6012 C.2       22 UNK         0.5000 
    122 N         -3.5526  -17.6823  -56.9968 N.am      22 UNK        -0.7600 
    123 O         -1.4319  -18.1078  -57.4328 O.2       22 UNK        -0.5000 
    124 C124       -0.6336  -17.9557  -54.6191 C.3       23 UNK        -0.0398 
    125 S125        0.5977  -19.2693  -54.9138 S.3       23 UNK        -0.2404 
    126 C126        2.0914  -18.5121  -54.1957 C.3       23 UNK        -0.0205 
    127 H127        3.4005   -9.2158  -48.8506 H         1 UNK         0.0600 
    128 H128        3.5415  -10.5131  -50.0415 H         1 UNK         0.0600 
    129 H129        4.5954  -10.4974  -48.6241 H         1 UNK         0.0600 
    130 H130        1.9161  -12.0173  -49.8578 H         1 UNK         0.3000 
    131 H131        1.3205  -13.4953  -47.5771 H         1 UNK         0.0600 
    132 H132       -0.5948  -14.4117  -48.9427 H         1 UNK         0.0800 
    133 H133       -0.3555  -13.1531  -50.1181 H         1 UNK         0.0800 
    134 H134       -0.1603  -16.5604  -49.7958 H         1 UNK         0.0800 
    135 H135        1.1721  -16.5473  -48.6546 H         1 UNK         0.0800 
    136 H136        1.1618  -16.6511  -52.4309 H         1 UNK         0.1150 
    137 H137        2.9983  -20.5166  -52.5892 H         1 UNK         0.1150 
    138 H138        2.0795  -18.7391  -48.7989 H         1 UNK         0.1150 
    139 H139        3.9747  -21.4062  -50.5074 H         1 UNK         0.0800 
    140 H140        3.5984  -20.7166  -48.9530 H         1 UNK         0.0800 
    141 H141        0.1565  -20.9587  -48.6000 H         1 UNK         0.0800 
    142 H142        1.6400  -20.9872  -47.6910 H         1 UNK         0.0800 
    143 H143        1.1832  -23.5572  -47.3499 H         1 UNK         0.0600 
    144 H144        0.4174  -21.3633  -45.7559 H         1 UNK         0.3000 
    145 H145       -0.8114  -23.2628  -42.9680 H         1 UNK         0.0600 
    146 H146        0.8996  -21.8811  -41.8345 H         1 UNK         0.0600 
    147 H147        1.6712  -23.1687  -42.7471 H         1 UNK         0.0600 
    148 H148        1.6789  -21.5262  -43.3751 H         1 UNK         0.0600 
    149 H149       -0.6006  -20.4618  -43.3443 H         1 UNK         0.3000 
    150 H150       -3.8016  -19.9857  -44.9322 H         1 UNK         0.0600 
    151 H151       -4.1679  -20.1078  -42.4571 H         1 UNK         0.0600 
    152 H152       -4.0219  -18.4469  -43.0118 H         1 UNK         0.0600 
    153 H153       -2.6707  -19.2219  -42.1880 H         1 UNK         0.0600 
    154 H154       -1.8270  -18.0902  -44.2381 H         1 UNK         0.3000 
    155 H155        0.0227  -18.1833  -47.3297 H         1 UNK         0.0600 
    156 H156       -1.8035  -16.2051  -45.8566 H         1 UNK         0.0600 
    157 H157       -0.4502  -15.7292  -46.8703 H         1 UNK         0.0600 
    158 H158       -1.8230  -16.5670  -47.5694 H         1 UNK         0.0600 
    159 H159        0.5757  -16.7621  -44.9530 H         1 UNK         0.3000 
    160 H160        2.5804  -19.2087  -43.2873 H         1 UNK         0.0600 
    161 H161        4.1090  -18.1058  -44.8679 H         1 UNK         0.0600 
    162 H162        3.2373  -16.5883  -44.7311 H         1 UNK         0.0600 
    163 H163        4.1229  -17.2283  -43.3454 H         1 UNK         0.0600 
    164 H164        1.7056  -16.5169  -42.7039 H         1 UNK         0.3000 
    165 H165       -1.1549  -17.4702  -40.7821 H         1 UNK         0.0600 
    166 H166        0.0626  -16.1607  -39.0663 H         1 UNK         0.0600 
    167 H167        0.8028  -17.7424  -39.2533 H         1 UNK         0.0600 
    168 H168        1.5720  -16.3280  -39.9634 H         1 UNK         0.0600 
    169 H169        0.0616  -14.9399  -41.3609 H         1 UNK         0.3000 
    170 H170       -1.6273  -14.2822  -44.4066 H         1 UNK         0.0600 
    171 H171       -3.3834  -13.7848  -42.6984 H         1 UNK         0.0600 
    172 H172       -2.1605  -13.1129  -41.6248 H         1 UNK         0.0600 
    173 H173       -2.5106  -12.3343  -43.1688 H         1 UNK         0.0600 
    174 H174       -0.0324  -12.5722  -42.8456 H         1 UNK         0.3000 
    175 H175        2.5941  -12.8841  -42.8289 H         1 UNK         0.0600 
    176 H176        3.1725  -13.4802  -45.7783 H         1 UNK         0.0600 
    177 H177        4.2788  -12.6622  -44.6778 H         1 UNK         0.0600 
    178 H178        3.8309  -14.3322  -44.3844 H         1 UNK         0.0600 
    179 H179        2.1067  -11.3103  -45.2464 H         1 UNK         0.3000 
    180 H180        0.2898   -8.7361  -43.5287 H         1 UNK         0.0600 
    181 H181        2.9312   -8.9413  -45.0743 H         1 UNK         0.0600 
    182 H182        2.7275   -8.2519  -43.4685 H         1 UNK         0.0600 
    183 H183        1.9699   -7.4812  -44.8538 H         1 UNK         0.0600 
    184 H184        0.9039   -9.7517  -46.2538 H         1 UNK         0.3000 
    185 H185       -2.4662  -10.5721  -46.9342 H         1 UNK         0.0600 
    186 H186       -2.2291   -9.0005  -48.8415 H         1 UNK         0.0600 
    187 H187       -2.5273   -8.1122  -47.3560 H         1 UNK         0.0600 
    188 H188       -0.9020   -8.1707  -48.0274 H         1 UNK         0.0600 
    189 H189       -0.0559  -10.4302  -48.5194 H         1 UNK         0.3000 
    190 H190       -1.9509  -21.7970  -47.1853 H         1 UNK         0.3000 
    191 H191       -3.3294  -23.3454  -49.1094 H         1 UNK         0.0600 
    192 H192       -4.3968  -21.8032  -46.6897 H         1 UNK         0.0600 
    193 H193       -5.3821  -22.4159  -48.0139 H         1 UNK         0.0600 
    194 H194       -4.1735  -21.1834  -48.3236 H         1 UNK         0.0600 
    195 H195       -3.0345  -23.8317  -45.5721 H         1 UNK         0.3000 
    196 H196       -4.6703  -26.1413  -45.3956 H         1 UNK         0.0600 
    197 H197       -3.5209  -26.4621  -43.2022 H         1 UNK         0.0600 
    198 H198       -4.0074  -24.7885  -43.4286 H         1 UNK         0.0600 
    199 H199       -2.3209  -25.2521  -43.6399 H         1 UNK         0.0600 
    200 H200       -1.1430  -25.8138  -45.9884 H         1 UNK         0.3000 
    201 H201       -0.5736  -28.6139  -46.0543 H         1 UNK         0.0600 
    202 H202        1.1692  -26.9117  -45.6386 H         1 UNK         0.0600 
    203 H203        0.9405  -26.2318  -47.2477 H         1 UNK         0.0600 
    204 H204        1.5877  -27.8576  -47.0592 H         1 UNK         0.0600 
    205 H205       -1.2750  -26.2358  -48.6617 H         1 UNK         0.3000 
    206 H206       -0.9820  -28.0893  -50.8244 H         1 UNK         0.0600 
    207 H207       -0.7378  -25.6243  -51.0808 H         1 UNK         0.0600 
    208 H208       -1.9883  -26.2320  -52.1550 H         1 UNK         0.0600 
    209 H209       -2.4375  -25.3930  -50.6749 H         1 UNK         0.0600 
    210 H210       -3.7093  -27.1883  -48.7941 H         1 UNK         0.3000 
    211 H211       -5.8293  -27.7391  -48.5995 H         1 UNK         0.0600 
    212 H212       -5.3227  -30.1915  -50.3696 H         1 UNK         0.0600 
    213 H213       -6.7038  -29.9234  -49.3173 H         1 UNK         0.0600 
    214 H214       -5.1057  -30.1384  -48.6205 H         1 UNK         0.0600 
    215 H215       -5.1856  -25.7385  -50.2581 H         1 UNK         0.3000 
    216 H216       -7.2978  -25.5253  -52.2064 H         1 UNK         0.0600 
    217 H217       -5.7382  -25.1592  -54.1526 H         1 UNK         0.0600 
    218 H218       -5.5745  -26.7992  -53.5552 H         1 UNK         0.0600 
    219 H219       -4.3600  -25.5913  -53.1469 H         1 UNK         0.0600 
    220 H220       -6.9287  -23.3003  -53.3557 H         1 UNK         0.3000 
    221 H221       -6.6879  -21.2989  -51.3102 H         1 UNK         0.0600 
    222 H222       -7.2088  -21.0357  -54.3136 H         1 UNK         0.0600 
    223 H223       -8.4424  -21.2613  -53.0727 H         1 UNK         0.0600 
    224 H224       -7.4879  -19.7906  -53.1014 H         1 UNK         0.0600 
    225 H225       -4.1701  -22.4410  -51.4776 H         1 UNK         0.3000 
    226 H226       -2.3195  -20.9244  -53.0850 H         1 UNK         0.0600 
    227 H227       -1.8228  -23.2160  -52.2428 H         1 UNK         0.0600 
    228 H228       -0.5926  -22.0641  -51.7468 H         1 UNK         0.0600 
    229 H229       -1.7918  -22.6071  -50.5891 H         1 UNK         0.0600 
    230 H230       -4.0229  -20.0683  -50.2333 H         1 UNK         0.3000 
    231 H231       -2.1998  -18.1006  -49.1891 H         1 UNK         0.0600 
    232 H232       -4.2785  -17.2181  -48.0569 H         1 UNK         0.0600 
    233 H233       -4.0736  -18.9377  -47.8008 H         1 UNK         0.0600 
    234 H234       -5.2538  -18.3581  -48.9744 H         1 UNK         0.0600 
    235 H235       -4.6160  -18.1440  -51.7786 H         1 UNK         0.3000 
    236 H236       -4.2658  -15.2705  -52.4138 H         1 UNK         0.0600 
    237 H237       -6.5554  -16.2225  -52.5749 H         1 UNK         0.0600 
    238 H238       -5.9701  -15.7445  -54.1608 H         1 UNK         0.0600 
    239 H239       -5.9973  -17.4456  -53.7136 H         1 UNK         0.0600 
    240 H240       -3.6895  -18.5489  -53.7497 H         1 UNK         0.3000 
    241 H241       -2.1621  -19.4167  -55.0266 H         1 UNK         0.0600 
    242 H242       -3.7235  -17.4888  -57.9713 H         1 UNK         0.3800 
    243 H243       -4.3062  -17.6171  -56.3317 H         1 UNK         0.3800 
    244 H244       -0.2974  -17.0225  -55.0739 H         1 UNK         0.0800 
    245 H245       -0.6432  -17.7748  -53.5447 H         1 UNK         0.0800 
    246 H246        2.9675  -19.0362  -54.5803 H         1 UNK         0.0800 
    247 H247        2.1835  -17.4801  -54.5380 H         1 UNK         0.0800 
@<TRIPOS>BOND
     1    1    2 1    
     2    1  127 1    
     3    1  128 1    
     4    1  129 1    
     5    2    3 2    
     6    2    4 am   BACKBONE|DICT|INTERRES
     7    4    5 1    
     8    4  130 1    
     9    5    6 1    
    10    5   65 1    
    11    5  131 1    
    12    6    7 1    
    13    6  132 1    
    14    6  133 1    
    15    7    8 1    
    16    8    9 1    
    17    8  134 1    
    18    8  135 1    
    19    9   10 ar   
    20    9   14 ar   
    21   10   11 ar   
    22   10  136 1    
    23   11   12 ar   
    24   11  126 1    
    25   12   13 ar   
    26   12  137 1    
    27   13   14 ar   
    28   13   15 1    
    29   14  138 1    
    30   15   16 1    
    31   15  139 1    
    32   15  140 1    
    33   16   17 1    
    34   17   18 1    
    35   17  141 1    
    36   17  142 1    
    37   18   19 1    
    38   18   67 1    
    39   18  143 1    
    40   19   20 am   BACKBONE|DICT|INTERRES
    41   19  144 1    
    42   20   21 2    
    43   20   22 1    
    44   22   23 1    
    45   22   24 1    
    46   22  145 1    
    47   23  146 1    
    48   23  147 1    
    49   23  148 1    
    50   24   25 am   BACKBONE|DICT|INTERRES
    51   24  149 1    
    52   25   26 2    
    53   25   27 1    
    54   27   28 1    
    55   27   29 1    
    56   27  150 1    
    57   28  151 1    
    58   28  152 1    
    59   28  153 1    
    60   29   30 am   BACKBONE|DICT|INTERRES
    61   29  154 1    
    62   30   31 2    
    63   30   32 1    
    64   32   33 1    
    65   32   34 1    
    66   32  155 1    
    67   33  156 1    
    68   33  157 1    
    69   33  158 1    
    70   34   35 am   BACKBONE|DICT|INTERRES
    71   34  159 1    
    72   35   36 2    
    73   35   37 1    
    74   37   38 1    
    75   37   39 1    
    76   37  160 1    
    77   38  161 1    
    78   38  162 1    
    79   38  163 1    
    80   39   40 am   BACKBONE|DICT|INTERRES
    81   39  164 1    
    82   40   41 2    
    83   40   42 1    
    84   42   43 1    
    85   42   44 1    
    86   42  165 1    
    87   43  166 1    
    88   43  167 1    
    89   43  168 1    
    90   44   45 am   BACKBONE|DICT|INTERRES
    91   44  169 1    
    92   45   46 2    
    93   45   47 1    
    94   47   48 1    
    95   47   49 1    
    96   47  170 1    
    97   48  171 1    
    98   48  172 1    
    99   48  173 1    
   100   49   50 am   BACKBONE|DICT|INTERRES
   101   49  174 1    
   102   50   51 2    
   103   50   52 1    
   104   52   53 1    
   105   52   54 1    
   106   52  175 1    
   107   53  176 1    
   108   53  177 1    
   109   53  178 1    
   110   54   55 am   BACKBONE|DICT|INTERRES
   111   54  179 1    
   112   55   56 2    
   113   55   57 1    
   114   57   58 1    
   115   57   59 1    
   116   57  180 1    
   117   58  181 1    
   118   58  182 1    
   119   58  183 1    
   120   59   60 am   BACKBONE|DICT|INTERRES
   121   59  184 1    
   122   60   61 2    
   123   60   62 1    
   124   62   63 1    
   125   62   64 1    
   126   62  185 1    
   127   63  186 1    
   128   63  187 1    
   129   63  188 1    
   130   64   65 am   BACKBONE|DICT|INTERRES
   131   64  189 1    
   132   65   66 2    
   133   67   68 2    
   134   67   69 am   BACKBONE|DICT|INTERRES
   135   69   70 1    
   136   69  190 1    
   137   70   71 1    
   138   70   72 1    
   139   70  191 1    
   140   71  192 1    
   141   71  193 1    
   142   71  194 1    
   143   72   73 2    
   144   72   74 am   BACKBONE|DICT|INTERRES
   145   74   75 1    
   146   74  195 1    
   147   75   76 1    
   148   75   77 1    
   149   75  196 1    
   150   76  197 1    
   151   76  198 1    
   152   76  199 1    
   153   77   78 2    
   154   77   79 am   BACKBONE|DICT|INTERRES
   155   79   80 1    
   156   79  200 1    
   157   80   81 1    
   158   80   82 1    
   159   80  201 1    
   160   81  202 1    
   161   81  203 1    
   162   81  204 1    
   163   82   83 2    
   164   82   84 am   BACKBONE|DICT|INTERRES
   165   84   85 1    
   166   84  205 1    
   167   85   86 1    
   168   85   87 1    
   169   85  206 1    
   170   86  207 1    
   171   86  208 1    
   172   86  209 1    
   173   87   88 2    
   174   87   89 am   BACKBONE|DICT|INTERRES
   175   89   90 1    
   176   89  210 1    
   177   90   91 1    
   178   90   92 1    
   179   90  211 1    
   180   91  212 1    
   181   91  213 1    
   182   91  214 1    
   183   92   93 2    
   184   92   94 am   BACKBONE|DICT|INTERRES
   185   94   95 1    
   186   94  215 1    
   187   95   96 1    
   188   95   97 1    
   189   95  216 1    
   190   96  217 1    
   191   96  218 1    
   192   96  219 1    
   193   97   98 2    
   194   97   99 am   BACKBONE|DICT|INTERRES
   195   99  100 1    
   196   99  220 1    
   197  100  101 1    
   198  100  102 1    
   199  100  221 1    
   200  101  222 1    
   201  101  223 1    
   202  101  224 1    
   203  102  103 2    
   204  102  104 am   BACKBONE|DICT|INTERRES
   205  104  105 1    
   206  104  225 1    
   207  105  106 1    
   208  105  107 1    
   209  105  226 1    
   210  106  227 1    
   211  106  228 1    
   212  106  229 1    
   213  107  108 2    
   214  107  109 am   BACKBONE|DICT|INTERRES
   215  109  110 1    
   216  109  230 1    
   217  110  111 1    
   218  110  112 1    
   219  110  231 1    
   220  111  232 1    
   221  111  233 1    
   222  111  234 1    
   223  112  113 2    
   224  112  114 am   BACKBONE|DICT|INTERRES
   225  114  115 1    
   226  114  235 1    
   227  115  116 1    
   228  115  117 1    
   229  115  236 1    
   230  116  237 1    
   231  116  238 1    
   232  116  239 1    
   233  117  118 2    
   234  117  119 am   BACKBONE|DICT|INTERRES
   235  119  120 1    
   236  119  240 1    
   237  120  121 1    
   238  120  124 1    
   239  120  241 1    
   240  121  122 am   BACKBONE|DICT|INTERRES
   241  121  123 2    
   242  122  242 1    
   243  122  243 1    
   244  124  125 1    
   245  124  244 1    
   246  124  245 1    
   247  125  126 1    
   248  126  246 1    
   249  126  247 1    
@<TRIPOS>SUBSTRUCTURE
     1 UNK         1 GROUP             0       ****    0 ROOT    
