@<TRIPOS>MOLECULE
3R540
247   249    1
SMALL
USER_CHARGES


@<TRIPOS>ATOM
      1 CA         -0.2426  -12.8448  -42.6466 C.3       0 UNK        -0.1800 
      2 C          -0.5033  -13.2492  -44.0907 C.2       0 UNK         0.5000 
      3 O           0.2025  -14.1004  -44.6251 O.2       0 UNK        -0.5000 
      4 N          -1.5269  -12.6467  -44.7057 N.am      1 UNK        -0.5000 
      5 CA         -1.9746  -12.8572  -46.0899 C.3       1 UNK         0.1400 
      6 C6         -2.5136  -14.2965  -46.3317 C.3       23 UNK        -0.0398 
      7 S7         -3.8812  -14.7506  -45.2092 S.3       23 UNK        -0.2404 
      8 C8         -5.3304  -14.6013  -46.2989 C.3       23 UNK        -0.0205 
      9 C9         -5.3318  -15.6516  -47.3999 C.ar      23 UNK        -0.0193 
     10 C10        -5.0708  -15.2855  -48.7228 C.ar      23 UNK        -0.1150 
     11 C11        -5.0853  -16.2412  -49.7416 C.ar      23 UNK        -0.0193 
     12 C12        -5.3767  -17.5721  -49.4301 C.ar      23 UNK        -0.1150 
     13 C13        -5.6306  -17.9552  -48.1071 C.ar      23 UNK        -0.0193 
     14 C14        -5.6081  -16.9878  -47.0982 C.ar      23 UNK        -0.1150 
     15 C15        -5.9761  -19.3989  -47.7637 C.3       23 UNK        -0.0205 
     16 S16        -4.7980  -20.5991  -48.4569 S.3       23 UNK        -0.2404 
     17 C17        -3.3250  -20.3805  -47.4013 C.3       23 UNK        -0.0398 
     18 CA         -2.5804  -21.7266  -47.2290 C.3       11 UNK         0.1400 
     19 N          -1.1531  -21.5668  -46.9447 N.am      11 UNK        -0.5000 
     20 C          -0.2682  -22.5738  -47.0011 C.2       10 UNK         0.5000 
     21 O          -0.5591  -23.7226  -47.3332 O.2       10 UNK        -0.5000 
     22 CA          1.1736  -22.2659  -46.5690 C.3       10 UNK         0.1400 
     23 CB          1.9446  -21.5808  -47.7070 C.3       10 UNK        -0.1800 
     24 N           1.2324  -21.4535  -45.3537 N.am      10 UNK        -0.5000 
     25 C           0.7599  -21.8421  -44.1600 C.2       9 UNK         0.5000 
     26 O           0.2676  -22.9496  -43.9490 O.2       9 UNK        -0.5000 
     27 CA          0.7916  -20.8079  -43.0214 C.3       9 UNK         0.1400 
     28 CB          2.1936  -20.7173  -42.4027 C.3       9 UNK        -0.1800 
     29 N           0.3513  -19.4807  -43.4504 N.am      9 UNK        -0.5000 
     30 C          -0.8705  -19.1985  -43.9265 C.2       8 UNK         0.5000 
     31 O          -1.7760  -20.0256  -44.0355 O.2       8 UNK        -0.5000 
     32 CA         -1.1027  -17.7568  -44.4080 C.3       8 UNK         0.1400 
     33 CB         -1.3492  -16.8253  -43.2119 C.3       8 UNK        -0.1800 
     34 N           0.0110  -17.2582  -45.2175 N.am      8 UNK        -0.5000 
     35 C           0.3907  -17.7940  -46.3873 C.2       7 UNK         0.5000 
     36 O          -0.2027  -18.7230  -46.9383 O.2       7 UNK        -0.5000 
     37 CA          1.6806  -17.2388  -47.0170 C.3       7 UNK         0.1400 
     38 CB          1.4286  -15.8845  -47.6915 C.3       7 UNK        -0.1800 
     39 N           2.7630  -17.1073  -46.0403 N.am      7 UNK        -0.5000 
     40 C           3.3871  -18.1453  -45.4623 C.2       6 UNK         0.5000 
     41 O           3.1351  -19.3193  -45.7254 O.2       6 UNK        -0.5000 
     42 CA          4.4433  -17.8350  -44.3808 C.3       6 UNK         0.1400 
     43 CB          5.8329  -17.6817  -45.0162 C.3       6 UNK        -0.1800 
     44 N           4.1395  -16.6368  -43.6007 N.am      6 UNK        -0.5000 
     45 C           3.0164  -16.4409  -42.8988 C.2       5 UNK         0.5000 
     46 O           2.1742  -17.3195  -42.7096 O.2       5 UNK        -0.5000 
     47 CA          2.7562  -15.0238  -42.3525 C.3       5 UNK         0.1400 
     48 CB          2.9834  -14.9849  -40.8342 C.3       5 UNK        -0.1800 
     49 N           3.5083  -13.9205  -42.9696 N.am      5 UNK        -0.5000 
     50 C           3.6276  -13.6282  -44.2736 C.2       4 UNK         0.5000 
     51 O           3.2119  -14.3428  -45.1865 O.2       4 UNK        -0.5000 
     52 CA          4.3315  -12.2981  -44.6002 C.3       4 UNK         0.1400 
     53 CB          4.8881  -12.2694  -46.0346 C.3       4 UNK        -0.1800 
     54 N           3.4130  -11.1750  -44.4356 N.am      4 UNK        -0.5000 
     55 C           3.0200  -10.6321  -43.2792 C.2       3 UNK         0.5000 
     56 O           3.4341  -11.0087  -42.1819 O.2       3 UNK        -0.5000 
     57 CA          1.9854   -9.4867  -43.3460 C.3       3 UNK         0.1400 
     58 CB          2.6720   -8.1418  -43.6508 C.3       3 UNK        -0.1800 
     59 N           0.8411   -9.7183  -44.2449 N.am      3 UNK        -0.5000 
     60 C           0.8325   -9.8547  -45.5784 C.2       2 UNK         0.5000 
     61 O           1.8413   -9.8040  -46.2868 O.2       2 UNK        -0.5000 
     62 CA         -0.5297  -10.1074  -46.2405 C.3       2 UNK         0.1400 
     63 CB         -0.9744   -8.8741  -47.0416 C.3       2 UNK        -0.1800 
     64 N          -0.3595  -11.2311  -47.1577 N.am      2 UNK        -0.5000 
     65 C          -0.9112  -12.4539  -47.1502 C.2       1 UNK         0.5000 
     66 O          -0.5860  -13.2691  -48.0116 O.2       1 UNK        -0.5000 
     67 C          -3.2748  -22.6592  -46.2173 C.2       11 UNK         0.5000 
     68 O          -4.0217  -23.5439  -46.6328 O.2       11 UNK        -0.5000 
     69 N          -2.9804  -22.4874  -44.9217 N.am      12 UNK        -0.5000 
     70 CA         -3.4886  -23.3382  -43.8448 C.3       12 UNK         0.1400 
     71 CB         -3.0914  -22.7368  -42.4881 C.3       12 UNK        -0.1800 
     72 C          -3.0178  -24.8020  -43.9537 C.2       12 UNK         0.5000 
     73 O          -3.8071  -25.7117  -43.6958 O.2       12 UNK        -0.5000 
     74 N          -1.7493  -25.0009  -44.3347 N.am      13 UNK        -0.5000 
     75 CA         -1.1303  -26.3131  -44.4967 C.3       13 UNK         0.1400 
     76 CB          0.3995  -26.1617  -44.4996 C.3       13 UNK        -0.1800 
     77 C          -1.6064  -27.0521  -45.7594 C.2       13 UNK         0.5000 
     78 O          -2.0314  -28.2042  -45.6600 O.2       13 UNK        -0.5000 
     79 N          -1.4913  -26.4008  -46.9246 N.am      14 UNK        -0.5000 
     80 CA         -1.7071  -27.0345  -48.2267 C.3       14 UNK         0.1400 
     81 CB         -0.8473  -26.3231  -49.2837 C.3       14 UNK        -0.1800 
     82 C          -3.1781  -27.0520  -48.6720 C.2       14 UNK         0.5000 
     83 O          -3.5500  -27.9401  -49.4409 O.2       14 UNK        -0.5000 
     84 N          -3.9707  -26.0690  -48.2151 N.am      15 UNK        -0.5000 
     85 CA         -5.3204  -25.7347  -48.6897 C.3       15 UNK         0.1400 
     86 CB         -6.3081  -26.8910  -48.4192 C.3       15 UNK        -0.1800 
     87 C          -5.3209  -25.2744  -50.1659 C.2       15 UNK         0.5000 
     88 O          -4.2547  -25.0435  -50.7430 O.2       15 UNK        -0.5000 
     89 N          -6.5209  -25.1147  -50.7449 N.am      16 UNK        -0.5000 
     90 CA         -6.7822  -24.8066  -52.1589 C.3       16 UNK         0.1400 
     91 CB         -6.4949  -26.0524  -53.0234 C.3       16 UNK        -0.1800 
     92 C          -6.0396  -23.5517  -52.6678 C.2       16 UNK         0.5000 
     93 O          -5.3964  -23.5988  -53.7170 O.2       16 UNK        -0.5000 
     94 N          -6.1048  -22.4652  -51.8833 N.am      17 UNK        -0.5000 
     95 CA         -5.4077  -21.1909  -52.1027 C.3       17 UNK         0.1400 
     96 CB         -5.9621  -20.4639  -53.3465 C.3       17 UNK        -0.1800 
     97 C          -3.8730  -21.3599  -52.1354 C.2       17 UNK         0.5000 
     98 O          -3.2129  -20.8297  -53.0285 O.2       17 UNK        -0.5000 
     99 N          -3.3451  -22.1264  -51.1697 N.am      18 UNK        -0.5000 
    100 CA        -1.9376  -22.5082  -51.0087 C.3       18 UNK         0.1400 
    101 CB        -1.0655  -21.2737  -50.6910 C.3       18 UNK        -0.1800 
    102 C         -1.4268  -23.3200  -52.2142 C.2       18 UNK         0.5000 
    103 O         -0.3887  -22.9919  -52.7881 O.2       18 UNK        -0.5000 
    104 N         -2.2057  -24.3399  -52.6044 N.am      19 UNK        -0.5000 
    105 CA        -2.0374  -25.1620  -53.8086 C.3       19 UNK         0.1400 
    106 CB        -0.8144  -26.0911  -53.6671 C.3       19 UNK        -0.1800 
    107 C         -2.0084  -24.3026  -55.0927 C.2       19 UNK         0.5000 
    108 O         -1.1160  -24.4499  -55.9293 O.2       19 UNK        -0.5000 
    109 N         -2.9820  -23.3873  -55.1835 N.am      20 UNK        -0.5000 
    110 CA        -3.2142  -22.3810  -56.2217 C.3       20 UNK         0.1400 
    111 CB        -3.4261  -23.0421  -57.5989 C.3       20 UNK        -0.1800 
    112 C         -2.1812  -21.2350  -56.2853 C.2       20 UNK         0.5000 
    113 O         -2.3477  -20.3449  -57.1215 O.2       20 UNK        -0.5000 
    114 N         -1.1649  -21.2188  -55.4085 N.am      21 UNK        -0.5000 
    115 CA        -0.1268  -20.1810  -55.3700 C.3       21 UNK         0.1400 
    116 CB         1.0021  -20.6073  -54.4211 C.3       21 UNK        -0.1800 
    117 C         -0.6585  -18.7872  -54.9806 C.2       21 UNK         0.5000 
    118 O         -0.1121  -17.7832  -55.4396 O.2       21 UNK        -0.5000 
    119 N         -1.7223  -18.7533  -54.1702 N.am      22 UNK        -0.5000 
    120 CA        -2.4862  -17.5517  -53.8078 C.3       22 UNK         0.1400 
    121 C         -3.6847  -17.2748  -54.7699 C.2       22 UNK         0.5000 
    122 N         -3.8653  -18.0199  -55.8555 N.am      22 UNK        -0.7600 
    123 O         -4.4649  -16.3545  -54.5461 O.2       22 UNK        -0.5000 
    124 C124       -2.9050  -17.6011  -52.3108 C.3       23 UNK        -0.0398 
    125 S125       -3.0176  -15.9430  -51.5531 S.3       23 UNK        -0.2404 
    126 C126       -4.7945  -15.8221  -51.1743 C.3       23 UNK        -0.0205 
    127 H127       -0.8871  -12.0245  -42.3304 H         1 UNK         0.0600 
    128 H128        0.7923  -12.5274  -42.5250 H         1 UNK         0.0600 
    129 H129       -0.4220  -13.6913  -41.9839 H         1 UNK         0.0600 
    130 H130       -2.0927  -11.9999  -44.1755 H         1 UNK         0.3000 
    131 H131       -2.8107  -12.1735  -46.2441 H         1 UNK         0.0600 
    132 H132       -2.8455  -14.4076  -47.3634 H         1 UNK         0.0800 
    133 H133       -1.7179  -15.0315  -46.2028 H         1 UNK         0.0800 
    134 H134       -6.2346  -14.7119  -45.6987 H         1 UNK         0.0800 
    135 H135       -5.3646  -13.5947  -46.7185 H         1 UNK         0.0800 
    136 H136       -4.8523  -14.2541  -48.9621 H         1 UNK         0.1150 
    137 H137       -5.4023  -18.3113  -50.2173 H         1 UNK         0.1150 
    138 H138       -5.8125  -17.2692  -46.0746 H         1 UNK         0.1150 
    139 H139       -6.0409  -19.5445  -46.6843 H         1 UNK         0.0800 
    140 H140       -6.9675  -19.6174  -48.1622 H         1 UNK         0.0800 
    141 H141       -2.6822  -19.6495  -47.8939 H         1 UNK         0.0800 
    142 H142       -3.5954  -19.9448  -46.4376 H         1 UNK         0.0800 
    143 H143       -2.6236  -22.2436  -48.1878 H         1 UNK         0.0600 
    144 H144       -0.8309  -20.6378  -46.6912 H         1 UNK         0.3000 
    145 H145        1.6640  -23.2177  -46.3547 H         1 UNK         0.0600 
    146 H146        2.9967  -21.4578  -47.4505 H         1 UNK         0.0600 
    147 H147        1.9013  -22.1741  -48.6212 H         1 UNK         0.0600 
    148 H148        1.5379  -20.5954  -47.9352 H         1 UNK         0.0600 
    149 H149        1.6770  -20.5438  -45.4399 H         1 UNK         0.3000 
    150 H150        0.1014  -21.1467  -42.2462 H         1 UNK         0.0600 
    151 H151        2.2146  -20.0124  -41.5713 H         1 UNK         0.0600 
    152 H152        2.5121  -21.6866  -42.0173 H         1 UNK         0.0600 
    153 H153        2.9349  -20.3962  -43.1336 H         1 UNK         0.0600 
    154 H154        1.0246  -18.7244  -43.3592 H         1 UNK         0.3000 
    155 H155       -1.9990  -17.7536  -45.0321 H         1 UNK         0.0600 
    156 H156       -0.4580  -16.7070  -42.5955 H         1 UNK         0.0600 
    157 H157       -2.1436  -17.2122  -42.5725 H         1 UNK         0.0600 
    158 H158       -1.6611  -15.8373  -43.5429 H         1 UNK         0.0600 
    159 H159        0.5330  -16.4748  -44.8462 H         1 UNK         0.3000 
    160 H160        2.0023  -17.9429  -47.7873 H         1 UNK         0.0600 
    161 H161        1.1551  -15.1199  -46.9639 H         1 UNK         0.0600 
    162 H162        0.6177  -15.9513  -48.4180 H         1 UNK         0.0600 
    163 H163        2.3152  -15.5358  -48.2210 H         1 UNK         0.0600 
    164 H164        2.9951  -16.1614  -45.7446 H         1 UNK         0.3000 
    165 H165        4.4740  -18.6799  -43.6911 H         1 UNK         0.0600 
    166 H166        6.6020  -17.5435  -44.2561 H         1 UNK         0.0600 
    167 H167        6.0997  -18.5706  -45.5895 H         1 UNK         0.0600 
    168 H168        5.8724  -16.8286  -45.6949 H         1 UNK         0.0600 
    169 H169        4.7610  -15.8510  -43.7190 H         1 UNK         0.3000 
    170 H170        1.7009  -14.8296  -42.5354 H         1 UNK         0.0600 
    171 H171        2.4144  -15.7677  -40.3305 H         1 UNK         0.0600 
    172 H172        4.0349  -15.1289  -40.5833 H         1 UNK         0.0600 
    173 H173        2.6633  -14.0320  -40.4120 H         1 UNK         0.0600 
    174 H174        3.8545  -13.2236  -42.3221 H         1 UNK         0.3000 
    175 H175        5.1710  -12.1774  -43.9123 H         1 UNK         0.0600 
    176 H176        4.0924  -12.3364  -46.7781 H         1 UNK         0.0600 
    177 H177        5.4430  -11.3501  -46.2226 H         1 UNK         0.0600 
    178 H178        5.5707  -13.1027  -46.2061 H         1 UNK         0.0600 
    179 H179        2.9932  -10.8013  -45.2837 H         1 UNK         0.3000 
    180 H180        1.5551   -9.4076  -42.3462 H         1 UNK         0.0600 
    181 H181        3.1430   -8.1358  -44.6340 H         1 UNK         0.0600 
    182 H182        3.4505   -7.9283  -42.9173 H         1 UNK         0.0600 
    183 H183        1.9587   -7.3184  -43.6158 H         1 UNK         0.0600 
    184 H184       -0.0469   -9.7787  -43.7674 H         1 UNK         0.3000 
    185 H185       -1.2880  -10.2908  -45.4830 H         1 UNK         0.0600 
    186 H186       -1.0951   -8.0081  -46.3894 H         1 UNK         0.0600 
    187 H187       -0.2499   -8.6064  -47.8121 H         1 UNK         0.0600 
    188 H188       -1.9325   -9.0483  -47.5315 H         1 UNK         0.0600 
    189 H189        0.3680  -11.0693  -47.8393 H         1 UNK         0.3000 
    190 H190       -2.3799  -21.7133  -44.6479 H         1 UNK         0.3000 
    191 H191       -4.5786  -23.3369  -43.9091 H         1 UNK         0.0600 
    192 H192       -3.4888  -21.7283  -42.3727 H         1 UNK         0.0600 
    193 H193       -3.4810  -23.3371  -41.6651 H         1 UNK         0.0600 
    194 H194       -2.0086  -22.6837  -42.3730 H         1 UNK         0.0600 
    195 H195       -1.1452  -24.1942  -44.4631 H         1 UNK         0.3000 
    196 H196       -1.3995  -26.9253  -43.6332 H         1 UNK         0.0600 
    197 H197        0.8893  -27.1280  -44.6257 H         1 UNK         0.0600 
    198 H198        0.7536  -25.7382  -43.5596 H         1 UNK         0.0600 
    199 H199        0.7402  -25.5113  -45.3063 H         1 UNK         0.0600 
    200 H200       -1.1474  -25.4426  -46.9374 H         1 UNK         0.3000 
    201 H201       -1.3681  -28.0716  -48.1746 H         1 UNK         0.0600 
    202 H202        0.2060  -26.3200  -49.0032 H         1 UNK         0.0600 
    203 H203       -1.1607  -25.2895  -49.4251 H         1 UNK         0.0600 
    204 H204       -0.9270  -26.8211  -50.2506 H         1 UNK         0.0600 
    205 H205       -3.5683  -25.3821  -47.5880 H         1 UNK         0.3000 
    206 H206       -5.6503  -24.8780  -48.1027 H         1 UNK         0.0600 
    207 H207       -6.2058  -27.2640  -47.3999 H         1 UNK         0.0600 
    208 H208       -7.3418  -26.5650  -48.5354 H         1 UNK         0.0600 
    209 H209       -6.1529  -27.7293  -49.0989 H         1 UNK         0.0600 
    210 H210       -7.3432  -25.2880  -50.1840 H         1 UNK         0.3000 
    211 H211       -7.8471  -24.5851  -52.2411 H         1 UNK         0.0600 
    212 H212       -5.4380  -26.3212  -53.0049 H         1 UNK         0.0600 
    213 H213       -6.7721  -25.8813  -54.0643 H         1 UNK         0.0600 
    214 H214       -7.0645  -26.9137  -52.6747 H         1 UNK         0.0600 
    215 H215       -6.6410  -22.5322  -51.0296 H         1 UNK         0.3000 
    216 H216       -5.6306  -20.5624  -51.2414 H         1 UNK         0.0600 
    217 H217       -5.7387  -21.0011  -54.2680 H         1 UNK         0.0600 
    218 H218       -5.5325  -19.4665  -53.4412 H         1 UNK         0.0600 
    219 H219       -7.0434  -20.3443  -53.2828 H         1 UNK         0.0600 
    220 H220       -3.9867  -22.5690  -50.5276 H         1 UNK         0.3000 
    221 H221       -1.8917  -23.1783  -50.1509 H         1 UNK         0.0600 
    222 H222       -1.0067  -20.5876  -51.5360 H         1 UNK         0.0600 
    223 H223       -1.4574  -20.7168  -49.8411 H         1 UNK         0.0600 
    224 H224       -0.0468  -21.5720  -50.4413 H         1 UNK         0.0600 
    225 H225       -3.0329  -24.5417  -52.0447 H         1 UNK         0.3000 
    226 H226       -2.9260  -25.7911  -53.8783 H         1 UNK         0.0600 
    227 H227       -0.8886  -26.7038  -52.7690 H         1 UNK         0.0600 
    228 H228       -0.7405  -26.7701  -54.5173 H         1 UNK         0.0600 
    229 H229        0.1190  -25.5300  -53.6145 H         1 UNK         0.0600 
    230 H230       -3.6862  -23.3845  -54.4482 H         1 UNK         0.3000 
    231 H231       -4.1555  -21.9047  -55.9454 H         1 UNK         0.0600 
    232 H232       -2.5078  -23.4872  -57.9824 H         1 UNK         0.0600 
    233 H233       -3.7639  -22.3122  -58.3353 H         1 UNK         0.0600 
    234 H234       -4.1844  -23.8236  -57.5486 H         1 UNK         0.0600 
    235 H235       -1.1022  -21.9532  -54.7142 H         1 UNK         0.3000 
    236 H236        0.2931  -20.1021  -56.3749 H         1 UNK         0.0600 
    237 H237        1.3879  -21.5936  -54.6798 H         1 UNK         0.0600 
    238 H238        1.8366  -19.9069  -54.4707 H         1 UNK         0.0600 
    239 H239        0.6652  -20.6380  -53.3849 H         1 UNK         0.0600 
    240 H240       -2.1291  -19.6329  -53.8540 H         1 UNK         0.3000 
    241 H241       -1.8219  -16.6946  -53.9301 H         1 UNK         0.0600 
    242 H242       -4.6405  -17.8136  -56.4648 H         1 UNK         0.3800 
    243 H243       -3.2200  -18.7592  -56.1041 H         1 UNK         0.3800 
    244 H244       -3.8333  -18.1568  -52.1773 H         1 UNK         0.0800 
    245 H245       -2.1578  -18.1464  -51.7321 H         1 UNK         0.0800 
    246 H246       -5.3809  -16.4168  -51.8762 H         1 UNK         0.0800 
    247 H247       -5.1104  -14.7890  -51.3261 H         1 UNK         0.0800 
@<TRIPOS>BOND
     1    1    2 1    
     2    1  127 1    
     3    1  128 1    
     4    1  129 1    
     5    2    3 2    
     6    2    4 am   BACKBONE|DICT|INTERRES
     7    4    5 1    
     8    4  130 1    
     9    5    6 1    
    10    5   65 1    
    11    5  131 1    
    12    6    7 1    
    13    6  132 1    
    14    6  133 1    
    15    7    8 1    
    16    8    9 1    
    17    8  134 1    
    18    8  135 1    
    19    9   10 ar   
    20    9   14 ar   
    21   10   11 ar   
    22   10  136 1    
    23   11   12 ar   
    24   11  126 1    
    25   12   13 ar   
    26   12  137 1    
    27   13   14 ar   
    28   13   15 1    
    29   14  138 1    
    30   15   16 1    
    31   15  139 1    
    32   15  140 1    
    33   16   17 1    
    34   17   18 1    
    35   17  141 1    
    36   17  142 1    
    37   18   19 1    
    38   18   67 1    
    39   18  143 1    
    40   19   20 am   BACKBONE|DICT|INTERRES
    41   19  144 1    
    42   20   21 2    
    43   20   22 1    
    44   22   23 1    
    45   22   24 1    
    46   22  145 1    
    47   23  146 1    
    48   23  147 1    
    49   23  148 1    
    50   24   25 am   BACKBONE|DICT|INTERRES
    51   24  149 1    
    52   25   26 2    
    53   25   27 1    
    54   27   28 1    
    55   27   29 1    
    56   27  150 1    
    57   28  151 1    
    58   28  152 1    
    59   28  153 1    
    60   29   30 am   BACKBONE|DICT|INTERRES
    61   29  154 1    
    62   30   31 2    
    63   30   32 1    
    64   32   33 1    
    65   32   34 1    
    66   32  155 1    
    67   33  156 1    
    68   33  157 1    
    69   33  158 1    
    70   34   35 am   BACKBONE|DICT|INTERRES
    71   34  159 1    
    72   35   36 2    
    73   35   37 1    
    74   37   38 1    
    75   37   39 1    
    76   37  160 1    
    77   38  161 1    
    78   38  162 1    
    79   38  163 1    
    80   39   40 am   BACKBONE|DICT|INTERRES
    81   39  164 1    
    82   40   41 2    
    83   40   42 1    
    84   42   43 1    
    85   42   44 1    
    86   42  165 1    
    87   43  166 1    
    88   43  167 1    
    89   43  168 1    
    90   44   45 am   BACKBONE|DICT|INTERRES
    91   44  169 1    
    92   45   46 2    
    93   45   47 1    
    94   47   48 1    
    95   47   49 1    
    96   47  170 1    
    97   48  171 1    
    98   48  172 1    
    99   48  173 1    
   100   49   50 am   BACKBONE|DICT|INTERRES
   101   49  174 1    
   102   50   51 2    
   103   50   52 1    
   104   52   53 1    
   105   52   54 1    
   106   52  175 1    
   107   53  176 1    
   108   53  177 1    
   109   53  178 1    
   110   54   55 am   BACKBONE|DICT|INTERRES
   111   54  179 1    
   112   55   56 2    
   113   55   57 1    
   114   57   58 1    
   115   57   59 1    
   116   57  180 1    
   117   58  181 1    
   118   58  182 1    
   119   58  183 1    
   120   59   60 am   BACKBONE|DICT|INTERRES
   121   59  184 1    
   122   60   61 2    
   123   60   62 1    
   124   62   63 1    
   125   62   64 1    
   126   62  185 1    
   127   63  186 1    
   128   63  187 1    
   129   63  188 1    
   130   64   65 am   BACKBONE|DICT|INTERRES
   131   64  189 1    
   132   65   66 2    
   133   67   68 2    
   134   67   69 am   BACKBONE|DICT|INTERRES
   135   69   70 1    
   136   69  190 1    
   137   70   71 1    
   138   70   72 1    
   139   70  191 1    
   140   71  192 1    
   141   71  193 1    
   142   71  194 1    
   143   72   73 2    
   144   72   74 am   BACKBONE|DICT|INTERRES
   145   74   75 1    
   146   74  195 1    
   147   75   76 1    
   148   75   77 1    
   149   75  196 1    
   150   76  197 1    
   151   76  198 1    
   152   76  199 1    
   153   77   78 2    
   154   77   79 am   BACKBONE|DICT|INTERRES
   155   79   80 1    
   156   79  200 1    
   157   80   81 1    
   158   80   82 1    
   159   80  201 1    
   160   81  202 1    
   161   81  203 1    
   162   81  204 1    
   163   82   83 2    
   164   82   84 am   BACKBONE|DICT|INTERRES
   165   84   85 1    
   166   84  205 1    
   167   85   86 1    
   168   85   87 1    
   169   85  206 1    
   170   86  207 1    
   171   86  208 1    
   172   86  209 1    
   173   87   88 2    
   174   87   89 am   BACKBONE|DICT|INTERRES
   175   89   90 1    
   176   89  210 1    
   177   90   91 1    
   178   90   92 1    
   179   90  211 1    
   180   91  212 1    
   181   91  213 1    
   182   91  214 1    
   183   92   93 2    
   184   92   94 am   BACKBONE|DICT|INTERRES
   185   94   95 1    
   186   94  215 1    
   187   95   96 1    
   188   95   97 1    
   189   95  216 1    
   190   96  217 1    
   191   96  218 1    
   192   96  219 1    
   193   97   98 2    
   194   97   99 am   BACKBONE|DICT|INTERRES
   195   99  100 1    
   196   99  220 1    
   197  100  101 1    
   198  100  102 1    
   199  100  221 1    
   200  101  222 1    
   201  101  223 1    
   202  101  224 1    
   203  102  103 2    
   204  102  104 am   BACKBONE|DICT|INTERRES
   205  104  105 1    
   206  104  225 1    
   207  105  106 1    
   208  105  107 1    
   209  105  226 1    
   210  106  227 1    
   211  106  228 1    
   212  106  229 1    
   213  107  108 2    
   214  107  109 am   BACKBONE|DICT|INTERRES
   215  109  110 1    
   216  109  230 1    
   217  110  111 1    
   218  110  112 1    
   219  110  231 1    
   220  111  232 1    
   221  111  233 1    
   222  111  234 1    
   223  112  113 2    
   224  112  114 am   BACKBONE|DICT|INTERRES
   225  114  115 1    
   226  114  235 1    
   227  115  116 1    
   228  115  117 1    
   229  115  236 1    
   230  116  237 1    
   231  116  238 1    
   232  116  239 1    
   233  117  118 2    
   234  117  119 am   BACKBONE|DICT|INTERRES
   235  119  120 1    
   236  119  240 1    
   237  120  121 1    
   238  120  124 1    
   239  120  241 1    
   240  121  122 am   BACKBONE|DICT|INTERRES
   241  121  123 2    
   242  122  242 1    
   243  122  243 1    
   244  124  125 1    
   245  124  244 1    
   246  124  245 1    
   247  125  126 1    
   248  126  246 1    
   249  126  247 1    
@<TRIPOS>SUBSTRUCTURE
     1 UNK         1 GROUP             0       ****    0 ROOT    
