@<TRIPOS>MOLECULE
3R540
247   249    1
SMALL
USER_CHARGES


@<TRIPOS>ATOM
      1 CA          0.0327   -9.8405  -51.2657 C.3       0 UNK        -0.1800 
      2 C           0.1658  -10.1896  -49.7904 C.2       0 UNK         0.5000 
      3 O          -0.2500   -9.4083  -48.9336 O.2       0 UNK        -0.5000 
      4 N           0.7402  -11.3597  -49.4880 N.am      1 UNK        -0.5000 
      5 CA          0.9468  -11.9008  -48.1402 C.3       1 UNK         0.1400 
      6 C6          2.1558  -12.8761  -48.0664 C.3       23 UNK        -0.0398 
      7 S7          2.2870  -14.0691  -49.4425 S.3       23 UNK        -0.2404 
      8 C8          1.9723  -15.6488  -48.5946 C.3       23 UNK        -0.0205 
      9 C9          2.1752  -16.8239  -49.5382 C.ar      23 UNK        -0.0193 
     10 C10         1.3672  -16.9536  -50.6703 C.ar      23 UNK        -0.1150 
     11 C11         1.5402  -18.0199  -51.5545 C.ar      23 UNK        -0.0193 
     12 C12         2.5305  -18.9721  -51.2893 C.ar      23 UNK        -0.1150 
     13 C13         3.3498  -18.8557  -50.1613 C.ar      23 UNK        -0.0193 
     14 C14         3.1642  -17.7796  -49.2869 C.ar      23 UNK        -0.1150 
     15 C15         4.4539  -19.8746  -49.9007 C.3       23 UNK        -0.0205 
     16 S16         3.8259  -21.5785  -49.7458 S.3       23 UNK        -0.2404 
     17 C17         2.7295  -21.4353  -48.2972 C.3       23 UNK        -0.0398 
     18 CA          2.9190  -22.5841  -47.2747 C.3       11 UNK         0.1400 
     19 N           2.4003  -22.2173  -45.9571 N.am      11 UNK        -0.5000 
     20 C           2.7942  -22.7480  -44.7908 C.2       10 UNK         0.5000 
     21 O           3.7038  -23.5710  -44.6872 O.2       10 UNK        -0.5000 
     22 CA          2.0494  -22.2787  -43.5236 C.3       10 UNK         0.1400 
     23 CB          2.8689  -21.2095  -42.7852 C.3       10 UNK        -0.1800 
     24 N           0.7181  -21.7495  -43.8347 N.am      10 UNK        -0.5000 
     25 C          -0.3450  -22.5291  -44.0844 C.2       9 UNK         0.5000 
     26 O          -0.3343  -23.7476  -43.9218 O.2       9 UNK        -0.5000 
     27 CA         -1.6154  -21.8644  -44.6531 C.3       9 UNK         0.1400 
     28 CB         -2.6966  -21.7177  -43.5737 C.3       9 UNK        -0.1800 
     29 N          -1.3558  -20.5732  -45.3012 N.am      9 UNK        -0.5000 
     30 C          -0.6992  -20.4635  -46.4661 C.2       8 UNK         0.5000 
     31 O          -0.3144  -21.4482  -47.0963 O.2       8 UNK        -0.5000 
     32 CA         -0.3274  -19.0651  -46.9970 C.3       8 UNK         0.1400 
     33 CB         -0.6429  -18.9250  -48.4966 C.3       8 UNK        -0.1800 
     34 N          -0.8640  -17.9531  -46.2092 N.am      8 UNK        -0.5000 
     35 C          -2.1150  -17.4753  -46.1769 C.2       7 UNK         0.5000 
     36 O          -3.0317  -17.8820  -46.8896 O.2       7 UNK        -0.5000 
     37 CA         -2.3685  -16.3637  -45.1362 C.3       7 UNK         0.1400 
     38 CB         -3.8676  -16.0936  -44.8903 C.3       7 UNK        -0.1800 
     39 N          -1.6635  -16.6206  -43.8738 N.am      7 UNK        -0.5000 
     40 C          -1.8213  -17.6749  -43.0571 C.2       6 UNK         0.5000 
     41 O          -2.6675  -18.5496  -43.2337 O.2       6 UNK        -0.5000 
     42 CA         -0.8191  -17.7920  -41.8859 C.3       6 UNK         0.1400 
     43 CB         -0.7978  -19.1882  -41.2309 C.3       6 UNK        -0.1800 
     44 N           0.5377  -17.3854  -42.2659 N.am      6 UNK        -0.5000 
     45 C           1.2897  -17.8945  -43.2552 C.2       5 UNK         0.5000 
     46 O           0.9553  -18.8663  -43.9358 O.2       5 UNK        -0.5000 
     47 CA          2.6045  -17.1447  -43.5723 C.3       5 UNK         0.1400 
     48 CB          3.0946  -17.4076  -45.0132 C.3       5 UNK        -0.1800 
     49 N           2.5105  -15.6996  -43.3047 N.am      5 UNK        -0.5000 
     50 C           1.6244  -14.8508  -43.8466 C.2       4 UNK         0.5000 
     51 O           0.8276  -15.1670  -44.7321 O.2       4 UNK        -0.5000 
     52 CA          1.5806  -13.4296  -43.2531 C.3       4 UNK         0.1400 
     53 CB          2.4239  -12.4575  -44.0903 C.3       4 UNK        -0.1800 
     54 N           0.2107  -12.9217  -43.1767 N.am      4 UNK        -0.5000 
     55 C          -0.7951  -13.4625  -42.4785 C.2       3 UNK         0.5000 
     56 O          -0.6471  -14.4075  -41.7029 O.2       3 UNK        -0.5000 
     57 CA         -2.2125  -12.8952  -42.7136 C.3       3 UNK         0.1400 
     58 CB         -2.4682  -11.6514  -41.8418 C.3       3 UNK        -0.1800 
     59 N          -2.5469  -12.6495  -44.1275 N.am      3 UNK        -0.5000 
     60 C          -2.0073  -11.7575  -44.9687 C.2       2 UNK         0.5000 
     61 O          -1.1503  -10.9325  -44.6400 O.2       2 UNK        -0.5000 
     62 CA         -2.4772  -11.8104  -46.4340 C.3       2 UNK         0.1400 
     63 CB         -3.5492  -10.7444  -46.7030 C.3       2 UNK        -0.1800 
     64 N          -1.3341  -11.5748  -47.3126 N.am      2 UNK        -0.5000 
     65 C          -0.3594  -12.4644  -47.5351 C.2       1 UNK         0.5000 
     66 O          -0.4670  -13.6592  -47.2617 O.2       1 UNK        -0.5000 
     67 C           2.2659  -23.8965  -47.7537 C.2       11 UNK         0.5000 
     68 O           2.9755  -24.8305  -48.1305 O.2       11 UNK        -0.5000 
     69 N           0.9289  -23.9504  -47.7018 N.am      12 UNK        -0.5000 
     70 CA          0.1208  -25.0912  -48.1087 C.3       12 UNK         0.1400 
     71 CB         -0.2205  -24.9768  -49.6051 C.3       12 UNK        -0.1800 
     72 C          -1.1334  -25.1424  -47.2284 C.2       12 UNK         0.5000 
     73 O          -2.1152  -24.4521  -47.5104 O.2       12 UNK        -0.5000 
     74 N          -1.0860  -25.9656  -46.1740 N.am      13 UNK        -0.5000 
     75 CA         -2.1729  -26.1503  -45.2051 C.3       13 UNK         0.1400 
     76 CB         -1.6592  -26.9950  -44.0293 C.3       13 UNK        -0.1800 
     77 C          -3.4427  -26.7830  -45.8057 C.2       13 UNK         0.5000 
     78 O          -4.5365  -26.5479  -45.2933 O.2       13 UNK        -0.5000 
     79 N          -3.2793  -27.5574  -46.8873 N.am      14 UNK        -0.5000 
     80 CA         -4.3748  -28.1378  -47.6649 C.3       14 UNK         0.1400 
     81 CB         -3.8146  -29.2539  -48.5599 C.3       14 UNK        -0.1800 
     82 C          -5.1235  -27.0913  -48.5141 C.2       14 UNK         0.5000 
     83 O          -6.3070  -27.2800  -48.7976 O.2       14 UNK        -0.5000 
     84 N          -4.4249  -26.0168  -48.9058 N.am      15 UNK        -0.5000 
     85 CA         -4.9825  -24.8919  -49.6514 C.3       15 UNK         0.1400 
     86 CB         -3.8800  -24.2629  -50.5150 C.3       15 UNK        -0.1800 
     87 C          -5.5939  -23.8587  -48.6924 C.2       15 UNK         0.5000 
     88 O          -6.7483  -23.4717  -48.8722 O.2       15 UNK        -0.5000 
     89 N          -4.8057  -23.4555  -47.6833 N.am      16 UNK        -0.5000 
     90 CA         -5.1559  -22.5530  -46.5792 C.3       16 UNK         0.1400 
     91 CB         -6.2098  -23.2055  -45.6613 C.3       16 UNK        -0.1800 
     92 C          -5.5492  -21.1184  -47.0004 C.2       16 UNK         0.5000 
     93 O          -6.1810  -20.4073  -46.2172 O.2       16 UNK        -0.5000 
     94 N          -5.1623  -20.7079  -48.2120 N.am      17 UNK        -0.5000 
     95 CA         -5.3990  -19.3865  -48.7783 C.3       17 UNK         0.1400 
     96 CB         -6.8331  -19.2911  -49.3285 C.3       17 UNK        -0.1800 
     97 C          -4.3810  -19.1720  -49.8998 C.2       17 UNK         0.5000 
     98 O          -4.1159  -20.1114  -50.6533 O.2       17 UNK        -0.5000 
     99 N          -3.8570  -17.9463  -50.0236 N.am      18 UNK        -0.5000 
    100 CA        -2.8590  -17.5582  -51.0262 C.3       18 UNK         0.1400 
    101 CB        -2.4193  -16.1084  -50.7725 C.3       18 UNK        -0.1800 
    102 C         -3.3419  -17.7392  -52.4760 C.2       18 UNK         0.5000 
    103 O         -2.5715  -18.1879  -53.3242 O.2       18 UNK        -0.5000 
    104 N         -4.6254  -17.4412  -52.7179 N.am      19 UNK        -0.5000 
    105 CA        -5.2899  -17.6103  -54.0119 C.3       19 UNK         0.1400 
    106 CB        -6.6785  -16.9561  -53.9476 C.3       19 UNK        -0.1800 
    107 C         -5.4076  -19.0818  -54.4573 C.2       19 UNK         0.5000 
    108 O         -5.4697  -19.3435  -55.6588 O.2       19 UNK        -0.5000 
    109 N         -5.4326  -20.0076  -53.4895 N.am      20 UNK        -0.5000 
    110 CA        -5.4369  -21.4473  -53.7250 C.3       20 UNK         0.1400 
    111 CB        -6.2642  -22.1401  -52.6301 C.3       20 UNK        -0.1800 
    112 C         -4.0013  -21.9955  -53.7868 C.2       20 UNK         0.5000 
    113 O         -3.6758  -22.7297  -54.7200 O.2       20 UNK        -0.5000 
    114 N         -3.1606  -21.6089  -52.8151 N.am      21 UNK        -0.5000 
    115 CA        -1.7774  -22.0683  -52.6531 C.3       21 UNK         0.1400 
    116 CB        -1.2130  -21.5222  -51.3306 C.3       21 UNK        -0.1800 
    117 C         -0.8573  -21.7110  -53.8362 C.2       21 UNK         0.5000 
    118 O          0.0103  -22.5108  -54.1886 O.2       21 UNK        -0.5000 
    119 N         -1.0886  -20.5410  -54.4417 N.am      22 UNK        -0.5000 
    120 CA        -0.4194  -20.0657  -55.6633 C.3       22 UNK         0.1400 
    121 C         -1.3115  -20.2230  -56.9320 C.2       22 UNK         0.5000 
    122 N         -2.4110  -20.9673  -56.8929 N.am      22 UNK        -0.7600 
    123 O         -0.9938  -19.6792  -57.9864 O.2       22 UNK        -0.5000 
    124 C124        0.1123  -18.6165  -55.4908 C.3       23 UNK        -0.0398 
    125 S125        1.5042  -18.5111  -54.3128 S.3       23 UNK        -0.2404 
    126 C126        0.6222  -18.1476  -52.7622 C.3       23 UNK        -0.0205 
    127 H127        0.4445  -10.6213  -51.9057 H         1 UNK         0.0600 
    128 H128        0.5605   -8.9113  -51.4804 H         1 UNK         0.0600 
    129 H129       -1.0172   -9.7058  -51.5258 H         1 UNK         0.0600 
    130 H130        1.0448  -11.9702  -50.2339 H         1 UNK         0.3000 
    131 H131        1.2131  -11.0618  -47.4930 H         1 UNK         0.0600 
    132 H132        2.1772  -13.4083  -47.1142 H         1 UNK         0.0800 
    133 H133        3.0748  -12.2888  -48.0812 H         1 UNK         0.0800 
    134 H134        2.6341  -15.7297  -47.7314 H         1 UNK         0.0800 
    135 H135        0.9516  -15.6683  -48.2103 H         1 UNK         0.0800 
    136 H136        0.6024  -16.2143  -50.8592 H         1 UNK         0.1150 
    137 H137        2.6667  -19.8065  -51.9628 H         1 UNK         0.1150 
    138 H138        3.7951  -17.6806  -48.4147 H         1 UNK         0.1150 
    139 H139        5.1658  -19.8373  -50.7263 H         1 UNK         0.0800 
    140 H140        5.0160  -19.6207  -49.0006 H         1 UNK         0.0800 
    141 H141        2.9309  -20.4815  -47.8078 H         1 UNK         0.0800 
    142 H142        1.7024  -21.3727  -48.6574 H         1 UNK         0.0800 
    143 H143        3.9914  -22.7640  -47.1683 H         1 UNK         0.0600 
    144 H144        1.5999  -21.6023  -45.9512 H         1 UNK         0.3000 
    145 H145        1.9434  -23.1380  -42.8580 H         1 UNK         0.0600 
    146 H146        2.3276  -20.8181  -41.9236 H         1 UNK         0.0600 
    147 H147        3.8077  -21.6266  -42.4191 H         1 UNK         0.0600 
    148 H148        3.1197  -20.3728  -43.4370 H         1 UNK         0.0600 
    149 H149        0.6447  -20.7414  -43.9512 H         1 UNK         0.3000 
    150 H150       -2.0045  -22.5423  -45.4149 H         1 UNK         0.0600 
    151 H151       -3.0111  -22.6954  -43.2069 H         1 UNK         0.0600 
    152 H152       -3.5824  -21.2140  -43.9611 H         1 UNK         0.0600 
    153 H153       -2.3387  -21.1508  -42.7161 H         1 UNK         0.0600 
    154 H154       -1.6411  -19.7391  -44.8025 H         1 UNK         0.3000 
    155 H155        0.7552  -18.9853  -46.8898 H         1 UNK         0.0600 
    156 H156       -0.5402  -17.8938  -48.8299 H         1 UNK         0.0600 
    157 H157       -1.6565  -19.2545  -48.7203 H         1 UNK         0.0600 
    158 H158        0.0335  -19.5336  -49.0974 H         1 UNK         0.0600 
    159 H159       -0.2096  -17.5557  -45.5479 H         1 UNK         0.3000 
    160 H160       -1.9302  -15.4540  -45.5499 H         1 UNK         0.0600 
    161 H161       -4.0158  -15.3373  -44.1205 H         1 UNK         0.0600 
    162 H162       -4.3519  -15.7357  -45.7995 H         1 UNK         0.0600 
    163 H163       -4.3947  -16.9952  -44.5761 H         1 UNK         0.0600 
    164 H164       -0.8891  -15.9949  -43.6853 H         1 UNK         0.3000 
    165 H165       -1.1572  -17.0813  -41.1306 H         1 UNK         0.0600 
    166 H166       -0.4639  -19.9578  -41.9254 H         1 UNK         0.0600 
    167 H167       -0.1285  -19.2064  -40.3710 H         1 UNK         0.0600 
    168 H168       -1.7887  -19.4711  -40.8742 H         1 UNK         0.0600 
    169 H169        0.8836  -16.5638  -41.7897 H         1 UNK         0.3000 
    170 H170        3.3550  -17.5417  -42.8875 H         1 UNK         0.0600 
    171 H171        2.3471  -17.1232  -45.7537 H         1 UNK         0.0600 
    172 H172        4.0076  -16.8525  -45.2280 H         1 UNK         0.0600 
    173 H173        3.3149  -18.4647  -45.1662 H         1 UNK         0.0600 
    174 H174        3.1284  -15.3532  -42.5834 H         1 UNK         0.3000 
    175 H175        1.9841  -13.4605  -42.2392 H         1 UNK         0.0600 
    176 H176        1.9872  -12.2966  -45.0752 H         1 UNK         0.0600 
    177 H177        2.5016  -11.4864  -43.6011 H         1 UNK         0.0600 
    178 H178        3.4382  -12.8328  -44.2322 H         1 UNK         0.0600 
    179 H179       -0.0264  -12.1483  -43.7917 H         1 UNK         0.3000 
    180 H180       -2.9085  -13.6677  -42.3823 H         1 UNK         0.0600 
    181 H181       -1.7868  -10.8345  -42.0803 H         1 UNK         0.0600 
    182 H182       -2.3337  -11.8857  -40.7851 H         1 UNK         0.0600 
    183 H183       -3.4874  -11.2857  -41.9662 H         1 UNK         0.0600 
    184 H184       -3.2417  -13.2772  -44.5050 H         1 UNK         0.3000 
    185 H185       -2.8969  -12.7957  -46.6486 H         1 UNK         0.0600 
    186 H186       -4.4242  -10.9025  -46.0714 H         1 UNK         0.0600 
    187 H187       -3.1765   -9.7388  -46.5032 H         1 UNK         0.0600 
    188 H188       -3.8854  -10.7770  -47.7395 H         1 UNK         0.0600 
    189 H189       -1.1623  -10.6142  -47.5908 H         1 UNK         0.3000 
    190 H190        0.4077  -23.1314  -47.3920 H         1 UNK         0.3000 
    191 H191        0.6776  -26.0181  -47.9553 H         1 UNK         0.0600 
    192 H192        0.6758  -25.0609  -50.2197 H         1 UNK         0.0600 
    193 H193       -0.9053  -25.7665  -49.9161 H         1 UNK         0.0600 
    194 H194       -0.6889  -24.0207  -49.8352 H         1 UNK         0.0600 
    195 H195       -0.2346  -26.4763  -45.9902 H         1 UNK         0.3000 
    196 H196       -2.4545  -25.1667  -44.8243 H         1 UNK         0.0600 
    197 H197       -2.4353  -27.1269  -43.2742 H         1 UNK         0.0600 
    198 H198       -0.8118  -26.5145  -43.5398 H         1 UNK         0.0600 
    199 H199       -1.3431  -27.9872  -44.3534 H         1 UNK         0.0600 
    200 H200       -2.3422  -27.7205  -47.2244 H         1 UNK         0.3000 
    201 H201       -5.0943  -28.5822  -46.9738 H         1 UNK         0.0600 
    202 H202       -3.3372  -30.0337  -47.9662 H         1 UNK         0.0600 
    203 H203       -3.0786  -28.8718  -49.2684 H         1 UNK         0.0600 
    204 H204       -4.6101  -29.7277  -49.1367 H         1 UNK         0.0600 
    205 H205       -3.4761  -25.9103  -48.5760 H         1 UNK         0.3000 
    206 H206       -5.7704  -25.2472  -50.3193 H         1 UNK         0.0600 
    207 H207       -3.4809  -24.9786  -51.2336 H         1 UNK         0.0600 
    208 H208       -4.2674  -23.4178  -51.0776 H         1 UNK         0.0600 
    209 H209       -3.0516  -23.8931  -49.9137 H         1 UNK         0.0600 
    210 H210       -3.8560  -23.8214  -47.6500 H         1 UNK         0.3000 
    211 H211       -4.2439  -22.4445  -45.9956 H         1 UNK         0.0600 
    212 H212       -7.1769  -23.2941  -46.1567 H         1 UNK         0.0600 
    213 H213       -6.3587  -22.6195  -44.7538 H         1 UNK         0.0600 
    214 H214       -5.8994  -24.2026  -45.3512 H         1 UNK         0.0600 
    215 H215       -4.6294  -21.3307  -48.8043 H         1 UNK         0.3000 
    216 H216       -5.2544  -18.6278  -48.0077 H         1 UNK         0.0600 
    217 H217       -7.5707  -19.4158  -48.5356 H         1 UNK         0.0600 
    218 H218       -7.0247  -20.0543  -50.0840 H         1 UNK         0.0600 
    219 H219       -7.0130  -18.3185  -49.7880 H         1 UNK         0.0600 
    220 H220       -4.1010  -17.2460  -49.3378 H         1 UNK         0.3000 
    221 H221       -1.9881  -18.2017  -50.8989 H         1 UNK         0.0600 
    222 H222       -1.6914  -15.7833  -51.5167 H         1 UNK         0.0600 
    223 H223       -3.2622  -15.4180  -50.8176 H         1 UNK         0.0600 
    224 H224       -1.9516  -16.0032  -49.7930 H         1 UNK         0.0600 
    225 H225       -5.1884  -17.0874  -51.9587 H         1 UNK         0.3000 
    226 H226       -4.6974  -17.0867  -54.7651 H         1 UNK         0.0600 
    227 H227       -7.1944  -17.0396  -54.9051 H         1 UNK         0.0600 
    228 H228       -7.3099  -17.4259  -53.1924 H         1 UNK         0.0600 
    229 H229       -6.6044  -15.8943  -53.7119 H         1 UNK         0.0600 
    230 H230       -5.3239  -19.7080  -52.5305 H         1 UNK         0.3000 
    231 H231       -5.9151  -21.6644  -54.6826 H         1 UNK         0.0600 
    232 H232       -6.2228  -23.2252  -52.7323 H         1 UNK         0.0600 
    233 H233       -7.3128  -21.8491  -52.6932 H         1 UNK         0.0600 
    234 H234       -5.9149  -21.8863  -51.6294 H         1 UNK         0.0600 
    235 H235       -3.5148  -21.0052  -52.0755 H         1 UNK         0.3000 
    236 H236       -1.8022  -23.1576  -52.5823 H         1 UNK         0.0600 
    237 H237       -1.7777  -21.8921  -50.4752 H         1 UNK         0.0600 
    238 H238       -0.1734  -21.8206  -51.1886 H         1 UNK         0.0600 
    239 H239       -1.2519  -20.4351  -51.2961 H         1 UNK         0.0600 
    240 H240       -1.8108  -19.9301  -54.0738 H         1 UNK         0.3000 
    241 H241        0.4468  -20.6971  -55.8673 H         1 UNK         0.0600 
    242 H242       -2.9734  -21.0560  -57.7241 H         1 UNK         0.3800 
    243 H243       -2.6769  -21.4707  -56.0558 H         1 UNK         0.3800 
    244 H244       -0.6883  -17.9395  -55.1907 H         1 UNK         0.0800 
    245 H245        0.4889  -18.2293  -56.4387 H         1 UNK         0.0800 
    246 H246        0.0415  -17.2346  -52.9007 H         1 UNK         0.0800 
    247 H247       -0.0902  -18.9420  -52.5572 H         1 UNK         0.0800 
@<TRIPOS>BOND
     1    1    2 1    
     2    1  127 1    
     3    1  128 1    
     4    1  129 1    
     5    2    3 2    
     6    2    4 am   BACKBONE|DICT|INTERRES
     7    4    5 1    
     8    4  130 1    
     9    5    6 1    
    10    5   65 1    
    11    5  131 1    
    12    6    7 1    
    13    6  132 1    
    14    6  133 1    
    15    7    8 1    
    16    8    9 1    
    17    8  134 1    
    18    8  135 1    
    19    9   10 ar   
    20    9   14 ar   
    21   10   11 ar   
    22   10  136 1    
    23   11   12 ar   
    24   11  126 1    
    25   12   13 ar   
    26   12  137 1    
    27   13   14 ar   
    28   13   15 1    
    29   14  138 1    
    30   15   16 1    
    31   15  139 1    
    32   15  140 1    
    33   16   17 1    
    34   17   18 1    
    35   17  141 1    
    36   17  142 1    
    37   18   19 1    
    38   18   67 1    
    39   18  143 1    
    40   19   20 am   BACKBONE|DICT|INTERRES
    41   19  144 1    
    42   20   21 2    
    43   20   22 1    
    44   22   23 1    
    45   22   24 1    
    46   22  145 1    
    47   23  146 1    
    48   23  147 1    
    49   23  148 1    
    50   24   25 am   BACKBONE|DICT|INTERRES
    51   24  149 1    
    52   25   26 2    
    53   25   27 1    
    54   27   28 1    
    55   27   29 1    
    56   27  150 1    
    57   28  151 1    
    58   28  152 1    
    59   28  153 1    
    60   29   30 am   BACKBONE|DICT|INTERRES
    61   29  154 1    
    62   30   31 2    
    63   30   32 1    
    64   32   33 1    
    65   32   34 1    
    66   32  155 1    
    67   33  156 1    
    68   33  157 1    
    69   33  158 1    
    70   34   35 am   BACKBONE|DICT|INTERRES
    71   34  159 1    
    72   35   36 2    
    73   35   37 1    
    74   37   38 1    
    75   37   39 1    
    76   37  160 1    
    77   38  161 1    
    78   38  162 1    
    79   38  163 1    
    80   39   40 am   BACKBONE|DICT|INTERRES
    81   39  164 1    
    82   40   41 2    
    83   40   42 1    
    84   42   43 1    
    85   42   44 1    
    86   42  165 1    
    87   43  166 1    
    88   43  167 1    
    89   43  168 1    
    90   44   45 am   BACKBONE|DICT|INTERRES
    91   44  169 1    
    92   45   46 2    
    93   45   47 1    
    94   47   48 1    
    95   47   49 1    
    96   47  170 1    
    97   48  171 1    
    98   48  172 1    
    99   48  173 1    
   100   49   50 am   BACKBONE|DICT|INTERRES
   101   49  174 1    
   102   50   51 2    
   103   50   52 1    
   104   52   53 1    
   105   52   54 1    
   106   52  175 1    
   107   53  176 1    
   108   53  177 1    
   109   53  178 1    
   110   54   55 am   BACKBONE|DICT|INTERRES
   111   54  179 1    
   112   55   56 2    
   113   55   57 1    
   114   57   58 1    
   115   57   59 1    
   116   57  180 1    
   117   58  181 1    
   118   58  182 1    
   119   58  183 1    
   120   59   60 am   BACKBONE|DICT|INTERRES
   121   59  184 1    
   122   60   61 2    
   123   60   62 1    
   124   62   63 1    
   125   62   64 1    
   126   62  185 1    
   127   63  186 1    
   128   63  187 1    
   129   63  188 1    
   130   64   65 am   BACKBONE|DICT|INTERRES
   131   64  189 1    
   132   65   66 2    
   133   67   68 2    
   134   67   69 am   BACKBONE|DICT|INTERRES
   135   69   70 1    
   136   69  190 1    
   137   70   71 1    
   138   70   72 1    
   139   70  191 1    
   140   71  192 1    
   141   71  193 1    
   142   71  194 1    
   143   72   73 2    
   144   72   74 am   BACKBONE|DICT|INTERRES
   145   74   75 1    
   146   74  195 1    
   147   75   76 1    
   148   75   77 1    
   149   75  196 1    
   150   76  197 1    
   151   76  198 1    
   152   76  199 1    
   153   77   78 2    
   154   77   79 am   BACKBONE|DICT|INTERRES
   155   79   80 1    
   156   79  200 1    
   157   80   81 1    
   158   80   82 1    
   159   80  201 1    
   160   81  202 1    
   161   81  203 1    
   162   81  204 1    
   163   82   83 2    
   164   82   84 am   BACKBONE|DICT|INTERRES
   165   84   85 1    
   166   84  205 1    
   167   85   86 1    
   168   85   87 1    
   169   85  206 1    
   170   86  207 1    
   171   86  208 1    
   172   86  209 1    
   173   87   88 2    
   174   87   89 am   BACKBONE|DICT|INTERRES
   175   89   90 1    
   176   89  210 1    
   177   90   91 1    
   178   90   92 1    
   179   90  211 1    
   180   91  212 1    
   181   91  213 1    
   182   91  214 1    
   183   92   93 2    
   184   92   94 am   BACKBONE|DICT|INTERRES
   185   94   95 1    
   186   94  215 1    
   187   95   96 1    
   188   95   97 1    
   189   95  216 1    
   190   96  217 1    
   191   96  218 1    
   192   96  219 1    
   193   97   98 2    
   194   97   99 am   BACKBONE|DICT|INTERRES
   195   99  100 1    
   196   99  220 1    
   197  100  101 1    
   198  100  102 1    
   199  100  221 1    
   200  101  222 1    
   201  101  223 1    
   202  101  224 1    
   203  102  103 2    
   204  102  104 am   BACKBONE|DICT|INTERRES
   205  104  105 1    
   206  104  225 1    
   207  105  106 1    
   208  105  107 1    
   209  105  226 1    
   210  106  227 1    
   211  106  228 1    
   212  106  229 1    
   213  107  108 2    
   214  107  109 am   BACKBONE|DICT|INTERRES
   215  109  110 1    
   216  109  230 1    
   217  110  111 1    
   218  110  112 1    
   219  110  231 1    
   220  111  232 1    
   221  111  233 1    
   222  111  234 1    
   223  112  113 2    
   224  112  114 am   BACKBONE|DICT|INTERRES
   225  114  115 1    
   226  114  235 1    
   227  115  116 1    
   228  115  117 1    
   229  115  236 1    
   230  116  237 1    
   231  116  238 1    
   232  116  239 1    
   233  117  118 2    
   234  117  119 am   BACKBONE|DICT|INTERRES
   235  119  120 1    
   236  119  240 1    
   237  120  121 1    
   238  120  124 1    
   239  120  241 1    
   240  121  122 am   BACKBONE|DICT|INTERRES
   241  121  123 2    
   242  122  242 1    
   243  122  243 1    
   244  124  125 1    
   245  124  244 1    
   246  124  245 1    
   247  125  126 1    
   248  126  246 1    
   249  126  247 1    
@<TRIPOS>SUBSTRUCTURE
     1 UNK         1 GROUP             0       ****    0 ROOT    
