@<TRIPOS>MOLECULE
3R540
247   249    1
SMALL
USER_CHARGES


@<TRIPOS>ATOM
      1 CA          5.2828  -15.2358  -50.7763 C.3       0 UNK        -0.1800 
      2 C           4.6339  -14.7521  -49.4877 C.2       0 UNK         0.5000 
      3 O           5.2698  -14.7726  -48.4329 O.2       0 UNK        -0.5000 
      4 N           3.3748  -14.3043  -49.5652 N.am      1 UNK        -0.5000 
      5 CA          2.5666  -13.8211  -48.4394 C.3       1 UNK         0.1400 
      6 C6          1.0490  -13.9947  -48.7043 C.3       23 UNK        -0.0398 
      7 S7          0.5559  -15.7450  -48.5920 S.3       23 UNK        -0.2404 
      8 C8         -0.3851  -15.9814  -50.1282 C.3       23 UNK        -0.0205 
      9 C9         -1.0890  -17.3291  -50.1165 C.ar      23 UNK        -0.0193 
     10 C10        -2.4123  -17.4294  -49.6758 C.ar      23 UNK        -0.1150 
     11 C11        -3.0500  -18.6723  -49.6263 C.ar      23 UNK        -0.0193 
     12 C12        -2.3550  -19.8173  -50.0196 C.ar      23 UNK        -0.1150 
     13 C13        -1.0358  -19.7316  -50.4712 C.ar      23 UNK        -0.0193 
     14 C14        -0.4113  -18.4808  -50.5279 C.ar      23 UNK        -0.1150 
     15 C15        -0.2969  -21.0043  -50.8693 C.3       23 UNK        -0.0205 
     16 S16         1.3514  -21.1803  -50.1045 S.3       23 UNK        -0.2404 
     17 C17         1.0109  -20.8701  -48.3375 C.3       23 UNK        -0.0398 
     18 CA          1.0646  -22.1306  -47.4460 C.3       11 UNK         0.1400 
     19 N           1.1854  -21.7649  -46.0361 N.am      11 UNK        -0.5000 
     20 C           1.4949  -22.6057  -45.0416 C.2       10 UNK         0.5000 
     21 O           1.7855  -23.7897  -45.2105 O.2       10 UNK        -0.5000 
     22 CA          1.4385  -22.0303  -43.6135 C.3       10 UNK         0.1400 
     23 CB          2.7423  -21.2948  -43.2694 C.3       10 UNK        -0.1800 
     24 N           0.3032  -21.1280  -43.4085 N.am      10 UNK        -0.5000 
     25 C          -0.9839  -21.4964  -43.4898 C.2       9 UNK         0.5000 
     26 O          -1.3542  -22.6474  -43.7177 O.2       9 UNK        -0.5000 
     27 CA         -2.0332  -20.3824  -43.3381 C.3       9 UNK         0.1400 
     28 CB         -2.2322  -20.0043  -41.8625 C.3       9 UNK        -0.1800 
     29 N          -1.6820  -19.1908  -44.1077 N.am      9 UNK        -0.5000 
     30 C          -1.6468  -19.1358  -45.4466 C.2       8 UNK         0.5000 
     31 O          -1.9344  -20.0780  -46.1816 O.2       8 UNK        -0.5000 
     32 CA         -1.1520  -17.8209  -46.0652 C.3       8 UNK         0.1400 
     33 CB         -2.2986  -16.8045  -46.1627 C.3       8 UNK        -0.1800 
     34 N          -0.0280  -17.2523  -45.3166 N.am      8 UNK        -0.5000 
     35 C           1.1812  -17.8317  -45.2648 C.2       7 UNK         0.5000 
     36 O           1.4486  -18.8961  -45.8198 O.2       7 UNK        -0.5000 
     37 CA          2.2720  -17.1456  -44.4292 C.3       7 UNK         0.1400 
     38 CB          2.9783  -16.0566  -45.2465 C.3       7 UNK        -0.1800 
     39 N           1.7924  -16.5792  -43.1710 N.am      7 UNK        -0.5000 
     40 C           1.2771  -17.2898  -42.1580 C.2       6 UNK         0.5000 
     41 O           1.0327  -18.4955  -42.2226 O.2       6 UNK        -0.5000 
     42 CA          0.9919  -16.5246  -40.8568 C.3       6 UNK         0.1400 
     43 CB          2.2972  -16.2753  -40.0850 C.3       6 UNK        -0.1800 
     44 N           0.3516  -15.2423  -41.1407 N.am      6 UNK        -0.5000 
     45 C          -0.9406  -14.9710  -40.9181 C.2       5 UNK         0.5000 
     46 O          -1.7182  -15.7434  -40.3559 O.2       5 UNK        -0.5000 
     47 CA         -1.4677  -13.6113  -41.4231 C.3       5 UNK         0.1400 
     48 CB         -1.4071  -12.5633  -40.3015 C.3       5 UNK        -0.1800 
     49 N          -0.7670  -13.0891  -42.6002 N.am      5 UNK        -0.5000 
     50 C          -0.6708  -13.7139  -43.7818 C.2       4 UNK         0.5000 
     51 O          -1.1472  -14.8233  -44.0134 O.2       4 UNK        -0.5000 
     52 CA          0.1399  -13.0091  -44.8823 C.3       4 UNK         0.1400 
     53 CB         -0.7622  -12.0414  -45.6623 C.3       4 UNK        -0.1800 
     54 N           1.3411  -12.2924  -44.4372 N.am      4 UNK        -0.5000 
     55 C           2.2998  -12.7402  -43.6121 C.2       3 UNK         0.5000 
     56 O           2.2315  -13.7967  -42.9800 O.2       3 UNK        -0.5000 
     57 CA          3.5744  -11.8837  -43.5584 C.3       3 UNK         0.1400 
     58 CB          4.6372  -12.4557  -42.6027 C.3       3 UNK        -0.1800 
     59 N           4.1261  -11.8282  -44.9102 N.am      3 UNK        -0.5000 
     60 C           4.3064  -10.7250  -45.6468 C.2       2 UNK         0.5000 
     61 O           4.1013   -9.5823  -45.2372 O.2       2 UNK        -0.5000 
     62 CA          4.7624  -10.9458  -47.1032 C.3       2 UNK         0.1400 
     63 CB          6.2956  -10.9719  -47.1928 C.3       2 UNK        -0.1800 
     64 N           4.2276  -12.1875  -47.6686 N.am      2 UNK        -0.5000 
     65 C           2.9506  -12.3825  -48.0227 C.2       1 UNK         0.5000 
     66 O           2.1032  -11.4889  -48.0091 O.2       1 UNK        -0.5000 
     67 C          -0.1390  -23.0678  -47.6743 C.2       11 UNK         0.5000 
     68 O           0.0359  -24.1543  -48.2281 O.2       11 UNK        -0.5000 
     69 N          -1.3288  -22.6663  -47.2007 N.am      12 UNK        -0.5000 
     70 CA         -2.5773  -23.4210  -47.3391 C.3       12 UNK         0.1400 
     71 CB         -3.7599  -22.5701  -46.8575 C.3       12 UNK        -0.1800 
     72 C          -2.5738  -24.7855  -46.6275 C.2       12 UNK         0.5000 
     73 O          -3.2732  -25.6931  -47.0728 O.2       12 UNK        -0.5000 
     74 N          -1.7644  -24.9385  -45.5711 N.am      13 UNK        -0.5000 
     75 CA         -1.5382  -26.2132  -44.8853 C.3       13 UNK         0.1400 
     76 CB         -0.6952  -25.9726  -43.6240 C.3       13 UNK        -0.1800 
     77 C          -0.8837  -27.2892  -45.7786 C.2       13 UNK         0.5000 
     78 O          -1.0792  -28.4779  -45.5213 O.2       13 UNK        -0.5000 
     79 N          -0.1385  -26.8628  -46.8079 N.am      14 UNK        -0.5000 
     80 CA          0.4899  -27.7341  -47.7983 C.3       14 UNK         0.1400 
     81 CB          1.9453  -27.2849  -48.0061 C.3       14 UNK        -0.1800 
     82 C          -0.2751  -27.7139  -49.1330 C.2       14 UNK         0.5000 
     83 O          -0.5049  -28.7735  -49.7167 O.2       14 UNK        -0.5000 
     84 N          -0.6366  -26.5137  -49.6047 N.am      15 UNK        -0.5000 
     85 CA         -1.1847  -26.2756  -50.9422 C.3       15 UNK         0.1400 
     86 CB         -0.7688  -24.8637  -51.3806 C.3       15 UNK        -0.1800 
     87 C          -2.7153  -26.4266  -51.0434 C.2       15 UNK         0.5000 
     88 O          -3.2337  -26.4000  -52.1604 O.2       15 UNK        -0.5000 
     89 N          -3.4005  -26.5579  -49.8979 N.am      16 UNK        -0.5000 
     90 CA         -4.8538  -26.4810  -49.6959 C.3       16 UNK         0.1400 
     91 CB         -5.6260  -27.4518  -50.6155 C.3       16 UNK        -0.1800 
     92 C          -5.3784  -25.0320  -49.7941 C.2       16 UNK         0.5000 
     93 O          -4.6290  -24.1065  -50.1149 O.2       16 UNK        -0.5000 
     94 N          -6.6646  -24.8483  -49.4730 N.am      17 UNK        -0.5000 
     95 CA         -7.3553  -23.5612  -49.5565 C.3       17 UNK         0.1400 
     96 CB         -8.6958  -23.6660  -48.8133 C.3       17 UNK        -0.1800 
     97 C          -7.5789  -23.1273  -51.0178 C.2       17 UNK         0.5000 
     98 O          -7.7723  -23.9818  -51.8864 O.2       17 UNK        -0.5000 
     99 N          -7.5773  -21.8057  -51.2445 N.am      18 UNK        -0.5000 
    100 CA        -7.7610  -21.1338  -52.5380 C.3       18 UNK         0.1400 
    101 CB        -9.1930  -21.3462  -53.0721 C.3       18 UNK        -0.1800 
    102 C         -6.6694  -21.4939  -53.5695 C.2       18 UNK         0.5000 
    103 O         -6.9589  -21.6282  -54.7606 O.2       18 UNK        -0.5000 
    104 N         -5.4240  -21.6408  -53.0955 N.am      19 UNK        -0.5000 
    105 CA        -4.2418  -22.0137  -53.8769 C.3       19 UNK         0.1400 
    106 CB        -3.1717  -22.5674  -52.9216 C.3       19 UNK        -0.1800 
    107 C         -3.7120  -20.8527  -54.7453 C.2       19 UNK         0.5000 
    108 O         -2.5743  -20.4122  -54.5690 O.2       19 UNK        -0.5000 
    109 N         -4.5649  -20.3690  -55.6579 N.am      20 UNK        -0.5000 
    110 CA        -4.3840  -19.2811  -56.6260 C.3       20 UNK         0.1400 
    111 CB        -3.2323  -19.5764  -57.6062 C.3       20 UNK        -0.1800 
    112 C         -4.2358  -17.8927  -55.9780 C.2       20 UNK         0.5000 
    113 O         -5.0444  -17.0065  -56.2560 O.2       20 UNK        -0.5000 
    114 N         -3.2399  -17.7383  -55.0977 N.am      21 UNK        -0.5000 
    115 CA        -2.8955  -16.5070  -54.3811 C.3       21 UNK         0.1400 
    116 CB        -1.5887  -16.7393  -53.6118 C.3       21 UNK        -0.1800 
    117 C         -4.0003  -15.9936  -53.4357 C.2       21 UNK         0.5000 
    118 O         -4.0536  -14.7930  -53.1656 O.2       21 UNK        -0.5000 
    119 N         -4.8715  -16.9010  -52.9840 N.am      22 UNK        -0.5000 
    120 CA        -6.0987  -16.6136  -52.2294 C.3       22 UNK         0.1400 
    121 C         -7.3805  -17.1324  -52.9467 C.2       22 UNK         0.5000 
    122 N         -7.3423  -17.4214  -54.2433 N.am      22 UNK        -0.7600 
    123 O         -8.4345  -17.2613  -52.3305 O.2       22 UNK        -0.5000 
    124 C124       -5.9849  -17.0519  -50.7459 C.3       23 UNK        -0.0398 
    125 S125       -5.6728  -18.8360  -50.4959 S.3       23 UNK        -0.2404 
    126 C126       -4.4789  -18.7993  -49.1243 C.3       23 UNK        -0.0205 
    127 H127        4.6035  -15.1600  -51.6258 H         1 UNK         0.0600 
    128 H128        5.5851  -16.2780  -50.6748 H         1 UNK         0.0600 
    129 H129        6.1699  -14.6417  -50.9953 H         1 UNK         0.0600 
    130 H130        2.9165  -14.2901  -50.4649 H         1 UNK         0.3000 
    131 H131        2.8102  -14.4349  -47.5726 H         1 UNK         0.0600 
    132 H132        0.4505  -13.4614  -47.9661 H         1 UNK         0.0800 
    133 H133        0.7745  -13.5767  -49.6740 H         1 UNK         0.0800 
    134 H134       -1.1156  -15.1787  -50.2401 H         1 UNK         0.0800 
    135 H135        0.2891  -15.9151  -50.9832 H         1 UNK         0.0800 
    136 H136       -2.9378  -16.5416  -49.3547 H         1 UNK         0.1150 
    137 H137       -2.8452  -20.7792  -49.9636 H         1 UNK         0.1150 
    138 H138        0.6125  -18.4067  -50.8664 H         1 UNK         0.1150 
    139 H139       -0.8865  -21.8789  -50.5975 H         1 UNK         0.0800 
    140 H140       -0.1920  -21.0269  -51.9548 H         1 UNK         0.0800 
    141 H141        0.0727  -20.3343  -48.1934 H         1 UNK         0.0800 
    142 H142        1.7878  -20.1747  -48.0196 H         1 UNK         0.0800 
    143 H143        1.9668  -22.6874  -47.7085 H         1 UNK         0.0600 
    144 H144        1.0263  -20.7864  -45.8127 H         1 UNK         0.3000 
    145 H145        1.3263  -22.8686  -42.9227 H         1 UNK         0.0600 
    146 H146        2.7351  -20.9414  -42.2381 H         1 UNK         0.0600 
    147 H147        3.6041  -21.9534  -43.3829 H         1 UNK         0.0600 
    148 H148        2.8999  -20.4317  -43.9167 H         1 UNK         0.0600 
    149 H149        0.5226  -20.1629  -43.1803 H         1 UNK         0.3000 
    150 H150       -2.9819  -20.7640  -43.7216 H         1 UNK         0.0600 
    151 H151       -2.5184  -20.8763  -41.2730 H         1 UNK         0.0600 
    152 H152       -3.0223  -19.2619  -41.7490 H         1 UNK         0.0600 
    153 H153       -1.3232  -19.5947  -41.4212 H         1 UNK         0.0600 
    154 H154       -1.3802  -18.3814  -43.5854 H         1 UNK         0.3000 
    155 H155       -0.8088  -18.0404  -47.0786 H         1 UNK         0.0600 
    156 H156       -2.7152  -16.5688  -45.1833 H         1 UNK         0.0600 
    157 H157       -1.9646  -15.8742  -46.6225 H         1 UNK         0.0600 
    158 H158       -3.1119  -17.1963  -46.7728 H         1 UNK         0.0600 
    159 H159       -0.2075  -16.3948  -44.8043 H         1 UNK         0.3000 
    160 H160        3.0142  -17.9063  -44.1790 H         1 UNK         0.0600 
    161 H161        3.8265  -15.6407  -44.7024 H         1 UNK         0.0600 
    162 H162        2.2981  -15.2405  -45.4825 H         1 UNK         0.0600 
    163 H163        3.3581  -16.4559  -46.1881 H         1 UNK         0.0600 
    164 H164        1.9594  -15.5847  -43.0394 H         1 UNK         0.3000 
    165 H165        0.3486  -17.1528  -40.2372 H         1 UNK         0.0600 
    166 H166        2.1002  -15.7876  -39.1302 H         1 UNK         0.0600 
    167 H167        2.8105  -17.2137  -39.8716 H         1 UNK         0.0600 
    168 H168        2.9859  -15.6425  -40.6468 H         1 UNK         0.0600 
    169 H169        0.9088  -14.5593  -41.6426 H         1 UNK         0.3000 
    170 H170       -2.5136  -13.7536  -41.7025 H         1 UNK         0.0600 
    171 H171       -0.3790  -12.3536  -40.0034 H         1 UNK         0.0600 
    172 H172       -1.8661  -11.6246  -40.6122 H         1 UNK         0.0600 
    173 H173       -1.9424  -12.9072  -39.4154 H         1 UNK         0.0600 
    174 H174       -0.3189  -12.1904  -42.4987 H         1 UNK         0.3000 
    175 H175        0.4736  -13.7847  -45.5726 H         1 UNK         0.0600 
    176 H176       -0.2359  -11.5974  -46.5070 H         1 UNK         0.0600 
    177 H177       -1.1204  -11.2285  -45.0294 H         1 UNK         0.0600 
    178 H178       -1.6366  -12.5575  -46.0615 H         1 UNK         0.0600 
    179 H179        1.5121  -11.4122  -44.9024 H         1 UNK         0.3000 
    180 H180        3.2892  -10.8905  -43.2060 H         1 UNK         0.0600 
    181 H181        4.9505  -13.4577  -42.8988 H         1 UNK         0.0600 
    182 H182        4.2536  -12.5179  -41.5836 H         1 UNK         0.0600 
    183 H183        5.5239  -11.8222  -42.5785 H         1 UNK         0.0600 
    184 H184        4.3038  -12.7206  -45.3480 H         1 UNK         0.3000 
    185 H185        4.3984  -10.1066  -47.6997 H         1 UNK         0.0600 
    186 H186        6.6278  -11.0664  -48.2268 H         1 UNK         0.0600 
    187 H187        6.7257  -10.0512  -46.7963 H         1 UNK         0.0600 
    188 H188        6.7188  -11.8031  -46.6274 H         1 UNK         0.0600 
    189 H189        4.8638  -12.9753  -47.7519 H         1 UNK         0.3000 
    190 H190       -1.4101  -21.7557  -46.7524 H         1 UNK         0.3000 
    191 H191       -2.7121  -23.6160  -48.4040 H         1 UNK         0.0600 
    192 H192       -3.8325  -21.6453  -47.4277 H         1 UNK         0.0600 
    193 H193       -4.7034  -23.1028  -46.9838 H         1 UNK         0.0600 
    194 H194       -3.6629  -22.3099  -45.8028 H         1 UNK         0.0600 
    195 H195       -1.2822  -24.1263  -45.2021 H         1 UNK         0.3000 
    196 H196       -2.5112  -26.5980  -44.5734 H         1 UNK         0.0600 
    197 H197       -0.5308  -26.9034  -43.0798 H         1 UNK         0.0600 
    198 H198       -1.1925  -25.2831  -42.9419 H         1 UNK         0.0600 
    199 H199        0.2830  -25.5580  -43.8671 H         1 UNK         0.0600 
    200 H200       -0.0453  -25.8654  -46.9597 H         1 UNK         0.3000 
    201 H201        0.5094  -28.7664  -47.4428 H         1 UNK         0.0600 
    202 H202        2.5143  -27.3597  -47.0793 H         1 UNK         0.0600 
    203 H203        2.0062  -26.2518  -48.3512 H         1 UNK         0.0600 
    204 H204        2.4458  -27.9099  -48.7469 H         1 UNK         0.0600 
    205 H205       -0.3963  -25.6805  -49.0706 H         1 UNK         0.3000 
    206 H206       -0.7390  -26.9884  -51.6392 H         1 UNK         0.0600 
    207 H207        0.3069  -24.7132  -51.2861 H         1 UNK         0.0600 
    208 H208       -1.0318  -24.6850  -52.4233 H         1 UNK         0.0600 
    209 H209       -1.2702  -24.1065  -50.7783 H         1 UNK         0.0600 
    210 H210       -2.8687  -26.5208  -49.0372 H         1 UNK         0.3000 
    211 H211       -5.0242  -26.8064  -48.6692 H         1 UNK         0.0600 
    212 H212       -5.6690  -27.0938  -51.6445 H         1 UNK         0.0600 
    213 H213       -6.6552  -27.5752  -50.2777 H         1 UNK         0.0600 
    214 H214       -5.1689  -28.4414  -50.6205 H         1 UNK         0.0600 
    215 H215       -7.2334  -25.6486  -49.2401 H         1 UNK         0.3000 
    216 H216       -6.7398  -22.8097  -49.0566 H         1 UNK         0.0600 
    217 H217       -9.2282  -22.7141  -48.8305 H         1 UNK         0.0600 
    218 H218       -8.5477  -23.9350  -47.7672 H         1 UNK         0.0600 
    219 H219       -9.3486  -24.4146  -49.2644 H         1 UNK         0.0600 
    220 H220       -7.4089  -21.1862  -50.4637 H         1 UNK         0.3000 
    221 H221       -7.6493  -20.0673  -52.3460 H         1 UNK         0.0600 
    222 H222       -9.3724  -22.3834  -53.3565 H         1 UNK         0.0600 
    223 H223       -9.9369  -21.0685  -52.3254 H         1 UNK         0.0600 
    224 H224       -9.3753  -20.7299  -53.9532 H         1 UNK         0.0600 
    225 H225       -5.2749  -21.5029  -52.1064 H         1 UNK         0.3000 
    226 H226       -4.5186  -22.8199  -54.5593 H         1 UNK         0.0600 
    227 H227       -3.5223  -23.4691  -52.4208 H         1 UNK         0.0600 
    228 H228       -2.2624  -22.8342  -53.4611 H         1 UNK         0.0600 
    229 H229       -2.9010  -21.8398  -52.1575 H         1 UNK         0.0600 
    230 H230       -5.4937  -20.7839  -55.6509 H         1 UNK         0.3000 
    231 H231       -5.3050  -19.2555  -57.2106 H         1 UNK         0.0600 
    232 H232       -2.2645  -19.6191  -57.1060 H         1 UNK         0.0600 
    233 H233       -3.1673  -18.8025  -58.3720 H         1 UNK         0.0600 
    234 H234       -3.3860  -20.5266  -58.1176 H         1 UNK         0.0600 
    235 H235       -2.6835  -18.5632  -54.8855 H         1 UNK         0.3000 
    236 H236       -2.7211  -15.7283  -55.1261 H         1 UNK         0.0600 
    237 H237       -0.7669  -16.9719  -54.2891 H         1 UNK         0.0600 
    238 H238       -1.3024  -15.8536  -53.0436 H         1 UNK         0.0600 
    239 H239       -1.6885  -17.5681  -52.9111 H         1 UNK         0.0600 
    240 H240       -4.7364  -17.8666  -53.2441 H         1 UNK         0.3000 
    241 H241       -6.2498  -15.5331  -52.2122 H         1 UNK         0.0600 
    242 H242       -6.5183  -17.2291  -54.7993 H         1 UNK         0.3800 
    243 H243       -8.1844  -17.7369  -54.6977 H         1 UNK         0.3800 
    244 H244       -5.1828  -16.4800  -50.2797 H         1 UNK         0.0800 
    245 H245       -6.8878  -16.7817  -50.1964 H         1 UNK         0.0800 
    246 H246       -4.5806  -19.7203  -48.5502 H         1 UNK         0.0800 
    247 H247       -4.7238  -17.9906  -48.4347 H         1 UNK         0.0800 
@<TRIPOS>BOND
     1    1    2 1    
     2    1  127 1    
     3    1  128 1    
     4    1  129 1    
     5    2    3 2    
     6    2    4 am   BACKBONE|DICT|INTERRES
     7    4    5 1    
     8    4  130 1    
     9    5    6 1    
    10    5   65 1    
    11    5  131 1    
    12    6    7 1    
    13    6  132 1    
    14    6  133 1    
    15    7    8 1    
    16    8    9 1    
    17    8  134 1    
    18    8  135 1    
    19    9   10 ar   
    20    9   14 ar   
    21   10   11 ar   
    22   10  136 1    
    23   11   12 ar   
    24   11  126 1    
    25   12   13 ar   
    26   12  137 1    
    27   13   14 ar   
    28   13   15 1    
    29   14  138 1    
    30   15   16 1    
    31   15  139 1    
    32   15  140 1    
    33   16   17 1    
    34   17   18 1    
    35   17  141 1    
    36   17  142 1    
    37   18   19 1    
    38   18   67 1    
    39   18  143 1    
    40   19   20 am   BACKBONE|DICT|INTERRES
    41   19  144 1    
    42   20   21 2    
    43   20   22 1    
    44   22   23 1    
    45   22   24 1    
    46   22  145 1    
    47   23  146 1    
    48   23  147 1    
    49   23  148 1    
    50   24   25 am   BACKBONE|DICT|INTERRES
    51   24  149 1    
    52   25   26 2    
    53   25   27 1    
    54   27   28 1    
    55   27   29 1    
    56   27  150 1    
    57   28  151 1    
    58   28  152 1    
    59   28  153 1    
    60   29   30 am   BACKBONE|DICT|INTERRES
    61   29  154 1    
    62   30   31 2    
    63   30   32 1    
    64   32   33 1    
    65   32   34 1    
    66   32  155 1    
    67   33  156 1    
    68   33  157 1    
    69   33  158 1    
    70   34   35 am   BACKBONE|DICT|INTERRES
    71   34  159 1    
    72   35   36 2    
    73   35   37 1    
    74   37   38 1    
    75   37   39 1    
    76   37  160 1    
    77   38  161 1    
    78   38  162 1    
    79   38  163 1    
    80   39   40 am   BACKBONE|DICT|INTERRES
    81   39  164 1    
    82   40   41 2    
    83   40   42 1    
    84   42   43 1    
    85   42   44 1    
    86   42  165 1    
    87   43  166 1    
    88   43  167 1    
    89   43  168 1    
    90   44   45 am   BACKBONE|DICT|INTERRES
    91   44  169 1    
    92   45   46 2    
    93   45   47 1    
    94   47   48 1    
    95   47   49 1    
    96   47  170 1    
    97   48  171 1    
    98   48  172 1    
    99   48  173 1    
   100   49   50 am   BACKBONE|DICT|INTERRES
   101   49  174 1    
   102   50   51 2    
   103   50   52 1    
   104   52   53 1    
   105   52   54 1    
   106   52  175 1    
   107   53  176 1    
   108   53  177 1    
   109   53  178 1    
   110   54   55 am   BACKBONE|DICT|INTERRES
   111   54  179 1    
   112   55   56 2    
   113   55   57 1    
   114   57   58 1    
   115   57   59 1    
   116   57  180 1    
   117   58  181 1    
   118   58  182 1    
   119   58  183 1    
   120   59   60 am   BACKBONE|DICT|INTERRES
   121   59  184 1    
   122   60   61 2    
   123   60   62 1    
   124   62   63 1    
   125   62   64 1    
   126   62  185 1    
   127   63  186 1    
   128   63  187 1    
   129   63  188 1    
   130   64   65 am   BACKBONE|DICT|INTERRES
   131   64  189 1    
   132   65   66 2    
   133   67   68 2    
   134   67   69 am   BACKBONE|DICT|INTERRES
   135   69   70 1    
   136   69  190 1    
   137   70   71 1    
   138   70   72 1    
   139   70  191 1    
   140   71  192 1    
   141   71  193 1    
   142   71  194 1    
   143   72   73 2    
   144   72   74 am   BACKBONE|DICT|INTERRES
   145   74   75 1    
   146   74  195 1    
   147   75   76 1    
   148   75   77 1    
   149   75  196 1    
   150   76  197 1    
   151   76  198 1    
   152   76  199 1    
   153   77   78 2    
   154   77   79 am   BACKBONE|DICT|INTERRES
   155   79   80 1    
   156   79  200 1    
   157   80   81 1    
   158   80   82 1    
   159   80  201 1    
   160   81  202 1    
   161   81  203 1    
   162   81  204 1    
   163   82   83 2    
   164   82   84 am   BACKBONE|DICT|INTERRES
   165   84   85 1    
   166   84  205 1    
   167   85   86 1    
   168   85   87 1    
   169   85  206 1    
   170   86  207 1    
   171   86  208 1    
   172   86  209 1    
   173   87   88 2    
   174   87   89 am   BACKBONE|DICT|INTERRES
   175   89   90 1    
   176   89  210 1    
   177   90   91 1    
   178   90   92 1    
   179   90  211 1    
   180   91  212 1    
   181   91  213 1    
   182   91  214 1    
   183   92   93 2    
   184   92   94 am   BACKBONE|DICT|INTERRES
   185   94   95 1    
   186   94  215 1    
   187   95   96 1    
   188   95   97 1    
   189   95  216 1    
   190   96  217 1    
   191   96  218 1    
   192   96  219 1    
   193   97   98 2    
   194   97   99 am   BACKBONE|DICT|INTERRES
   195   99  100 1    
   196   99  220 1    
   197  100  101 1    
   198  100  102 1    
   199  100  221 1    
   200  101  222 1    
   201  101  223 1    
   202  101  224 1    
   203  102  103 2    
   204  102  104 am   BACKBONE|DICT|INTERRES
   205  104  105 1    
   206  104  225 1    
   207  105  106 1    
   208  105  107 1    
   209  105  226 1    
   210  106  227 1    
   211  106  228 1    
   212  106  229 1    
   213  107  108 2    
   214  107  109 am   BACKBONE|DICT|INTERRES
   215  109  110 1    
   216  109  230 1    
   217  110  111 1    
   218  110  112 1    
   219  110  231 1    
   220  111  232 1    
   221  111  233 1    
   222  111  234 1    
   223  112  113 2    
   224  112  114 am   BACKBONE|DICT|INTERRES
   225  114  115 1    
   226  114  235 1    
   227  115  116 1    
   228  115  117 1    
   229  115  236 1    
   230  116  237 1    
   231  116  238 1    
   232  116  239 1    
   233  117  118 2    
   234  117  119 am   BACKBONE|DICT|INTERRES
   235  119  120 1    
   236  119  240 1    
   237  120  121 1    
   238  120  124 1    
   239  120  241 1    
   240  121  122 am   BACKBONE|DICT|INTERRES
   241  121  123 2    
   242  122  242 1    
   243  122  243 1    
   244  124  125 1    
   245  124  244 1    
   246  124  245 1    
   247  125  126 1    
   248  126  246 1    
   249  126  247 1    
@<TRIPOS>SUBSTRUCTURE
     1 UNK         1 GROUP             0       ****    0 ROOT    
