@<TRIPOS>MOLECULE
3R540
247   249    1
SMALL
USER_CHARGES


@<TRIPOS>ATOM
      1 CA         -1.3086  -16.2814  -43.1888 C.3       0 UNK        -0.1800 
      2 C          -2.0997  -15.0605  -42.7442 C.2       0 UNK         0.5000 
      3 O          -2.3767  -14.9069  -41.5549 O.2       0 UNK        -0.5000 
      4 N          -2.4609  -14.1925  -43.6983 N.am      1 UNK        -0.5000 
      5 CA         -3.2258  -12.9565  -43.4716 C.3       1 UNK         0.1400 
      6 C6         -3.7598  -12.3447  -44.7922 C.3       23 UNK        -0.0398 
      7 S7         -4.8454  -13.4915  -45.7060 S.3       23 UNK        -0.2404 
      8 C8         -3.6907  -14.1418  -46.9568 C.3       23 UNK        -0.0205 
      9 C9         -4.0478  -15.5582  -47.3829 C.ar      23 UNK        -0.0193 
     10 C10        -4.2574  -15.8608  -48.7310 C.ar      23 UNK        -0.1150 
     11 C11        -4.5275  -17.1718  -49.1371 C.ar      23 UNK        -0.0193 
     12 C12        -4.6080  -18.1824  -48.1698 C.ar      23 UNK        -0.1150 
     13 C13        -4.3837  -17.8965  -46.8202 C.ar      23 UNK        -0.0193 
     14 C14        -4.1125  -16.5819  -46.4338 C.ar      23 UNK        -0.1150 
     15 C15        -4.3818  -19.0091  -45.7832 C.3       23 UNK        -0.0205 
     16 S16        -2.6951  -19.2686  -45.1610 S.3       23 UNK        -0.2404 
     17 C17        -2.8138  -20.8749  -44.3124 C.3       23 UNK        -0.0398 
     18 CA         -2.5794  -22.0861  -45.2497 C.3       11 UNK         0.1400 
     19 N          -1.4149  -21.9396  -46.1351 N.am      11 UNK        -0.5000 
     20 C          -1.1237  -22.7695  -47.1474 C.2       10 UNK         0.5000 
     21 O          -1.8287  -23.7268  -47.4629 O.2       10 UNK        -0.5000 
     22 CA          0.1913  -22.5312  -47.9035 C.3       10 UNK         0.1400 
     23 CB         -0.0127  -21.5332  -49.0496 C.3       10 UNK        -0.1800 
     24 N           1.2405  -22.0518  -47.0078 N.am      10 UNK        -0.5000 
     25 C           1.9729  -22.8429  -46.2125 C.2       9 UNK         0.5000 
     26 O           1.8929  -24.0714  -46.2138 O.2       9 UNK        -0.5000 
     27 CA          2.9361  -22.1469  -45.2294 C.3       9 UNK         0.1400 
     28 CB          4.3098  -21.9329  -45.8818 C.3       9 UNK        -0.1800 
     29 N           2.4343  -20.8624  -44.7351 N.am      9 UNK        -0.5000 
     30 C           1.3454  -20.7177  -43.9677 C.2       8 UNK         0.5000 
     31 O           0.6657  -21.6615  -43.5653 O.2       8 UNK        -0.5000 
     32 CA          0.9097  -19.2786  -43.6297 C.3       8 UNK         0.1400 
     33 CB          1.5929  -18.8071  -42.3375 C.3       8 UNK        -0.1800 
     34 N           1.1370  -18.2814  -44.6830 N.am      8 UNK        -0.5000 
     35 C           0.7782  -18.3763  -45.9729 C.2       7 UNK         0.5000 
     36 O           0.3118  -19.3976  -46.4739 O.2       7 UNK        -0.5000 
     37 CA          0.9614  -17.1315  -46.8631 C.3       7 UNK         0.1400 
     38 CB         -0.4020  -16.5938  -47.3301 C.3       7 UNK        -0.1800 
     39 N           1.7077  -16.0422  -46.2273 N.am      7 UNK        -0.5000 
     40 C           3.0332  -16.0304  -46.0295 C.2       6 UNK         0.5000 
     41 O           3.7637  -16.9856  -46.2978 O.2       6 UNK        -0.5000 
     42 CA          3.6299  -14.7441  -45.4146 C.3       6 UNK         0.1400 
     43 CB          5.1145  -14.5463  -45.7843 C.3       6 UNK        -0.1800 
     44 N           2.8589  -13.5282  -45.7078 N.am      6 UNK        -0.5000 
     45 C           2.6020  -12.9970  -46.9149 C.2       5 UNK         0.5000 
     46 O           2.9457  -13.4999  -47.9847 O.2       5 UNK        -0.5000 
     47 CA          1.8468  -11.6577  -46.9161 C.3       5 UNK         0.1400 
     48 CB          0.3454  -11.8673  -46.6502 C.3       5 UNK        -0.1800 
     49 N           2.4075  -10.7425  -45.9215 N.am      5 UNK        -0.5000 
     50 C           3.5279  -10.0265  -46.1032 C.2       4 UNK         0.5000 
     51 O           4.1557   -9.9967  -47.1622 O.2       4 UNK        -0.5000 
     52 CA          4.0385   -9.2046  -44.9030 C.3       4 UNK         0.1400 
     53 CB          3.4637   -7.7804  -44.9449 C.3       4 UNK        -0.1800 
     54 N           3.7044   -9.8142  -43.6158 N.am      4 UNK        -0.5000 
     55 C           4.2811  -10.9171  -43.1162 C.2       3 UNK         0.5000 
     56 O           5.2311  -11.4926  -43.6456 O.2       3 UNK        -0.5000 
     57 CA          3.6705  -11.4899  -41.8203 C.3       3 UNK         0.1400 
     58 CB          4.4446  -10.9893  -40.5916 C.3       3 UNK        -0.1800 
     59 N           2.2489  -11.1626  -41.6609 N.am      3 UNK        -0.5000 
     60 C           1.2780  -11.6050  -42.4688 C.2       2 UNK         0.5000 
     61 O           1.4719  -12.3791  -43.4122 O.2       2 UNK        -0.5000 
     62 CA         -0.1216  -11.0238  -42.2365 C.3       2 UNK         0.1400 
     63 CB         -0.2159   -9.6082  -42.8401 C.3       2 UNK        -0.1800 
     64 N          -1.0894  -11.9078  -42.8714 N.am      2 UNK        -0.5000 
     65 C          -2.4152  -11.8987  -42.6921 C.2       1 UNK         0.5000 
     66 O          -3.0015  -11.1079  -41.9516 O.2       1 UNK        -0.5000 
     67 C          -2.5031  -23.3926  -44.4315 C.2       11 UNK         0.5000 
     68 O          -3.5137  -24.0788  -44.2835 O.2       11 UNK        -0.5000 
     69 N          -1.2921  -23.7501  -43.9779 N.am      12 UNK        -0.5000 
     70 CA         -0.9724  -25.0199  -43.3190 C.3       12 UNK         0.1400 
     71 CB          0.4633  -24.9542  -42.7769 C.3       12 UNK        -0.1800 
     72 C          -1.1484  -26.2503  -44.2339 C.2       12 UNK         0.5000 
     73 O          -1.4237  -27.3412  -43.7343 O.2       12 UNK        -0.5000 
     74 N          -1.0264  -26.0472  -45.5528 N.am      13 UNK        -0.5000 
     75 CA         -1.3063  -27.0348  -46.5980 C.3       13 UNK         0.1400 
     76 CB         -0.3339  -26.8062  -47.7687 C.3       13 UNK        -0.1800 
     77 C          -2.7777  -26.9920  -47.0702 C.2       13 UNK         0.5000 
     78 O          -3.1085  -27.6376  -48.0655 O.2       13 UNK        -0.5000 
     79 N          -3.6280  -26.2288  -46.3646 N.am      14 UNK        -0.5000 
     80 CA         -5.0604  -26.0150  -46.5936 C.3       14 UNK         0.1400 
     81 CB         -5.8450  -27.3382  -46.4661 C.3       14 UNK        -0.1800 
     82 C          -5.3834  -25.2483  -47.8933 C.2       14 UNK         0.5000 
     83 O          -6.5097  -25.3480  -48.3826 O.2       14 UNK        -0.5000 
     84 N          -4.4064  -24.4851  -48.4124 N.am      15 UNK        -0.5000 
     85 CA         -4.4526  -23.6868  -49.6415 C.3       15 UNK         0.1400 
     86 CB         -5.3358  -22.4387  -49.4436 C.3       15 UNK        -0.1800 
     87 C          -4.8567  -24.5354  -50.8638 C.2       15 UNK         0.5000 
     88 O          -5.8931  -24.2851  -51.4826 O.2       15 UNK        -0.5000 
     89 N          -4.0440  -25.5642  -51.1447 N.am      16 UNK        -0.5000 
     90 CA         -4.2251  -26.5474  -52.2148 C.3       16 UNK         0.1400 
     91 CB         -3.0381  -27.5241  -52.1953 C.3       16 UNK        -0.1800 
     92 C          -4.3903  -25.8940  -53.6017 C.2       16 UNK         0.5000 
     93 O          -3.4271  -25.3461  -54.1386 O.2       16 UNK        -0.5000 
     94 N          -5.6236  -25.9373  -54.1259 N.am      17 UNK        -0.5000 
     95 CA         -6.0824  -25.2759  -55.3533 C.3       17 UNK         0.1400 
     96 CB         -5.4467  -25.9173  -56.6049 C.3       17 UNK        -0.1800 
     97 C          -5.9633  -23.7342  -55.3015 C.2       17 UNK         0.5000 
     98 O          -5.7217  -23.0935  -56.3269 O.2       17 UNK        -0.5000 
     99 N          -6.1660  -23.1717  -54.0996 N.am      18 UNK        -0.5000 
    100 CA        -6.2006  -21.7491  -53.7610 C.3       18 UNK         0.1400 
    101 CB        -7.4884  -21.1005  -54.3166 C.3       18 UNK        -0.1800 
    102 C         -4.9015  -21.0290  -54.1662 C.2       18 UNK         0.5000 
    103 O         -3.8450  -21.3292  -53.6055 O.2       18 UNK        -0.5000 
    104 N         -4.9961  -20.1136  -55.1407 N.am      19 UNK        -0.5000 
    105 CA        -3.9124  -19.2769  -55.6600 C.3       19 UNK         0.1400 
    106 CB        -4.4837  -18.3313  -56.7268 C.3       19 UNK        -0.1800 
    107 C         -2.7035  -20.0532  -56.2191 C.2       19 UNK         0.5000 
    108 O         -1.6114  -19.4893  -56.2875 O.2       19 UNK        -0.5000 
    109 N         -2.8927  -21.3342  -56.5650 N.am      20 UNK        -0.5000 
    110 CA        -1.8161  -22.2588  -56.9226 C.3       20 UNK         0.1400 
    111 CB        -2.4319  -23.5729  -57.4178 C.3       20 UNK        -0.1800 
    112 C         -0.8367  -22.5317  -55.7606 C.2       20 UNK         0.5000 
    113 O          0.3330  -22.8177  -56.0209 O.2       20 UNK        -0.5000 
    114 N         -1.3195  -22.4244  -54.5147 N.am      21 UNK        -0.5000 
    115 CA        -0.5256  -22.5550  -53.2984 C.3       21 UNK         0.1400 
    116 CB        -1.2577  -23.4657  -52.2984 C.3       21 UNK        -0.1800 
    117 C         -0.2439  -21.1752  -52.6850 C.2       21 UNK         0.5000 
    118 O          0.9224  -20.8417  -52.4739 O.2       21 UNK        -0.5000 
    119 N         -1.3038  -20.4074  -52.3928 N.am      22 UNK        -0.5000 
    120 CA        -1.2245  -19.1344  -51.6509 C.3       22 UNK         0.1400 
    121 C         -1.1024  -17.8519  -52.5235 C.2       22 UNK         0.5000 
    122 N         -0.9864  -17.9410  -53.8411 N.am      22 UNK        -0.7600 
    123 O         -1.0818  -16.7449  -51.9930 O.2       22 UNK        -0.5000 
    124 C124       -2.3233  -19.0244  -50.5621 C.3       23 UNK        -0.0398 
    125 S125       -4.0436  -19.0786  -51.1744 S.3       23 UNK        -0.2404 
    126 C126       -4.7042  -17.4656  -50.6276 C.3       23 UNK        -0.0205 
    127 H127       -1.5962  -17.1557  -42.6046 H         1 UNK         0.0600 
    128 H128       -0.2427  -16.1070  -43.0456 H         1 UNK         0.0600 
    129 H129       -1.4842  -16.5119  -44.2385 H         1 UNK         0.0600 
    130 H130       -2.2216  -14.3878  -44.6574 H         1 UNK         0.3000 
    131 H131       -4.0872  -13.2150  -42.8517 H         1 UNK         0.0600 
    132 H132       -2.9396  -12.0202  -45.4355 H         1 UNK         0.0800 
    133 H133       -4.3458  -11.4484  -44.5804 H         1 UNK         0.0800 
    134 H134       -3.6852  -13.4645  -47.8122 H         1 UNK         0.0800 
    135 H135       -2.6722  -14.1518  -46.5691 H         1 UNK         0.0800 
    136 H136       -4.1893  -15.0756  -49.4710 H         1 UNK         0.1150 
    137 H137       -4.8130  -19.1999  -48.4698 H         1 UNK         0.1150 
    138 H138       -3.9281  -16.3612  -45.3919 H         1 UNK         0.1150 
    139 H139       -5.0439  -18.7489  -44.9563 H         1 UNK         0.0800 
    140 H140       -4.7599  -19.9371  -46.2146 H         1 UNK         0.0800 
    141 H141       -3.7886  -20.9495  -43.8271 H         1 UNK         0.0800 
    142 H142       -2.0765  -20.8670  -43.5081 H         1 UNK         0.0800 
    143 H143       -3.4543  -22.1680  -45.8986 H         1 UNK         0.0600 
    144 H144       -0.8207  -21.1333  -45.9785 H         1 UNK         0.3000 
    145 H145        0.5008  -23.4826  -48.3414 H         1 UNK         0.0600 
    146 H146        0.8897  -21.4383  -49.6534 H         1 UNK         0.0600 
    147 H147       -0.8165  -21.8603  -49.7086 H         1 UNK         0.0600 
    148 H148       -0.2757  -20.5413  -48.6850 H         1 UNK         0.0600 
    149 H149        1.2923  -21.0459  -46.8843 H         1 UNK         0.3000 
    150 H150        3.0647  -22.8098  -44.3710 H         1 UNK         0.0600 
    151 H151        4.7217  -22.8761  -46.2434 H         1 UNK         0.0600 
    152 H152        5.0244  -21.5189  -45.1703 H         1 UNK         0.0600 
    153 H153        4.2497  -21.2528  -46.7325 H         1 UNK         0.0600 
    154 H154        2.9219  -20.0317  -45.0381 H         1 UNK         0.3000 
    155 H155       -0.1655  -19.3055  -43.4487 H         1 UNK         0.0600 
    156 H156        1.4307  -19.5189  -41.5267 H         1 UNK         0.0600 
    157 H157        1.1976  -17.8474  -42.0055 H         1 UNK         0.0600 
    158 H158        2.6703  -18.6996  -42.4695 H         1 UNK         0.0600 
    159 H159        1.5372  -17.4059  -44.3839 H         1 UNK         0.3000 
    160 H160        1.5142  -17.4554  -47.7473 H         1 UNK         0.0600 
    161 H161       -0.9916  -16.2082  -46.4996 H         1 UNK         0.0600 
    162 H162       -0.9929  -17.3760  -47.8093 H         1 UNK         0.0600 
    163 H163       -0.2821  -15.7905  -48.0573 H         1 UNK         0.0600 
    164 H164        1.1850  -15.2153  -45.9810 H         1 UNK         0.3000 
    165 H165        3.5774  -14.8769  -44.3331 H         1 UNK         0.0600 
    166 H166        5.2568  -14.4751  -46.8630 H         1 UNK         0.0600 
    167 H167        5.5157  -13.6388  -45.3339 H         1 UNK         0.0600 
    168 H168        5.7227  -15.3785  -45.4282 H         1 UNK         0.0600 
    169 H169        2.4836  -13.0493  -44.8931 H         1 UNK         0.3000 
    170 H170        1.9506  -11.2106  -47.9073 H         1 UNK         0.0600 
    171 H171       -0.0973  -12.5073  -47.4146 H         1 UNK         0.0600 
    172 H172        0.1585  -12.3373  -45.6856 H         1 UNK         0.0600 
    173 H173       -0.1933  -10.9199  -46.6692 H         1 UNK         0.0600 
    174 H174        1.9807  -10.7508  -45.0075 H         1 UNK         0.3000 
    175 H175        5.1257   -9.1378  -44.9827 H         1 UNK         0.0600 
    176 H176        2.3766   -7.7810  -44.8537 H         1 UNK         0.0600 
    177 H177        3.8685   -7.1677  -44.1391 H         1 UNK         0.0600 
    178 H178        3.7141   -7.2860  -45.8845 H         1 UNK         0.0600 
    179 H179        2.9514   -9.3908  -43.0950 H         1 UNK         0.3000 
    180 H180        3.7647  -12.5770  -41.8661 H         1 UNK         0.0600 
    181 H181        4.3712   -9.9066  -40.4825 H         1 UNK         0.0600 
    182 H182        5.5034  -11.2405  -40.6683 H         1 UNK         0.0600 
    183 H183        4.0695  -11.4463  -39.6757 H         1 UNK         0.0600 
    184 H184        2.0154  -10.5271  -40.9111 H         1 UNK         0.3000 
    185 H185       -0.3163  -10.9897  -41.1627 H         1 UNK         0.0600 
    186 H186        0.5225   -8.9387  -42.3977 H         1 UNK         0.0600 
    187 H187       -0.0478   -9.6191  -43.9179 H         1 UNK         0.0600 
    188 H188       -1.1941   -9.1620  -42.6620 H         1 UNK         0.0600 
    189 H189       -0.6693  -12.6188  -43.4561 H         1 UNK         0.3000 
    190 H190       -0.5249  -23.0902  -44.0766 H         1 UNK         0.3000 
    191 H191       -1.6532  -25.1387  -42.4737 H         1 UNK         0.0600 
    192 H192        1.1883  -24.8073  -43.5782 H         1 UNK         0.0600 
    193 H193        0.5795  -24.1351  -42.0670 H         1 UNK         0.0600 
    194 H194        0.7289  -25.8754  -42.2568 H         1 UNK         0.0600 
    195 H195       -0.8169  -25.1131  -45.8773 H         1 UNK         0.3000 
    196 H196       -1.1252  -28.0373  -46.2056 H         1 UNK         0.0600 
    197 H197        0.7018  -26.8100  -47.4280 H         1 UNK         0.0600 
    198 H198       -0.5165  -25.8563  -48.2702 H         1 UNK         0.0600 
    199 H199       -0.4308  -27.5931  -48.5175 H         1 UNK         0.0600 
    200 H200       -3.2514  -25.7037  -45.5845 H         1 UNK         0.3000 
    201 H201       -5.3945  -25.3659  -45.7834 H         1 UNK         0.0600 
    202 H202       -6.9202  -27.1565  -46.4554 H         1 UNK         0.0600 
    203 H203       -5.5971  -27.8562  -45.5397 H         1 UNK         0.0600 
    204 H204       -5.6384  -28.0145  -47.2959 H         1 UNK         0.0600 
    205 H205       -3.5136  -24.4572  -47.9259 H         1 UNK         0.3000 
    206 H206       -3.4351  -23.3383  -49.8247 H         1 UNK         0.0600 
    207 H207       -4.9805  -21.8353  -48.6082 H         1 UNK         0.0600 
    208 H208       -6.3760  -22.7022  -49.2502 H         1 UNK         0.0600 
    209 H209       -5.3169  -21.8057  -50.3311 H         1 UNK         0.0600 
    210 H210       -3.2393  -25.7062  -50.5525 H         1 UNK         0.3000 
    211 H211       -5.1286  -27.1155  -51.9848 H         1 UNK         0.0600 
    212 H212       -2.9732  -28.0472  -51.2407 H         1 UNK         0.0600 
    213 H213       -3.1423  -28.2803  -52.9743 H         1 UNK         0.0600 
    214 H214       -2.0902  -27.0103  -52.3609 H         1 UNK         0.0600 
    215 H215       -6.3496  -26.3873  -53.5857 H         1 UNK         0.3000 
    216 H216       -7.1541  -25.4705  -55.4119 H         1 UNK         0.0600 
    217 H217       -5.8058  -25.4449  -57.5198 H         1 UNK         0.0600 
    218 H218       -4.3610  -25.8435  -56.6006 H         1 UNK         0.0600 
    219 H219       -5.7019  -26.9749  -56.6695 H         1 UNK         0.0600 
    220 H220       -6.2523  -23.7887  -53.2959 H         1 UNK         0.3000 
    221 H221       -6.2476  -21.6917  -52.6728 H         1 UNK         0.0600 
    222 H222       -7.5465  -21.1586  -55.4041 H         1 UNK         0.0600 
    223 H223       -8.3729  -21.5957  -53.9159 H         1 UNK         0.0600 
    224 H224       -7.5562  -20.0499  -54.0310 H         1 UNK         0.0600 
    225 H225       -5.9030  -19.9713  -55.5606 H         1 UNK         0.3000 
    226 H226       -3.5497  -18.6723  -54.8267 H         1 UNK         0.0600 
    227 H227       -5.2736  -17.7024  -56.3157 H         1 UNK         0.0600 
    228 H228       -3.7110  -17.6661  -57.1148 H         1 UNK         0.0600 
    229 H229       -4.8970  -18.8832  -57.5720 H         1 UNK         0.0600 
    230 H230       -3.8206  -21.7296  -56.4731 H         1 UNK         0.3000 
    231 H231       -1.2477  -21.8138  -57.7419 H         1 UNK         0.0600 
    232 H232       -1.6605  -24.2654  -57.7568 H         1 UNK         0.0600 
    233 H233       -3.1149  -23.4069  -58.2510 H         1 UNK         0.0600 
    234 H234       -2.9860  -24.0635  -56.6187 H         1 UNK         0.0600 
    235 H235       -2.2919  -22.1605  -54.3846 H         1 UNK         0.3000 
    236 H236        0.4366  -23.0215  -53.5198 H         1 UNK         0.0600 
    237 H237       -1.3676  -24.4722  -52.7004 H         1 UNK         0.0600 
    238 H238       -0.7008  -23.5553  -51.3656 H         1 UNK         0.0600 
    239 H239       -2.2539  -23.0919  -52.0607 H         1 UNK         0.0600 
    240 H240       -2.2372  -20.7205  -52.6446 H         1 UNK         0.3000 
    241 H241       -0.2866  -19.1417  -51.0923 H         1 UNK         0.0600 
    242 H242       -0.8900  -17.0948  -54.3788 H         1 UNK         0.3800 
    243 H243       -0.9868  -18.8304  -54.3200 H         1 UNK         0.3800 
    244 H244       -2.2206  -19.8483  -49.8572 H         1 UNK         0.0800 
    245 H245       -2.1628  -18.1248  -49.9670 H         1 UNK         0.0800 
    246 H246       -4.2204  -16.6893  -51.2228 H         1 UNK         0.0800 
    247 H247       -5.7671  -17.4235  -50.8676 H         1 UNK         0.0800 
@<TRIPOS>BOND
     1    1    2 1    
     2    1  127 1    
     3    1  128 1    
     4    1  129 1    
     5    2    3 2    
     6    2    4 am   BACKBONE|DICT|INTERRES
     7    4    5 1    
     8    4  130 1    
     9    5    6 1    
    10    5   65 1    
    11    5  131 1    
    12    6    7 1    
    13    6  132 1    
    14    6  133 1    
    15    7    8 1    
    16    8    9 1    
    17    8  134 1    
    18    8  135 1    
    19    9   10 ar   
    20    9   14 ar   
    21   10   11 ar   
    22   10  136 1    
    23   11   12 ar   
    24   11  126 1    
    25   12   13 ar   
    26   12  137 1    
    27   13   14 ar   
    28   13   15 1    
    29   14  138 1    
    30   15   16 1    
    31   15  139 1    
    32   15  140 1    
    33   16   17 1    
    34   17   18 1    
    35   17  141 1    
    36   17  142 1    
    37   18   19 1    
    38   18   67 1    
    39   18  143 1    
    40   19   20 am   BACKBONE|DICT|INTERRES
    41   19  144 1    
    42   20   21 2    
    43   20   22 1    
    44   22   23 1    
    45   22   24 1    
    46   22  145 1    
    47   23  146 1    
    48   23  147 1    
    49   23  148 1    
    50   24   25 am   BACKBONE|DICT|INTERRES
    51   24  149 1    
    52   25   26 2    
    53   25   27 1    
    54   27   28 1    
    55   27   29 1    
    56   27  150 1    
    57   28  151 1    
    58   28  152 1    
    59   28  153 1    
    60   29   30 am   BACKBONE|DICT|INTERRES
    61   29  154 1    
    62   30   31 2    
    63   30   32 1    
    64   32   33 1    
    65   32   34 1    
    66   32  155 1    
    67   33  156 1    
    68   33  157 1    
    69   33  158 1    
    70   34   35 am   BACKBONE|DICT|INTERRES
    71   34  159 1    
    72   35   36 2    
    73   35   37 1    
    74   37   38 1    
    75   37   39 1    
    76   37  160 1    
    77   38  161 1    
    78   38  162 1    
    79   38  163 1    
    80   39   40 am   BACKBONE|DICT|INTERRES
    81   39  164 1    
    82   40   41 2    
    83   40   42 1    
    84   42   43 1    
    85   42   44 1    
    86   42  165 1    
    87   43  166 1    
    88   43  167 1    
    89   43  168 1    
    90   44   45 am   BACKBONE|DICT|INTERRES
    91   44  169 1    
    92   45   46 2    
    93   45   47 1    
    94   47   48 1    
    95   47   49 1    
    96   47  170 1    
    97   48  171 1    
    98   48  172 1    
    99   48  173 1    
   100   49   50 am   BACKBONE|DICT|INTERRES
   101   49  174 1    
   102   50   51 2    
   103   50   52 1    
   104   52   53 1    
   105   52   54 1    
   106   52  175 1    
   107   53  176 1    
   108   53  177 1    
   109   53  178 1    
   110   54   55 am   BACKBONE|DICT|INTERRES
   111   54  179 1    
   112   55   56 2    
   113   55   57 1    
   114   57   58 1    
   115   57   59 1    
   116   57  180 1    
   117   58  181 1    
   118   58  182 1    
   119   58  183 1    
   120   59   60 am   BACKBONE|DICT|INTERRES
   121   59  184 1    
   122   60   61 2    
   123   60   62 1    
   124   62   63 1    
   125   62   64 1    
   126   62  185 1    
   127   63  186 1    
   128   63  187 1    
   129   63  188 1    
   130   64   65 am   BACKBONE|DICT|INTERRES
   131   64  189 1    
   132   65   66 2    
   133   67   68 2    
   134   67   69 am   BACKBONE|DICT|INTERRES
   135   69   70 1    
   136   69  190 1    
   137   70   71 1    
   138   70   72 1    
   139   70  191 1    
   140   71  192 1    
   141   71  193 1    
   142   71  194 1    
   143   72   73 2    
   144   72   74 am   BACKBONE|DICT|INTERRES
   145   74   75 1    
   146   74  195 1    
   147   75   76 1    
   148   75   77 1    
   149   75  196 1    
   150   76  197 1    
   151   76  198 1    
   152   76  199 1    
   153   77   78 2    
   154   77   79 am   BACKBONE|DICT|INTERRES
   155   79   80 1    
   156   79  200 1    
   157   80   81 1    
   158   80   82 1    
   159   80  201 1    
   160   81  202 1    
   161   81  203 1    
   162   81  204 1    
   163   82   83 2    
   164   82   84 am   BACKBONE|DICT|INTERRES
   165   84   85 1    
   166   84  205 1    
   167   85   86 1    
   168   85   87 1    
   169   85  206 1    
   170   86  207 1    
   171   86  208 1    
   172   86  209 1    
   173   87   88 2    
   174   87   89 am   BACKBONE|DICT|INTERRES
   175   89   90 1    
   176   89  210 1    
   177   90   91 1    
   178   90   92 1    
   179   90  211 1    
   180   91  212 1    
   181   91  213 1    
   182   91  214 1    
   183   92   93 2    
   184   92   94 am   BACKBONE|DICT|INTERRES
   185   94   95 1    
   186   94  215 1    
   187   95   96 1    
   188   95   97 1    
   189   95  216 1    
   190   96  217 1    
   191   96  218 1    
   192   96  219 1    
   193   97   98 2    
   194   97   99 am   BACKBONE|DICT|INTERRES
   195   99  100 1    
   196   99  220 1    
   197  100  101 1    
   198  100  102 1    
   199  100  221 1    
   200  101  222 1    
   201  101  223 1    
   202  101  224 1    
   203  102  103 2    
   204  102  104 am   BACKBONE|DICT|INTERRES
   205  104  105 1    
   206  104  225 1    
   207  105  106 1    
   208  105  107 1    
   209  105  226 1    
   210  106  227 1    
   211  106  228 1    
   212  106  229 1    
   213  107  108 2    
   214  107  109 am   BACKBONE|DICT|INTERRES
   215  109  110 1    
   216  109  230 1    
   217  110  111 1    
   218  110  112 1    
   219  110  231 1    
   220  111  232 1    
   221  111  233 1    
   222  111  234 1    
   223  112  113 2    
   224  112  114 am   BACKBONE|DICT|INTERRES
   225  114  115 1    
   226  114  235 1    
   227  115  116 1    
   228  115  117 1    
   229  115  236 1    
   230  116  237 1    
   231  116  238 1    
   232  116  239 1    
   233  117  118 2    
   234  117  119 am   BACKBONE|DICT|INTERRES
   235  119  120 1    
   236  119  240 1    
   237  120  121 1    
   238  120  124 1    
   239  120  241 1    
   240  121  122 am   BACKBONE|DICT|INTERRES
   241  121  123 2    
   242  122  242 1    
   243  122  243 1    
   244  124  125 1    
   245  124  244 1    
   246  124  245 1    
   247  125  126 1    
   248  126  246 1    
   249  126  247 1    
@<TRIPOS>SUBSTRUCTURE
     1 UNK         1 GROUP             0       ****    0 ROOT    
