@<TRIPOS>MOLECULE
3R540
247   249    1
SMALL
USER_CHARGES


@<TRIPOS>ATOM
      1 CA         -5.1540  -15.0594  -48.9769 C.3       0 UNK        -0.1800 
      2 C          -4.0296  -14.2770  -48.3152 C.2       0 UNK         0.5000 
      3 O          -4.2852  -13.2804  -47.6397 O.2       0 UNK        -0.5000 
      4 N          -2.7841  -14.7302  -48.4994 N.am      1 UNK        -0.5000 
      5 CA         -1.5608  -14.0865  -47.9955 C.3       1 UNK         0.1400 
      6 C6         -0.2965  -14.5124  -48.7875 C.3       23 UNK        -0.0398 
      7 S7         -0.4806  -14.4445  -50.6031 S.3       23 UNK        -0.2404 
      8 C8         -0.3297  -16.2071  -51.0448 C.3       23 UNK        -0.0205 
      9 C9         -1.5787  -16.9990  -50.6846 C.ar      23 UNK        -0.0193 
     10 C10        -2.6326  -17.0806  -51.5944 C.ar      23 UNK        -0.1150 
     11 C11        -3.7759  -17.8303  -51.3030 C.ar      23 UNK        -0.0193 
     12 C12        -3.8659  -18.4738  -50.0657 C.ar      23 UNK        -0.1150 
     13 C13        -2.8280  -18.3973  -49.1317 C.ar      23 UNK        -0.0193 
     14 C14        -1.6752  -17.6701  -49.4626 C.ar      23 UNK        -0.1150 
     15 C15        -3.0082  -19.1256  -47.7974 C.3       23 UNK        -0.0205 
     16 S16        -1.6805  -18.8713  -46.5717 S.3       23 UNK        -0.2404 
     17 C17        -2.3360  -19.7879  -45.1370 C.3       23 UNK        -0.0398 
     18 CA         -1.9970  -21.2965  -45.1640 C.3       11 UNK         0.1400 
     19 N          -0.5601  -21.5589  -45.3313 N.am      11 UNK        -0.5000 
     20 C          -0.0190  -22.7211  -45.7236 C.2       10 UNK         0.5000 
     21 O          -0.6819  -23.7288  -45.9686 O.2       10 UNK        -0.5000 
     22 CA          1.5146  -22.7822  -45.7888 C.3       10 UNK         0.1400 
     23 CB          2.0285  -22.1509  -47.0919 C.3       10 UNK        -0.1800 
     24 N           2.1105  -22.0948  -44.6427 N.am      10 UNK        -0.5000 
     25 C           2.3895  -22.6714  -43.4655 C.2       9 UNK         0.5000 
     26 O           2.2257  -23.8703  -43.2397 O.2       9 UNK        -0.5000 
     27 CA          2.9327  -21.7610  -42.3438 C.3       9 UNK         0.1400 
     28 CB          4.4666  -21.7006  -42.3958 C.3       9 UNK        -0.1800 
     29 N           2.4049  -20.3975  -42.3942 N.am      9 UNK        -0.5000 
     30 C           1.1278  -20.0605  -42.1679 C.2       8 UNK         0.5000 
     31 O           0.2644  -20.8606  -41.8109 O.2       8 UNK        -0.5000 
     32 CA          0.7367  -18.5904  -42.4233 C.3       8 UNK         0.1400 
     33 CB          0.8146  -17.7857  -41.1181 C.3       8 UNK        -0.1800 
     34 N           1.5321  -17.9161  -43.4555 N.am      8 UNK        -0.5000 
     35 C           1.7158  -18.3465  -44.7126 C.2       7 UNK         0.5000 
     36 O           1.2625  -19.4037  -45.1438 O.2       7 UNK        -0.5000 
     37 CA          2.5838  -17.4792  -45.6330 C.3       7 UNK         0.1400 
     38 CB          1.7327  -16.3846  -46.2827 C.3       7 UNK        -0.1800 
     39 N           3.7042  -16.8775  -44.9135 N.am      7 UNK        -0.5000 
     40 C           4.8275  -17.5327  -44.5883 C.2       6 UNK         0.5000 
     41 O           5.0538  -18.7013  -44.9026 O.2       6 UNK        -0.5000 
     42 CA          5.8648  -16.7562  -43.7554 C.3       6 UNK         0.1400 
     43 CB          6.8065  -15.9603  -44.6716 C.3       6 UNK        -0.1800 
     44 N           5.2437  -15.8442  -42.7942 N.am      6 UNK        -0.5000 
     45 C           4.5671  -16.2379  -41.7062 C.2       5 UNK         0.5000 
     46 O           4.4476  -17.4147  -41.3644 O.2       5 UNK        -0.5000 
     47 CA          3.8830  -15.1313  -40.8793 C.3       5 UNK         0.1400 
     48 CB          4.8190  -14.6349  -39.7673 C.3       5 UNK        -0.1800 
     49 N           3.4299  -13.9851  -41.6766 N.am      5 UNK        -0.5000 
     50 C           2.5021  -14.0486  -42.6403 C.2       4 UNK         0.5000 
     51 O           1.9786  -15.1002  -43.0128 O.2       4 UNK        -0.5000 
     52 CA          2.1309  -12.7305  -43.3382 C.3       4 UNK         0.1400 
     53 CB          2.7444  -12.6757  -44.7458 C.3       4 UNK        -0.1800 
     54 N           0.6791  -12.6132  -43.4407 N.am      4 UNK        -0.5000 
     55 C          -0.1177  -12.2062  -42.4418 C.2       3 UNK         0.5000 
     56 O           0.3047  -11.7712  -41.3693 O.2       3 UNK        -0.5000 
     57 CA         -1.6421  -12.3067  -42.6643 C.3       3 UNK         0.1400 
     58 CB         -2.1966  -10.9802  -43.2052 C.3       3 UNK        -0.1800 
     59 N          -2.0194  -13.3863  -43.5766 N.am      3 UNK        -0.5000 
     60 C          -1.8428  -14.6910  -43.3319 C.2       2 UNK         0.5000 
     61 O          -1.4908  -15.1300  -42.2372 O.2       2 UNK        -0.5000 
     62 CA         -2.1044  -15.6828  -44.4854 C.3       2 UNK         0.1400 
     63 CB         -3.4056  -16.4543  -44.2107 C.3       2 UNK        -0.1800 
     64 N          -2.1862  -15.1302  -45.8448 N.am      2 UNK        -0.5000 
     65 C          -1.3268  -14.3211  -46.4838 C.2       1 UNK         0.5000 
     66 O          -0.3647  -13.7795  -45.9398 O.2       1 UNK        -0.5000 
     67 C          -2.6196  -22.0334  -43.9537 C.2       11 UNK         0.5000 
     68 O          -3.8315  -21.9595  -43.7515 O.2       11 UNK        -0.5000 
     69 N          -1.8047  -22.7859  -43.2003 N.am      12 UNK        -0.5000 
     70 CA         -2.2383  -23.8342  -42.2769 C.3       12 UNK         0.1400 
     71 CB         -1.0122  -24.3831  -41.5332 C.3       12 UNK        -0.1800 
     72 C          -2.9916  -24.9715  -43.0014 C.2       12 UNK         0.5000 
     73 O          -3.8824  -25.5804  -42.4094 O.2       12 UNK        -0.5000 
     74 N          -2.6735  -25.1884  -44.2874 N.am      13 UNK        -0.5000 
     75 CA         -3.4092  -26.0428  -45.2184 C.3       13 UNK         0.1400 
     76 CB         -2.4046  -26.7463  -46.1490 C.3       13 UNK        -0.1800 
     77 C          -4.4637  -25.2229  -45.9953 C.2       13 UNK         0.5000 
     78 O          -4.5865  -25.3695  -47.2127 O.2       13 UNK        -0.5000 
     79 N          -5.1977  -24.3614  -45.2752 N.am      14 UNK        -0.5000 
     80 CA         -6.2796  -23.4851  -45.7325 C.3       14 UNK         0.1400 
     81 CB         -7.5404  -24.3199  -46.0493 C.3       14 UNK        -0.1800 
     82 C          -5.8468  -22.5546  -46.8843 C.2       14 UNK         0.5000 
     83 O          -5.1817  -21.5488  -46.6389 O.2       14 UNK        -0.5000 
     84 N          -6.2239  -22.9081  -48.1189 N.am      15 UNK        -0.5000 
     85 CA         -5.8994  -22.1780  -49.3439 C.3       15 UNK         0.1400 
     86 CB         -6.8822  -22.6125  -50.4429 C.3       15 UNK        -0.1800 
     87 C          -4.4414  -22.3601  -49.8137 C.2       15 UNK         0.5000 
     88 O          -4.0506  -21.7135  -50.7855 O.2       15 UNK        -0.5000 
     89 N          -3.6708  -23.2377  -49.1521 N.am      16 UNK        -0.5000 
     90 CA         -2.2920  -23.6106  -49.4755 C.3       16 UNK         0.1400 
     91 CB         -1.3348  -22.4061  -49.3063 C.3       16 UNK        -0.1800 
     92 C          -2.2372  -24.2822  -50.8628 C.2       16 UNK         0.5000 
     93 O          -2.8311  -25.3484  -51.0316 O.2       16 UNK        -0.5000 
     94 N          -1.5677  -23.6477  -51.8345 N.am      17 UNK        -0.5000 
     95 CA         -1.5193  -24.0909  -53.2313 C.3       17 UNK         0.1400 
     96 CB         -0.1754  -23.6722  -53.8505 C.3       17 UNK        -0.1800 
     97 C          -2.7201  -23.5901  -54.0672 C.2       17 UNK         0.5000 
     98 O          -2.7750  -23.8772  -55.2643 O.2       17 UNK        -0.5000 
     99 N          -3.6581  -22.8624  -53.4384 N.am      18 UNK        -0.5000 
    100 CA        -4.9222  -22.3649  -53.9848 C.3       18 UNK         0.1400 
    101 CB        -5.8975  -23.5348  -54.2403 C.3       18 UNK        -0.1800 
    102 C         -4.6973  -21.4478  -55.1983 C.2       18 UNK         0.5000 
    103 O         -4.1252  -20.3707  -55.0309 O.2       18 UNK        -0.5000 
    104 N         -5.1092  -21.8829  -56.3958 N.am      19 UNK        -0.5000 
    105 CA        -4.9451  -21.1540  -57.6558 C.3       19 UNK         0.1400 
    106 CB        -5.6157  -21.9467  -58.7874 C.3       19 UNK        -0.1800 
    107 C         -3.4774  -20.8432  -58.0095 C.2       19 UNK         0.5000 
    108 O         -3.2113  -19.8074  -58.6179 O.2       19 UNK        -0.5000 
    109 N         -2.5470  -21.7118  -57.5900 N.am      20 UNK        -0.5000 
    110 CA        -1.1087  -21.5071  -57.7642 C.3       20 UNK         0.1400 
    111 CB        -0.3977  -22.8670  -57.7166 C.3       20 UNK        -0.1800 
    112 C         -0.5065  -20.5259  -56.7370 C.2       20 UNK         0.5000 
    113 O          0.5849  -20.0097  -56.9802 O.2       20 UNK        -0.5000 
    114 N         -1.2102  -20.2780  -55.6225 N.am      21 UNK        -0.5000 
    115 CA        -0.8159  -19.3131  -54.5969 C.3       21 UNK         0.1400 
    116 CB        -1.2179  -19.8347  -53.2059 C.3       21 UNK        -0.1800 
    117 C         -1.4393  -17.9351  -54.8764 C.2       21 UNK         0.5000 
    118 O         -0.7219  -16.9344  -54.8813 O.2       21 UNK        -0.5000 
    119 N         -2.7594  -17.9087  -55.1019 N.am      22 UNK        -0.5000 
    120 CA        -3.5422  -16.6914  -55.3746 C.3       22 UNK         0.1400 
    121 C         -3.4359  -16.1756  -56.8393 C.2       22 UNK         0.5000 
    122 N         -3.0000  -16.9691  -57.8088 N.am      22 UNK        -0.7600 
    123 O         -3.7464  -15.0167  -57.1013 O.2       22 UNK        -0.5000 
    124 C124       -5.0254  -16.8626  -54.9393 C.3       23 UNK        -0.0398 
    125 S125       -5.3137  -16.4361  -53.1859 S.3       23 UNK        -0.2404 
    126 C126       -4.8989  -17.9894  -52.3236 C.3       23 UNK        -0.0205 
    127 H127       -5.9448  -14.3849  -49.3055 H         1 UNK         0.0600 
    128 H128       -4.7970  -15.6039  -49.8505 H         1 UNK         0.0600 
    129 H129       -5.5814  -15.7746  -48.2742 H         1 UNK         0.0600 
    130 H130       -2.6350  -15.5476  -49.0772 H         1 UNK         0.3000 
    131 H131       -1.6783  -13.0089  -48.1274 H         1 UNK         0.0600 
    132 H132        0.0136  -15.5162  -48.5038 H         1 UNK         0.0800 
    133 H133        0.5413  -13.8648  -48.5224 H         1 UNK         0.0800 
    134 H134       -0.1500  -16.2811  -52.1185 H         1 UNK         0.0800 
    135 H135        0.5502  -16.6385  -50.5652 H         1 UNK         0.0800 
    136 H136       -2.5486  -16.5709  -52.5419 H         1 UNK         0.1150 
    137 H137       -4.7467  -19.0544  -49.8317 H         1 UNK         0.1150 
    138 H138       -0.8442  -17.6188  -48.7765 H         1 UNK         0.1150 
    139 H139       -3.9540  -18.8111  -47.3539 H         1 UNK         0.0800 
    140 H140       -3.0977  -20.1942  -47.9952 H         1 UNK         0.0800 
    141 H141       -3.4170  -19.6415  -45.0967 H         1 UNK         0.0800 
    142 H142       -1.9344  -19.3272  -44.2348 H         1 UNK         0.0800 
    143 H143       -2.4934  -21.7164  -46.0412 H         1 UNK         0.0600 
    144 H144        0.0567  -20.7598  -45.1968 H         1 UNK         0.3000 
    145 H145        1.8137  -23.8325  -45.7832 H         1 UNK         0.0600 
    146 H146        3.1170  -22.1829  -47.1420 H         1 UNK         0.0600 
    147 H147        1.6479  -22.6900  -47.9598 H         1 UNK         0.0600 
    148 H148        1.7196  -21.1097  -47.1916 H         1 UNK         0.0600 
    149 H149        2.1957  -21.0876  -44.7261 H         1 UNK         0.3000 
    150 H150        2.6391  -22.2018  -41.3888 H         1 UNK         0.0600 
    151 H151        4.8999  -22.6998  -42.3349 H         1 UNK         0.0600 
    152 H152        4.8671  -21.1213  -41.5636 H         1 UNK         0.0600 
    153 H153        4.8196  -21.2444  -43.3219 H         1 UNK         0.0600 
    154 H154        3.0473  -19.6687  -42.6716 H         1 UNK         0.3000 
    155 H155       -0.2996  -18.5809  -42.7621 H         1 UNK         0.0600 
    156 H156        1.8261  -17.7771  -40.7126 H         1 UNK         0.0600 
    157 H157        0.1603  -18.2128  -40.3573 H         1 UNK         0.0600 
    158 H158        0.5043  -16.7519  -41.2693 H         1 UNK         0.0600 
    159 H159        1.8873  -16.9950  -43.2130 H         1 UNK         0.3000 
    160 H160        2.9738  -18.1193  -46.4275 H         1 UNK         0.0600 
    161 H161        2.3105  -15.7980  -46.9968 H         1 UNK         0.0600 
    162 H162        1.3256  -15.7052  -45.5354 H         1 UNK         0.0600 
    163 H163        0.8904  -16.8243  -46.8172 H         1 UNK         0.0600 
    164 H164        3.5661  -15.9407  -44.5632 H         1 UNK         0.3000 
    165 H165        6.4612  -17.4849  -43.2020 H         1 UNK         0.0600 
    166 H166        7.5880  -15.4626  -44.0971 H         1 UNK         0.0600 
    167 H167        7.3004  -16.6176  -45.3885 H         1 UNK         0.0600 
    168 H168        6.2699  -15.1992  -45.2395 H         1 UNK         0.0600 
    169 H169        5.3028  -14.8565  -42.9931 H         1 UNK         0.3000 
    170 H170        3.0024  -15.5736  -40.4091 H         1 UNK         0.0600 
    171 H171        5.1544  -15.4625  -39.1406 H         1 UNK         0.0600 
    172 H172        5.7073  -14.1505  -40.1746 H         1 UNK         0.0600 
    173 H173        4.3146  -13.9207  -39.1161 H         1 UNK         0.0600 
    174 H174        3.8229  -13.0871  -41.4332 H         1 UNK         0.3000 
    175 H175        2.5216  -11.8901  -42.7605 H         1 UNK         0.0600 
    176 H176        2.3838  -13.4884  -45.3770 H         1 UNK         0.0600 
    177 H177        2.5011  -11.7369  -45.2435 H         1 UNK         0.0600 
    178 H178        3.8317  -12.7496  -44.7031 H         1 UNK         0.0600 
    179 H179        0.2566  -13.0089  -44.2765 H         1 UNK         0.3000 
    180 H180       -2.1061  -12.5040  -41.6957 H         1 UNK         0.0600 
    181 H181       -1.7817  -10.7413  -44.1853 H         1 UNK         0.0600 
    182 H182       -1.9547  -10.1538  -42.5355 H         1 UNK         0.0600 
    183 H183       -3.2822  -11.0146  -43.2985 H         1 UNK         0.0600 
    184 H184       -2.2999  -13.1171  -44.5081 H         1 UNK         0.3000 
    185 H185       -1.2747  -16.3927  -44.4858 H         1 UNK         0.0600 
    186 H186       -3.3440  -17.0070  -43.2723 H         1 UNK         0.0600 
    187 H187       -4.2604  -15.7803  -44.1403 H         1 UNK         0.0600 
    188 H188       -3.6204  -17.1748  -44.9985 H         1 UNK         0.0600 
    189 H189       -2.9447  -15.4894  -46.4050 H         1 UNK         0.3000 
    190 H190       -0.8136  -22.7332  -43.3847 H         1 UNK         0.3000 
    191 H191       -2.9180  -23.3871  -41.5489 H         1 UNK         0.0600 
    192 H192       -0.2961  -24.8379  -42.2190 H         1 UNK         0.0600 
    193 H193       -1.3034  -25.1443  -40.8083 H         1 UNK         0.0600 
    194 H194       -0.4961  -23.5931  -40.9868 H         1 UNK         0.0600 
    195 H195       -1.9419  -24.6241  -44.7098 H         1 UNK         0.3000 
    196 H196       -3.9467  -26.8160  -44.6660 H         1 UNK         0.0600 
    197 H197       -1.8659  -26.0335  -46.7739 H         1 UNK         0.0600 
    198 H198       -2.9103  -27.4486  -46.8127 H         1 UNK         0.0600 
    199 H199       -1.6691  -27.3130  -45.5780 H         1 UNK         0.0600 
    200 H200       -4.9724  -24.2741  -44.2939 H         1 UNK         0.3000 
    201 H201       -6.5216  -22.8322  -44.8925 H         1 UNK         0.0600 
    202 H202       -7.8895  -24.8448  -45.1600 H         1 UNK         0.0600 
    203 H203       -7.3605  -25.0695  -46.8206 H         1 UNK         0.0600 
    204 H204       -8.3595  -23.6833  -46.3867 H         1 UNK         0.0600 
    205 H205       -6.7313  -23.7739  -48.2316 H         1 UNK         0.3000 
    206 H206       -6.0472  -21.1125  -49.1575 H         1 UNK         0.0600 
    207 H207       -7.9163  -22.4841  -50.1226 H         1 UNK         0.0600 
    208 H208       -6.7513  -22.0135  -51.3438 H         1 UNK         0.0600 
    209 H209       -6.7417  -23.6586  -50.7180 H         1 UNK         0.0600 
    210 H210       -4.1064  -23.7924  -48.4224 H         1 UNK         0.3000 
    211 H211       -1.9982  -24.3701  -48.7495 H         1 UNK         0.0600 
    212 H212       -1.5608  -21.5850  -49.9873 H         1 UNK         0.0600 
    213 H213       -0.2999  -22.7031  -49.4769 H         1 UNK         0.0600 
    214 H214       -1.3895  -22.0079  -48.2942 H         1 UNK         0.0600 
    215 H215       -1.1306  -22.7629  -51.6215 H         1 UNK         0.3000 
    216 H216       -1.5551  -25.1820  -53.2513 H         1 UNK         0.0600 
    217 H217        0.0202  -24.2459  -54.7559 H         1 UNK         0.0600 
    218 H218        0.6555  -23.8641  -53.1714 H         1 UNK         0.0600 
    219 H219       -0.1531  -22.6184  -54.1228 H         1 UNK         0.0600 
    220 H220       -3.5033  -22.6154  -52.4657 H         1 UNK         0.3000 
    221 H221       -5.3609  -21.7295  -53.2157 H         1 UNK         0.0600 
    222 H222       -5.5131  -24.2435  -54.9745 H         1 UNK         0.0600 
    223 H223       -6.0842  -24.0879  -53.3196 H         1 UNK         0.0600 
    224 H224       -6.8630  -23.1729  -54.5960 H         1 UNK         0.0600 
    225 H225       -5.5418  -22.7933  -56.4526 H         1 UNK         0.3000 
    226 H226       -5.4636  -20.1984  -57.5528 H         1 UNK         0.0600 
    227 H227       -6.6781  -22.0930  -58.5915 H         1 UNK         0.0600 
    228 H228       -5.5318  -21.4179  -59.7379 H         1 UNK         0.0600 
    229 H229       -5.1584  -22.9285  -58.9161 H         1 UNK         0.0600 
    230 H230       -2.8326  -22.5258  -57.0579 H         1 UNK         0.3000 
    231 H231       -0.9327  -21.0801  -58.7539 H         1 UNK         0.0600 
    232 H232       -0.7380  -23.5157  -58.5238 H         1 UNK         0.0600 
    233 H233       -0.5824  -23.3825  -56.7766 H         1 UNK         0.0600 
    234 H234        0.6816  -22.7525  -57.8247 H         1 UNK         0.0600 
    235 H235       -2.1321  -20.6848  -55.5246 H         1 UNK         0.3000 
    236 H236        0.2699  -19.1957  -54.5976 H         1 UNK         0.0600 
    237 H237       -0.8981  -19.1418  -52.4288 H         1 UNK         0.0600 
    238 H238       -2.2954  -19.9665  -53.1057 H         1 UNK         0.0600 
    239 H239       -0.7439  -20.7875  -52.9830 H         1 UNK         0.0600 
    240 H240       -3.2782  -18.7841  -55.0801 H         1 UNK         0.3000 
    241 H241       -3.1146  -15.8852  -54.7753 H         1 UNK         0.0600 
    242 H242       -2.9375  -16.6044  -58.7458 H         1 UNK         0.3800 
    243 H243       -2.8108  -17.9497  -57.6525 H         1 UNK         0.3800 
    244 H244       -5.6808  -16.2008  -55.5087 H         1 UNK         0.0800 
    245 H245       -5.3868  -17.8709  -55.1473 H         1 UNK         0.0800 
    246 H246       -4.6044  -18.7572  -53.0370 H         1 UNK         0.0800 
    247 H247       -5.8036  -18.3574  -51.8377 H         1 UNK         0.0800 
@<TRIPOS>BOND
     1    1    2 1    
     2    1  127 1    
     3    1  128 1    
     4    1  129 1    
     5    2    3 2    
     6    2    4 am   BACKBONE|DICT|INTERRES
     7    4    5 1    
     8    4  130 1    
     9    5    6 1    
    10    5   65 1    
    11    5  131 1    
    12    6    7 1    
    13    6  132 1    
    14    6  133 1    
    15    7    8 1    
    16    8    9 1    
    17    8  134 1    
    18    8  135 1    
    19    9   10 ar   
    20    9   14 ar   
    21   10   11 ar   
    22   10  136 1    
    23   11   12 ar   
    24   11  126 1    
    25   12   13 ar   
    26   12  137 1    
    27   13   14 ar   
    28   13   15 1    
    29   14  138 1    
    30   15   16 1    
    31   15  139 1    
    32   15  140 1    
    33   16   17 1    
    34   17   18 1    
    35   17  141 1    
    36   17  142 1    
    37   18   19 1    
    38   18   67 1    
    39   18  143 1    
    40   19   20 am   BACKBONE|DICT|INTERRES
    41   19  144 1    
    42   20   21 2    
    43   20   22 1    
    44   22   23 1    
    45   22   24 1    
    46   22  145 1    
    47   23  146 1    
    48   23  147 1    
    49   23  148 1    
    50   24   25 am   BACKBONE|DICT|INTERRES
    51   24  149 1    
    52   25   26 2    
    53   25   27 1    
    54   27   28 1    
    55   27   29 1    
    56   27  150 1    
    57   28  151 1    
    58   28  152 1    
    59   28  153 1    
    60   29   30 am   BACKBONE|DICT|INTERRES
    61   29  154 1    
    62   30   31 2    
    63   30   32 1    
    64   32   33 1    
    65   32   34 1    
    66   32  155 1    
    67   33  156 1    
    68   33  157 1    
    69   33  158 1    
    70   34   35 am   BACKBONE|DICT|INTERRES
    71   34  159 1    
    72   35   36 2    
    73   35   37 1    
    74   37   38 1    
    75   37   39 1    
    76   37  160 1    
    77   38  161 1    
    78   38  162 1    
    79   38  163 1    
    80   39   40 am   BACKBONE|DICT|INTERRES
    81   39  164 1    
    82   40   41 2    
    83   40   42 1    
    84   42   43 1    
    85   42   44 1    
    86   42  165 1    
    87   43  166 1    
    88   43  167 1    
    89   43  168 1    
    90   44   45 am   BACKBONE|DICT|INTERRES
    91   44  169 1    
    92   45   46 2    
    93   45   47 1    
    94   47   48 1    
    95   47   49 1    
    96   47  170 1    
    97   48  171 1    
    98   48  172 1    
    99   48  173 1    
   100   49   50 am   BACKBONE|DICT|INTERRES
   101   49  174 1    
   102   50   51 2    
   103   50   52 1    
   104   52   53 1    
   105   52   54 1    
   106   52  175 1    
   107   53  176 1    
   108   53  177 1    
   109   53  178 1    
   110   54   55 am   BACKBONE|DICT|INTERRES
   111   54  179 1    
   112   55   56 2    
   113   55   57 1    
   114   57   58 1    
   115   57   59 1    
   116   57  180 1    
   117   58  181 1    
   118   58  182 1    
   119   58  183 1    
   120   59   60 am   BACKBONE|DICT|INTERRES
   121   59  184 1    
   122   60   61 2    
   123   60   62 1    
   124   62   63 1    
   125   62   64 1    
   126   62  185 1    
   127   63  186 1    
   128   63  187 1    
   129   63  188 1    
   130   64   65 am   BACKBONE|DICT|INTERRES
   131   64  189 1    
   132   65   66 2    
   133   67   68 2    
   134   67   69 am   BACKBONE|DICT|INTERRES
   135   69   70 1    
   136   69  190 1    
   137   70   71 1    
   138   70   72 1    
   139   70  191 1    
   140   71  192 1    
   141   71  193 1    
   142   71  194 1    
   143   72   73 2    
   144   72   74 am   BACKBONE|DICT|INTERRES
   145   74   75 1    
   146   74  195 1    
   147   75   76 1    
   148   75   77 1    
   149   75  196 1    
   150   76  197 1    
   151   76  198 1    
   152   76  199 1    
   153   77   78 2    
   154   77   79 am   BACKBONE|DICT|INTERRES
   155   79   80 1    
   156   79  200 1    
   157   80   81 1    
   158   80   82 1    
   159   80  201 1    
   160   81  202 1    
   161   81  203 1    
   162   81  204 1    
   163   82   83 2    
   164   82   84 am   BACKBONE|DICT|INTERRES
   165   84   85 1    
   166   84  205 1    
   167   85   86 1    
   168   85   87 1    
   169   85  206 1    
   170   86  207 1    
   171   86  208 1    
   172   86  209 1    
   173   87   88 2    
   174   87   89 am   BACKBONE|DICT|INTERRES
   175   89   90 1    
   176   89  210 1    
   177   90   91 1    
   178   90   92 1    
   179   90  211 1    
   180   91  212 1    
   181   91  213 1    
   182   91  214 1    
   183   92   93 2    
   184   92   94 am   BACKBONE|DICT|INTERRES
   185   94   95 1    
   186   94  215 1    
   187   95   96 1    
   188   95   97 1    
   189   95  216 1    
   190   96  217 1    
   191   96  218 1    
   192   96  219 1    
   193   97   98 2    
   194   97   99 am   BACKBONE|DICT|INTERRES
   195   99  100 1    
   196   99  220 1    
   197  100  101 1    
   198  100  102 1    
   199  100  221 1    
   200  101  222 1    
   201  101  223 1    
   202  101  224 1    
   203  102  103 2    
   204  102  104 am   BACKBONE|DICT|INTERRES
   205  104  105 1    
   206  104  225 1    
   207  105  106 1    
   208  105  107 1    
   209  105  226 1    
   210  106  227 1    
   211  106  228 1    
   212  106  229 1    
   213  107  108 2    
   214  107  109 am   BACKBONE|DICT|INTERRES
   215  109  110 1    
   216  109  230 1    
   217  110  111 1    
   218  110  112 1    
   219  110  231 1    
   220  111  232 1    
   221  111  233 1    
   222  111  234 1    
   223  112  113 2    
   224  112  114 am   BACKBONE|DICT|INTERRES
   225  114  115 1    
   226  114  235 1    
   227  115  116 1    
   228  115  117 1    
   229  115  236 1    
   230  116  237 1    
   231  116  238 1    
   232  116  239 1    
   233  117  118 2    
   234  117  119 am   BACKBONE|DICT|INTERRES
   235  119  120 1    
   236  119  240 1    
   237  120  121 1    
   238  120  124 1    
   239  120  241 1    
   240  121  122 am   BACKBONE|DICT|INTERRES
   241  121  123 2    
   242  122  242 1    
   243  122  243 1    
   244  124  125 1    
   245  124  244 1    
   246  124  245 1    
   247  125  126 1    
   248  126  246 1    
   249  126  247 1    
@<TRIPOS>SUBSTRUCTURE
     1 UNK         1 GROUP             0       ****    0 ROOT    
