@<TRIPOS>MOLECULE
3R540
247   249    1
SMALL
USER_CHARGES


@<TRIPOS>ATOM
      1 CA          0.4257  -14.1068  -54.3425 C.3       0 UNK        -0.1800 
      2 C           1.0020  -12.9272  -53.5740 C.2       0 UNK         0.5000 
      3 O           0.8275  -11.7815  -53.9893 O.2       0 UNK        -0.5000 
      4 N           1.7013  -13.2034  -52.4666 N.am      1 UNK        -0.5000 
      5 CA          2.3371  -12.2016  -51.6039 C.3       1 UNK         0.1400 
      6 C6          3.4423  -12.8116  -50.7002 C.3       23 UNK        -0.0398 
      7 S7          2.9385  -14.3249  -49.8003 S.3       23 UNK        -0.2404 
      8 C8          4.0957  -15.5341  -50.5189 C.3       23 UNK        -0.0205 
      9 C9          3.6871  -16.9626  -50.1987 C.ar      23 UNK        -0.0193 
     10 C10         2.6991  -17.5838  -50.9638 C.ar      23 UNK        -0.1150 
     11 C11         2.2932  -18.8954  -50.6870 C.ar      23 UNK        -0.0193 
     12 C12         2.9369  -19.5959  -49.6629 C.ar      23 UNK        -0.1150 
     13 C13         3.9441  -18.9970  -48.8985 C.ar      23 UNK        -0.0193 
     14 C14         4.3041  -17.6715  -49.1649 C.ar      23 UNK        -0.1150 
     15 C15         4.6773  -19.7788  -47.8130 C.3       23 UNK        -0.0205 
     16 S16         3.5628  -20.5512  -46.5955 S.3       23 UNK        -0.2404 
     17 C17         3.4595  -22.2719  -47.2032 C.3       23 UNK        -0.0398 
     18 CA          2.1043  -22.9727  -46.9340 C.3       11 UNK         0.1400 
     19 N           1.6825  -22.8696  -45.5345 N.am      11 UNK        -0.5000 
     20 C           0.7685  -23.6560  -44.9544 C.2       10 UNK         0.5000 
     21 O           0.1938  -24.5646  -45.5528 O.2       10 UNK        -0.5000 
     22 CA          0.3696  -23.3534  -43.4977 C.3       10 UNK         0.1400 
     23 CB          0.3069  -24.6269  -42.6310 C.3       10 UNK        -0.1800 
     24 N           1.1534  -22.3001  -42.8496 N.am      10 UNK        -0.5000 
     25 C           2.4277  -22.3255  -42.4354 C.2       9 UNK         0.5000 
     26 O           3.1865  -23.2817  -42.5933 O.2       9 UNK        -0.5000 
     27 CA          2.9454  -21.0537  -41.7302 C.3       9 UNK         0.1400 
     28 CB          3.9122  -20.2918  -42.6495 C.3       9 UNK        -0.1800 
     29 N           1.8720  -20.1420  -41.3226 N.am      9 UNK        -0.5000 
     30 C           1.0043  -20.3562  -40.3234 C.2       8 UNK         0.5000 
     31 O           1.0708  -21.3125  -39.5510 O.2       8 UNK        -0.5000 
     32 CA         -0.1660  -19.3610  -40.2095 C.3       8 UNK         0.1400 
     33 CB          0.2520  -18.1031  -39.4323 C.3       8 UNK        -0.1800 
     34 N          -0.6920  -18.9771  -41.5232 N.am      8 UNK        -0.5000 
     35 C          -1.4096  -19.7815  -42.3218 C.2       7 UNK         0.5000 
     36 O          -1.7388  -20.9271  -42.0180 O.2       7 UNK        -0.5000 
     37 CA         -1.7852  -19.2362  -43.7110 C.3       7 UNK         0.1400 
     38 CB         -3.1073  -18.4579  -43.6573 C.3       7 UNK        -0.1800 
     39 N          -0.7298  -18.3841  -44.2605 N.am      7 UNK        -0.5000 
     40 C           0.3881  -18.8609  -44.8290 C.2       6 UNK         0.5000 
     41 O           0.5801  -20.0617  -45.0261 O.2       6 UNK        -0.5000 
     42 CA          1.4765  -17.8426  -45.2317 C.3       6 UNK         0.1400 
     43 CB          1.3446  -17.4663  -46.7149 C.3       6 UNK        -0.1800 
     44 N           1.4619  -16.6211  -44.4270 N.am      6 UNK        -0.5000 
     45 C           1.6813  -16.5673  -43.1059 C.2       5 UNK         0.5000 
     46 O           1.9972  -17.5462  -42.4328 O.2       5 UNK        -0.5000 
     47 CA          1.4503  -15.2145  -42.4047 C.3       5 UNK         0.1400 
     48 CB          2.7883  -14.4989  -42.1708 C.3       5 UNK        -0.1800 
     49 N           0.5511  -14.3134  -43.1295 N.am      5 UNK        -0.5000 
     50 C          -0.7179  -14.5581  -43.4808 C.2       4 UNK         0.5000 
     51 O          -1.3035  -15.6057  -43.2056 O.2       4 UNK        -0.5000 
     52 CA         -1.4271  -13.4977  -44.3485 C.3       4 UNK         0.1400 
     53 CB         -2.1461  -12.4522  -43.4758 C.3       4 UNK        -0.1800 
     54 N          -0.5584  -12.8657  -45.3566 N.am      4 UNK        -0.5000 
     55 C           0.4821  -12.0364  -45.1776 C.2       3 UNK         0.5000 
     56 O           0.8636  -11.6455  -44.0742 O.2       3 UNK        -0.5000 
     57 CA          1.2787  -11.6234  -46.4281 C.3       3 UNK         0.1400 
     58 CB          2.6153  -12.3820  -46.4769 C.3       3 UNK        -0.1800 
     59 N           0.5718  -11.8533  -47.6879 N.am      3 UNK        -0.5000 
     60 C          -0.4162  -11.0859  -48.1691 C.2       2 UNK         0.5000 
     61 O          -0.9197  -10.1529  -47.5412 O.2       2 UNK        -0.5000 
     62 CA         -0.8995  -11.4184  -49.5992 C.3       2 UNK         0.1400 
     63 CB         -1.5945  -10.2294  -50.2939 C.3       2 UNK        -0.1800 
     64 N           0.1640  -11.9701  -50.4504 N.am      2 UNK        -0.5000 
     65 C           1.3265  -11.3792  -50.7769 C.2       1 UNK         0.5000 
     66 O           1.6326  -10.2346  -50.4389 O.2       1 UNK        -0.5000 
     67 C           0.9926  -22.5396  -47.9147 C.2       11 UNK         0.5000 
     68 O           0.8914  -23.1166  -48.9975 O.2       11 UNK        -0.5000 
     69 N           0.1491  -21.5795  -47.5076 N.am      12 UNK        -0.5000 
     70 CA         -1.0702  -21.2099  -48.2303 C.3       12 UNK         0.1400 
     71 CB         -1.4658  -19.7728  -47.8651 C.3       12 UNK        -0.1800 
     72 C          -2.2296  -22.1803  -47.9398 C.2       12 UNK         0.5000 
     73 O          -3.0436  -22.4419  -48.8242 O.2       12 UNK        -0.5000 
     74 N          -2.2867  -22.7076  -46.7085 N.am      13 UNK        -0.5000 
     75 CA         -3.3317  -23.6299  -46.2551 C.3       13 UNK         0.1400 
     76 CB         -3.2751  -23.7587  -44.7260 C.3       13 UNK        -0.1800 
     77 C          -3.2470  -25.0185  -46.9169 C.2       13 UNK         0.5000 
     78 O          -4.2799  -25.6647  -47.0918 O.2       13 UNK        -0.5000 
     79 N          -2.0301  -25.4382  -47.2935 N.am      14 UNK        -0.5000 
     80 CA         -1.6987  -26.7283  -47.9077 C.3       14 UNK         0.1400 
     81 CB         -0.1814  -26.7860  -48.1451 C.3       14 UNK        -0.1800 
     82 C          -2.4531  -27.0552  -49.2132 C.2       14 UNK         0.5000 
     83 O          -2.6004  -28.2335  -49.5402 O.2       14 UNK        -0.5000 
     84 N          -2.9313  -26.0259  -49.9268 N.am      15 UNK        -0.5000 
     85 CA         -3.7729  -26.1667  -51.1178 C.3       15 UNK         0.1400 
     86 CB         -3.8121  -24.8253  -51.8617 C.3       15 UNK        -0.1800 
     87 C          -5.2060  -26.6442  -50.8072 C.2       15 UNK         0.5000 
     88 O          -5.8756  -27.1487  -51.7087 O.2       15 UNK        -0.5000 
     89 N          -5.6529  -26.4604  -49.5544 N.am      16 UNK        -0.5000 
     90 CA         -6.9628  -26.8214  -48.9974 C.3       16 UNK         0.1400 
     91 CB         -7.1761  -28.3487  -49.0426 C.3       16 UNK        -0.1800 
     92 C          -8.1600  -26.0456  -49.5916 C.2       16 UNK         0.5000 
     93 O          -9.3061  -26.3887  -49.2956 O.2       16 UNK        -0.5000 
     94 N          -7.8936  -25.0038  -50.3879 N.am      17 UNK        -0.5000 
     95 CA         -8.8823  -24.1410  -51.0211 C.3       17 UNK         0.1400 
     96 CB         -9.4934  -24.8410  -52.2485 C.3       17 UNK        -0.1800 
     97 C          -8.2066  -22.8275  -51.4317 C.2       17 UNK         0.5000 
     98 O          -7.0219  -22.8313  -51.7821 O.2       17 UNK        -0.5000 
     99 N          -8.9809  -21.7331  -51.3798 N.am      18 UNK        -0.5000 
    100 CA        -8.6735  -20.3756  -51.8600 C.3       18 UNK         0.1400 
    101 CB        -8.6168  -20.3768  -53.4023 C.3       18 UNK        -0.1800 
    102 C         -7.4120  -19.7172  -51.2570 C.2       18 UNK         0.5000 
    103 O         -6.9272  -18.7296  -51.8117 O.2       18 UNK        -0.5000 
    104 N         -6.8662  -20.2958  -50.1752 N.am      19 UNK        -0.5000 
    105 CA        -5.5510  -20.0026  -49.5898 C.3       19 UNK         0.1400 
    106 CB        -5.5820  -18.6556  -48.8385 C.3       19 UNK        -0.1800 
    107 C         -4.4165  -20.0814  -50.6368 C.2       19 UNK         0.5000 
    108 O         -3.5322  -19.2246  -50.6547 O.2       19 UNK        -0.5000 
    109 N         -4.5186  -21.0600  -51.5528 N.am      20 UNK        -0.5000 
    110 CA        -3.6384  -21.2906  -52.7077 C.3       20 UNK         0.1400 
    111 CB        -2.2123  -21.6407  -52.2299 C.3       20 UNK        -0.1800 
    112 C         -3.6200  -20.1322  -53.7338 C.2       20 UNK         0.5000 
    113 O         -2.7433  -20.1092  -54.5982 O.2       20 UNK        -0.5000 
    114 N         -4.5623  -19.1829  -53.6060 N.am      21 UNK        -0.5000 
    115 CA        -4.6034  -17.8674  -54.2531 C.3       21 UNK         0.1400 
    116 CB        -4.7612  -17.9971  -55.7824 C.3       21 UNK        -0.1800 
    117 C         -3.4277  -16.9498  -53.8395 C.2       21 UNK         0.5000 
    118 O         -3.1143  -16.0005  -54.5600 O.2       21 UNK        -0.5000 
    119 N         -2.8040  -17.2367  -52.6878 N.am      22 UNK        -0.5000 
    120 CA        -1.6427  -16.5128  -52.1497 C.3       22 UNK         0.1400 
    121 C         -2.0015  -15.2868  -51.2656 C.2       22 UNK         0.5000 
    122 N         -3.2635  -15.0498  -50.9301 N.am      22 UNK        -0.7600 
    123 O         -1.1131  -14.5236  -50.8964 O.2       22 UNK        -0.5000 
    124 C124       -0.6698  -17.4686  -51.4157 C.3       23 UNK        -0.0398 
    125 S125        0.1848  -18.5744  -52.5898 S.3       23 UNK        -0.2404 
    126 C126        1.1841  -19.6091  -51.4637 C.3       23 UNK        -0.0205 
    127 H127        0.7905  -15.0578  -53.9539 H         1 UNK         0.0600 
    128 H128       -0.6626  -14.0989  -54.2804 H         1 UNK         0.0600 
    129 H129        0.7073  -14.0440  -55.3936 H         1 UNK         0.0600 
    130 H130        1.7903  -14.1592  -52.1530 H         1 UNK         0.3000 
    131 H131        2.8334  -11.4838  -52.2611 H         1 UNK         0.0600 
    132 H132        3.8007  -12.0802  -49.9732 H         1 UNK         0.0800 
    133 H133        4.3118  -13.0377  -51.3183 H         1 UNK         0.0800 
    134 H134        5.1026  -15.3320  -50.1503 H         1 UNK         0.0800 
    135 H135        4.1335  -15.4096  -51.6024 H         1 UNK         0.0800 
    136 H136        2.2474  -17.0255  -51.7696 H         1 UNK         0.1150 
    137 H137        2.6479  -20.6163  -49.4628 H         1 UNK         0.1150 
    138 H138        5.0786  -17.1949  -48.5807 H         1 UNK         0.1150 
    139 H139        5.3134  -20.5330  -48.2776 H         1 UNK         0.0800 
    140 H140        5.3499  -19.1166  -47.2659 H         1 UNK         0.0800 
    141 H141        4.2507  -22.8323  -46.7035 H         1 UNK         0.0800 
    142 H142        3.7052  -22.3143  -48.2653 H         1 UNK         0.0800 
    143 H143        2.2680  -24.0347  -47.1314 H         1 UNK         0.0600 
    144 H144        2.0553  -22.0902  -45.0102 H         1 UNK         0.3000 
    145 H145       -0.6414  -22.9510  -43.5521 H         1 UNK         0.0600 
    146 H146       -0.0085  -24.3952  -41.6136 H         1 UNK         0.0600 
    147 H147       -0.4100  -25.3418  -43.0364 H         1 UNK         0.0600 
    148 H148        1.2718  -25.1316  -42.5787 H         1 UNK         0.0600 
    149 H149        0.6467  -21.4420  -42.6851 H         1 UNK         0.3000 
    150 H150        3.4901  -21.3684  -40.8379 H         1 UNK         0.0600 
    151 H151        4.7457  -20.9244  -42.9573 H         1 UNK         0.0600 
    152 H152        4.3325  -19.4211  -42.1458 H         1 UNK         0.0600 
    153 H153        3.4120  -19.9447  -43.5536 H         1 UNK         0.0600 
    154 H154        1.7954  -19.2743  -41.8496 H         1 UNK         0.3000 
    155 H155       -0.9674  -19.8506  -39.6519 H         1 UNK         0.0600 
    156 H156        1.0678  -17.5725  -39.9230 H         1 UNK         0.0600 
    157 H157        0.5902  -18.3629  -38.4284 H         1 UNK         0.0600 
    158 H158       -0.5826  -17.4102  -39.3245 H         1 UNK         0.0600 
    159 H159       -0.4423  -18.0597  -41.8620 H         1 UNK         0.3000 
    160 H160       -1.9319  -20.0914  -44.3743 H         1 UNK         0.0600 
    161 H161       -3.3813  -18.0779  -44.6417 H         1 UNK         0.0600 
    162 H162       -3.0522  -17.6108  -42.9731 H         1 UNK         0.0600 
    163 H163       -3.9214  -19.0993  -43.3176 H         1 UNK         0.0600 
    164 H164       -0.8286  -17.3862  -44.1078 H         1 UNK         0.3000 
    165 H165        2.4458  -18.3193  -45.0826 H         1 UNK         0.0600 
    166 H166        2.1430  -16.7922  -47.0263 H         1 UNK         0.0600 
    167 H167        1.4131  -18.3523  -47.3466 H         1 UNK         0.0600 
    168 H168        0.3913  -16.9812  -46.9278 H         1 UNK         0.0600 
    169 H169        1.2077  -15.7680  -44.9011 H         1 UNK         0.3000 
    170 H170        0.9954  -15.4241  -41.4348 H         1 UNK         0.0600 
    171 H171        3.4782  -15.1312  -41.6101 H         1 UNK         0.0600 
    172 H172        2.6502  -13.5820  -41.5973 H         1 UNK         0.0600 
    173 H173        3.2727  -14.2359  -43.1121 H         1 UNK         0.0600 
    174 H174        0.9226  -13.4008  -43.3777 H         1 UNK         0.3000 
    175 H175       -2.1939  -14.0281  -44.9154 H         1 UNK         0.0600 
    176 H176       -2.6801  -11.7269  -44.0899 H         1 UNK         0.0600 
    177 H177       -2.8795  -12.9303  -42.8253 H         1 UNK         0.0600 
    178 H178       -1.4542  -11.9053  -42.8351 H         1 UNK         0.0600 
    179 H179       -0.7537  -13.1329  -46.3109 H         1 UNK         0.3000 
    180 H180        1.4936  -10.5563  -46.3410 H         1 UNK         0.0600 
    181 H181        2.4656  -13.4578  -46.5791 H         1 UNK         0.0600 
    182 H182        3.1957  -12.2163  -45.5683 H         1 UNK         0.0600 
    183 H183        3.2271  -12.0485  -47.3153 H         1 UNK         0.0600 
    184 H184        0.9247  -12.5951  -48.2758 H         1 UNK         0.3000 
    185 H185       -1.6409  -12.2102  -49.4875 H         1 UNK         0.0600 
    186 H186       -0.9333   -9.3670  -50.3815 H         1 UNK         0.0600 
    187 H187       -1.9274  -10.5001  -51.2960 H         1 UNK         0.0600 
    188 H188       -2.4754   -9.9102  -49.7358 H         1 UNK         0.0600 
    189 H189       -0.0081  -12.9190  -50.7741 H         1 UNK         0.3000 
    190 H190        0.3236  -21.1202  -46.6172 H         1 UNK         0.3000 
    191 H191       -0.8810  -21.2437  -49.3044 H         1 UNK         0.0600 
    192 H192       -0.6952  -19.0647  -48.1661 H         1 UNK         0.0600 
    193 H193       -1.6397  -19.6590  -46.7963 H         1 UNK         0.0600 
    194 H194       -2.3842  -19.4785  -48.3690 H         1 UNK         0.0600 
    195 H195       -1.5650  -22.4688  -46.0475 H         1 UNK         0.3000 
    196 H196       -4.2978  -23.1957  -46.5215 H         1 UNK         0.0600 
    197 H197       -4.1348  -24.3180  -44.3550 H         1 UNK         0.0600 
    198 H198       -3.2884  -22.7830  -44.2394 H         1 UNK         0.0600 
    199 H199       -2.3819  -24.2909  -44.4002 H         1 UNK         0.0600 
    200 H200       -1.2372  -24.8659  -47.0265 H         1 UNK         0.3000 
    201 H201       -1.9610  -27.5043  -47.1861 H         1 UNK         0.0600 
    202 H202        0.3686  -26.7073  -47.2074 H         1 UNK         0.0600 
    203 H203        0.1525  -25.9791  -48.7987 H         1 UNK         0.0600 
    204 H204        0.1099  -27.7289  -48.6098 H         1 UNK         0.0600 
    205 H205       -2.7671  -25.0873  -49.5897 H         1 UNK         0.3000 
    206 H206       -3.3187  -26.9087  -51.7779 H         1 UNK         0.0600 
    207 H207       -2.8203  -24.5544  -52.2221 H         1 UNK         0.0600 
    208 H208       -4.4683  -24.8731  -52.7319 H         1 UNK         0.0600 
    209 H209       -4.1758  -24.0214  -51.2204 H         1 UNK         0.0600 
    210 H210       -5.0136  -26.0551  -48.8768 H         1 UNK         0.3000 
    211 H211       -6.9202  -26.5322  -47.9464 H         1 UNK         0.0600 
    212 H212       -7.3065  -28.7108  -50.0626 H         1 UNK         0.0600 
    213 H213       -8.0642  -28.6376  -48.4795 H         1 UNK         0.0600 
    214 H214       -6.3300  -28.8775  -48.6035 H         1 UNK         0.0600 
    215 H215       -6.9320  -24.7606  -50.5855 H         1 UNK         0.3000 
    216 H216       -9.6711  -23.9177  -50.2995 H         1 UNK         0.0600 
    217 H217      -10.2105  -24.1927  -52.7536 H         1 UNK         0.0600 
    218 H218      -10.0238  -25.7504  -51.9661 H         1 UNK         0.0600 
    219 H219       -8.7267  -25.1136  -52.9751 H         1 UNK         0.0600 
    220 H220       -9.9257  -21.8487  -51.0390 H         1 UNK         0.3000 
    221 H221       -9.5121  -19.7467  -51.5580 H         1 UNK         0.0600 
    222 H222       -7.7594  -20.9400  -53.7729 H         1 UNK         0.0600 
    223 H223       -9.5172  -20.8179  -53.8300 H         1 UNK         0.0600 
    224 H224       -8.5378  -19.3635  -53.7979 H         1 UNK         0.0600 
    225 H225       -7.3362  -21.1100  -49.8070 H         1 UNK         0.3000 
    226 H226       -5.3489  -20.7880  -48.8602 H         1 UNK         0.0600 
    227 H227       -6.3839  -18.6346  -48.1008 H         1 UNK         0.0600 
    228 H228       -4.6472  -18.4821  -48.3048 H         1 UNK         0.0600 
    229 H229       -5.7302  -17.8163  -49.5188 H         1 UNK         0.0600 
    230 H230       -5.3182  -21.6831  -51.4923 H         1 UNK         0.3000 
    231 H231       -4.0437  -22.1578  -53.2301 H         1 UNK         0.0600 
    232 H232       -2.2224  -22.4088  -51.4583 H         1 UNK         0.0600 
    233 H233       -1.7050  -20.7710  -51.8143 H         1 UNK         0.0600 
    234 H234       -1.6008  -22.0117  -53.0529 H         1 UNK         0.0600 
    235 H235       -5.2456  -19.2970  -52.8653 H         1 UNK         0.3000 
    236 H236       -5.5038  -17.3820  -53.8747 H         1 UNK         0.0600 
    237 H237       -4.9723  -17.0280  -56.2357 H         1 UNK         0.0600 
    238 H238       -3.8582  -18.3850  -56.2540 H         1 UNK         0.0600 
    239 H239       -5.5872  -18.6604  -56.0388 H         1 UNK         0.0600 
    240 H240       -3.1262  -18.0209  -52.1276 H         1 UNK         0.3000 
    241 H241       -1.0957  -16.0924  -52.9924 H         1 UNK         0.0600 
    242 H242       -3.4864  -14.2468  -50.3654 H         1 UNK         0.3800 
    243 H243       -3.9957  -15.6717  -51.2320 H         1 UNK         0.3800 
    244 H244        0.0841  -16.9047  -50.8662 H         1 UNK         0.0800 
    245 H245       -1.1966  -18.0659  -50.6710 H         1 UNK         0.0800 
    246 H246        1.6375  -20.4079  -52.0518 H         1 UNK         0.0800 
    247 H247        0.5103  -20.0931  -50.7573 H         1 UNK         0.0800 
@<TRIPOS>BOND
     1    1    2 1    
     2    1  127 1    
     3    1  128 1    
     4    1  129 1    
     5    2    3 2    
     6    2    4 am   BACKBONE|DICT|INTERRES
     7    4    5 1    
     8    4  130 1    
     9    5    6 1    
    10    5   65 1    
    11    5  131 1    
    12    6    7 1    
    13    6  132 1    
    14    6  133 1    
    15    7    8 1    
    16    8    9 1    
    17    8  134 1    
    18    8  135 1    
    19    9   10 ar   
    20    9   14 ar   
    21   10   11 ar   
    22   10  136 1    
    23   11   12 ar   
    24   11  126 1    
    25   12   13 ar   
    26   12  137 1    
    27   13   14 ar   
    28   13   15 1    
    29   14  138 1    
    30   15   16 1    
    31   15  139 1    
    32   15  140 1    
    33   16   17 1    
    34   17   18 1    
    35   17  141 1    
    36   17  142 1    
    37   18   19 1    
    38   18   67 1    
    39   18  143 1    
    40   19   20 am   BACKBONE|DICT|INTERRES
    41   19  144 1    
    42   20   21 2    
    43   20   22 1    
    44   22   23 1    
    45   22   24 1    
    46   22  145 1    
    47   23  146 1    
    48   23  147 1    
    49   23  148 1    
    50   24   25 am   BACKBONE|DICT|INTERRES
    51   24  149 1    
    52   25   26 2    
    53   25   27 1    
    54   27   28 1    
    55   27   29 1    
    56   27  150 1    
    57   28  151 1    
    58   28  152 1    
    59   28  153 1    
    60   29   30 am   BACKBONE|DICT|INTERRES
    61   29  154 1    
    62   30   31 2    
    63   30   32 1    
    64   32   33 1    
    65   32   34 1    
    66   32  155 1    
    67   33  156 1    
    68   33  157 1    
    69   33  158 1    
    70   34   35 am   BACKBONE|DICT|INTERRES
    71   34  159 1    
    72   35   36 2    
    73   35   37 1    
    74   37   38 1    
    75   37   39 1    
    76   37  160 1    
    77   38  161 1    
    78   38  162 1    
    79   38  163 1    
    80   39   40 am   BACKBONE|DICT|INTERRES
    81   39  164 1    
    82   40   41 2    
    83   40   42 1    
    84   42   43 1    
    85   42   44 1    
    86   42  165 1    
    87   43  166 1    
    88   43  167 1    
    89   43  168 1    
    90   44   45 am   BACKBONE|DICT|INTERRES
    91   44  169 1    
    92   45   46 2    
    93   45   47 1    
    94   47   48 1    
    95   47   49 1    
    96   47  170 1    
    97   48  171 1    
    98   48  172 1    
    99   48  173 1    
   100   49   50 am   BACKBONE|DICT|INTERRES
   101   49  174 1    
   102   50   51 2    
   103   50   52 1    
   104   52   53 1    
   105   52   54 1    
   106   52  175 1    
   107   53  176 1    
   108   53  177 1    
   109   53  178 1    
   110   54   55 am   BACKBONE|DICT|INTERRES
   111   54  179 1    
   112   55   56 2    
   113   55   57 1    
   114   57   58 1    
   115   57   59 1    
   116   57  180 1    
   117   58  181 1    
   118   58  182 1    
   119   58  183 1    
   120   59   60 am   BACKBONE|DICT|INTERRES
   121   59  184 1    
   122   60   61 2    
   123   60   62 1    
   124   62   63 1    
   125   62   64 1    
   126   62  185 1    
   127   63  186 1    
   128   63  187 1    
   129   63  188 1    
   130   64   65 am   BACKBONE|DICT|INTERRES
   131   64  189 1    
   132   65   66 2    
   133   67   68 2    
   134   67   69 am   BACKBONE|DICT|INTERRES
   135   69   70 1    
   136   69  190 1    
   137   70   71 1    
   138   70   72 1    
   139   70  191 1    
   140   71  192 1    
   141   71  193 1    
   142   71  194 1    
   143   72   73 2    
   144   72   74 am   BACKBONE|DICT|INTERRES
   145   74   75 1    
   146   74  195 1    
   147   75   76 1    
   148   75   77 1    
   149   75  196 1    
   150   76  197 1    
   151   76  198 1    
   152   76  199 1    
   153   77   78 2    
   154   77   79 am   BACKBONE|DICT|INTERRES
   155   79   80 1    
   156   79  200 1    
   157   80   81 1    
   158   80   82 1    
   159   80  201 1    
   160   81  202 1    
   161   81  203 1    
   162   81  204 1    
   163   82   83 2    
   164   82   84 am   BACKBONE|DICT|INTERRES
   165   84   85 1    
   166   84  205 1    
   167   85   86 1    
   168   85   87 1    
   169   85  206 1    
   170   86  207 1    
   171   86  208 1    
   172   86  209 1    
   173   87   88 2    
   174   87   89 am   BACKBONE|DICT|INTERRES
   175   89   90 1    
   176   89  210 1    
   177   90   91 1    
   178   90   92 1    
   179   90  211 1    
   180   91  212 1    
   181   91  213 1    
   182   91  214 1    
   183   92   93 2    
   184   92   94 am   BACKBONE|DICT|INTERRES
   185   94   95 1    
   186   94  215 1    
   187   95   96 1    
   188   95   97 1    
   189   95  216 1    
   190   96  217 1    
   191   96  218 1    
   192   96  219 1    
   193   97   98 2    
   194   97   99 am   BACKBONE|DICT|INTERRES
   195   99  100 1    
   196   99  220 1    
   197  100  101 1    
   198  100  102 1    
   199  100  221 1    
   200  101  222 1    
   201  101  223 1    
   202  101  224 1    
   203  102  103 2    
   204  102  104 am   BACKBONE|DICT|INTERRES
   205  104  105 1    
   206  104  225 1    
   207  105  106 1    
   208  105  107 1    
   209  105  226 1    
   210  106  227 1    
   211  106  228 1    
   212  106  229 1    
   213  107  108 2    
   214  107  109 am   BACKBONE|DICT|INTERRES
   215  109  110 1    
   216  109  230 1    
   217  110  111 1    
   218  110  112 1    
   219  110  231 1    
   220  111  232 1    
   221  111  233 1    
   222  111  234 1    
   223  112  113 2    
   224  112  114 am   BACKBONE|DICT|INTERRES
   225  114  115 1    
   226  114  235 1    
   227  115  116 1    
   228  115  117 1    
   229  115  236 1    
   230  116  237 1    
   231  116  238 1    
   232  116  239 1    
   233  117  118 2    
   234  117  119 am   BACKBONE|DICT|INTERRES
   235  119  120 1    
   236  119  240 1    
   237  120  121 1    
   238  120  124 1    
   239  120  241 1    
   240  121  122 am   BACKBONE|DICT|INTERRES
   241  121  123 2    
   242  122  242 1    
   243  122  243 1    
   244  124  125 1    
   245  124  244 1    
   246  124  245 1    
   247  125  126 1    
   248  126  246 1    
   249  126  247 1    
@<TRIPOS>SUBSTRUCTURE
     1 UNK         1 GROUP             0       ****    0 ROOT    
