@<TRIPOS>MOLECULE
3R540
247   249    1
SMALL
USER_CHARGES


@<TRIPOS>ATOM
      1 CA         -3.9001  -15.9710  -43.5844 C.3       0 UNK        -0.1800 
      2 C          -4.0242  -15.0362  -44.7795 C.2       0 UNK         0.5000 
      3 O          -5.0463  -14.3673  -44.9308 O.2       0 UNK        -0.5000 
      4 N          -2.9916  -15.0016  -45.6295 N.am      1 UNK        -0.5000 
      5 CA         -2.8797  -14.1148  -46.7927 C.3       1 UNK         0.1400 
      6 C6         -2.0901  -14.8030  -47.9408 C.3       23 UNK        -0.0398 
      7 S7         -0.3429  -15.1546  -47.5273 S.3       23 UNK        -0.2404 
      8 C8         -0.3703  -16.9495  -47.2548 C.3       23 UNK        -0.0205 
      9 C9          0.0185  -17.7207  -48.5051 C.ar      23 UNK        -0.0193 
     10 C10        -0.9384  -18.0277  -49.4760 C.ar      23 UNK        -0.1150 
     11 C11        -0.5865  -18.7564  -50.6159 C.ar      23 UNK        -0.0193 
     12 C12         0.7367  -19.1779  -50.7795 C.ar      23 UNK        -0.1150 
     13 C13         1.7051  -18.8807  -49.8147 C.ar      23 UNK        -0.0193 
     14 C14         1.3384  -18.1442  -48.6832 C.ar      23 UNK        -0.1150 
     15 C15         3.1484  -19.3332  -50.0190 C.3       23 UNK        -0.0205 
     16 S16         3.8620  -20.1893  -48.5738 S.3       23 UNK        -0.2404 
     17 C17         2.6875  -21.5661  -48.3528 C.3       23 UNK        -0.0398 
     18 CA          3.2986  -22.7596  -47.5774 C.3       11 UNK         0.1400 
     19 N           3.6357  -22.3973  -46.1964 N.am      11 UNK        -0.5000 
     20 C           4.4752  -23.0837  -45.4108 C.2       10 UNK         0.5000 
     21 O           5.0741  -24.0979  -45.7708 O.2       10 UNK        -0.5000 
     22 CA          4.6626  -22.5607  -43.9745 C.3       10 UNK         0.1400 
     23 CB          5.6373  -21.3734  -43.9460 C.3       10 UNK        -0.1800 
     24 N           3.3991  -22.1768  -43.3420 N.am      10 UNK        -0.5000 
     25 C           2.4357  -23.0404  -42.9891 C.2       9 UNK         0.5000 
     26 O           2.5174  -24.2586  -43.1464 O.2       9 UNK        -0.5000 
     27 CA          1.1548  -22.4465  -42.3746 C.3       9 UNK         0.1400 
     28 CB          1.3442  -22.1886  -40.8722 C.3       9 UNK        -0.1800 
     29 N           0.7312  -21.2093  -43.0266 N.am      9 UNK        -0.5000 
     30 C           0.3190  -21.1163  -44.2978 C.2       8 UNK         0.5000 
     31 O           0.2056  -22.0773  -45.0582 O.2       8 UNK        -0.5000 
     32 CA          0.0442  -19.6984  -44.8265 C.3       8 UNK         0.1400 
     33 CB         -1.3418  -19.2076  -44.3832 C.3       8 UNK        -0.1800 
     34 N           1.0727  -18.7390  -44.4228 N.am      8 UNK        -0.5000 
     35 C           2.3657  -18.8443  -44.7647 C.2       7 UNK         0.5000 
     36 O           2.8204  -19.7645  -45.4404 O.2       7 UNK        -0.5000 
     37 CA          3.3169  -17.7670  -44.2281 C.3       7 UNK         0.1400 
     38 CB          3.2656  -16.5187  -45.1145 C.3       7 UNK        -0.1800 
     39 N           3.0016  -17.4086  -42.8476 N.am      7 UNK        -0.5000 
     40 C           3.2103  -18.2204  -41.8011 C.2       6 UNK         0.5000 
     41 O           3.7456  -19.3263  -41.8862 O.2       6 UNK        -0.5000 
     42 CA          2.6770  -17.7340  -40.4419 C.3       6 UNK         0.1400 
     43 CB          3.6321  -16.7072  -39.8150 C.3       6 UNK        -0.1800 
     44 N           1.3372  -17.1533  -40.5455 N.am      6 UNK        -0.5000 
     45 C           0.2446  -17.8289  -40.9287 C.2       5 UNK         0.5000 
     46 O           0.2444  -19.0292  -41.1986 O.2       5 UNK        -0.5000 
     47 CA         -1.0629  -17.0292  -41.0643 C.3       5 UNK         0.1400 
     48 CB         -1.8904  -17.1283  -39.7749 C.3       5 UNK        -0.1800 
     49 N          -0.8631  -15.6183  -41.3991 N.am      5 UNK        -0.5000 
     50 C          -0.3378  -15.1528  -42.5409 C.2       4 UNK         0.5000 
     51 O           0.0602  -15.8813  -43.4549 O.2       4 UNK        -0.5000 
     52 CA         -0.3088  -13.6159  -42.6660 C.3       4 UNK         0.1400 
     53 CB          0.3049  -12.9313  -41.4238 C.3       4 UNK        -0.1800 
     54 N           0.3131  -13.1235  -43.8976 N.am      4 UNK        -0.5000 
     55 C           1.6103  -13.1348  -44.2416 C.2       3 UNK         0.5000 
     56 O           2.4976  -13.6248  -43.5415 O.2       3 UNK        -0.5000 
     57 CA          1.9935  -12.4540  -45.5775 C.3       3 UNK         0.1400 
     58 CB          2.8904  -13.3486  -46.4482 C.3       3 UNK        -0.1800 
     59 N           0.8273  -12.0520  -46.3677 N.am      3 UNK        -0.5000 
     60 C           0.2216  -10.8574  -46.3091 C.2       2 UNK         0.5000 
     61 O           0.6316   -9.9153  -45.6307 O.2       2 UNK        -0.5000 
     62 CA         -1.0851  -10.6979  -47.1185 C.3       2 UNK         0.1400 
     63 CB         -0.7983  -10.0375  -48.4755 C.3       2 UNK        -0.1800 
     64 N          -1.8002  -11.9606  -47.3439 N.am      2 UNK        -0.5000 
     65 C          -2.2980  -12.7406  -46.3729 C.2       1 UNK         0.5000 
     66 O          -2.2568  -12.4197  -45.1824 O.2       1 UNK        -0.5000 
     67 C           2.3430  -23.9697  -47.6580 C.2       11 UNK         0.5000 
     68 O           2.2904  -24.6108  -48.7077 O.2       11 UNK        -0.5000 
     69 N           1.5837  -24.2298  -46.5805 N.am      12 UNK        -0.5000 
     70 CA          0.4112  -25.1140  -46.5166 C.3       12 UNK         0.1400 
     71 CB          0.7962  -26.5900  -46.7476 C.3       12 UNK        -0.1800 
     72 C          -0.7020  -24.6048  -47.4587 C.2       12 UNK         0.5000 
     73 O          -1.2589  -25.3607  -48.2567 O.2       12 UNK        -0.5000 
     74 N          -0.9446  -23.2928  -47.3732 N.am      13 UNK        -0.5000 
     75 CA         -1.8145  -22.5173  -48.2468 C.3       13 UNK         0.1400 
     76 CB         -1.5233  -21.0323  -47.9942 C.3       13 UNK        -0.1800 
     77 C          -3.3094  -22.7767  -48.0121 C.2       13 UNK         0.5000 
     78 O          -3.7141  -23.1351  -46.9034 O.2       13 UNK        -0.5000 
     79 N          -4.1090  -22.4873  -49.0461 N.am      14 UNK        -0.5000 
     80 CA         -5.5566  -22.3153  -48.9312 C.3       14 UNK         0.1400 
     81 CB         -6.1972  -22.4398  -50.3205 C.3       14 UNK        -0.1800 
     82 C          -5.9080  -20.9579  -48.2929 C.2       14 UNK         0.5000 
     83 O          -6.8739  -20.8783  -47.5339 O.2       14 UNK        -0.5000 
     84 N          -5.1164  -19.9220  -48.6183 N.am      15 UNK        -0.5000 
     85 CA         -5.1454  -18.5292  -48.1455 C.3       15 UNK         0.1400 
     86 CB         -4.9081  -18.4475  -46.6270 C.3       15 UNK        -0.1800 
     87 C          -6.3893  -17.7225  -48.5716 C.2       15 UNK         0.5000 
     88 O          -6.2487  -16.5752  -48.9951 O.2       15 UNK        -0.5000 
     89 N          -7.5739  -18.3408  -48.4986 N.am      16 UNK        -0.5000 
     90 CA         -8.8343  -17.8394  -49.0543 C.3       16 UNK         0.1400 
     91 CB         -9.9975  -18.5994  -48.3988 C.3       16 UNK        -0.1800 
     92 C          -8.8965  -17.9752  -50.5912 C.2       16 UNK         0.5000 
     93 O          -9.7193  -17.3195  -51.2312 O.2       16 UNK        -0.5000 
     94 N          -8.0171  -18.8140  -51.1460 N.am      17 UNK        -0.5000 
     95 CA         -7.7314  -18.9810  -52.5636 C.3       17 UNK         0.1400 
     96 CB         -8.3553  -20.2985  -53.0495 C.3       17 UNK        -0.1800 
     97 C          -6.2025  -18.9755  -52.7300 C.2       17 UNK         0.5000 
     98 O          -5.4796  -19.0671  -51.7329 O.2       17 UNK        -0.5000 
     99 N          -5.7365  -18.8574  -53.9763 N.am      18 UNK        -0.5000 
    100 CA        -4.3221  -18.7356  -54.3219 C.3       18 UNK         0.1400 
    101 CB        -3.9819  -17.2452  -54.5141 C.3       18 UNK        -0.1800 
    102 C         -3.9774  -19.5820  -55.5572 C.2       18 UNK         0.5000 
    103 O         -4.8283  -20.3221  -56.0591 O.2       18 UNK        -0.5000 
    104 N         -2.7207  -19.4649  -56.0112 N.am      19 UNK        -0.5000 
    105 CA        -2.1192  -20.1678  -57.1474 C.3       19 UNK         0.1400 
    106 CB        -2.7447  -19.6897  -58.4779 C.3       19 UNK        -0.1800 
    107 C         -2.1582  -21.6932  -56.9351 C.2       19 UNK         0.5000 
    108 O         -1.5492  -22.1790  -55.9795 O.2       19 UNK        -0.5000 
    109 N         -2.8973  -22.4165  -57.7862 N.am      20 UNK        -0.5000 
    110 CA        -3.0808  -23.8696  -57.7399 C.3       20 UNK         0.1400 
    111 CB        -3.9085  -24.3024  -58.9598 C.3       20 UNK        -0.1800 
    112 C         -3.7228  -24.3950  -56.4389 C.2       20 UNK         0.5000 
    113 O         -3.5475  -25.5714  -56.1195 O.2       20 UNK        -0.5000 
    114 N         -4.4352  -23.5272  -55.7048 N.am      21 UNK        -0.5000 
    115 CA        -4.9999  -23.8385  -54.3917 C.3       21 UNK         0.1400 
    116 CB        -6.0570  -22.7857  -54.0355 C.3       21 UNK        -0.1800 
    117 C         -3.9306  -23.9268  -53.2839 C.2       21 UNK         0.5000 
    118 O         -4.1280  -24.6708  -52.3231 O.2       21 UNK        -0.5000 
    119 N         -2.8283  -23.1805  -53.4348 N.am      22 UNK        -0.5000 
    120 CA        -1.6723  -23.2067  -52.5242 C.3       22 UNK         0.1400 
    121 C         -0.5277  -24.1062  -53.0623 C.2       22 UNK         0.5000 
    122 N         -0.2842  -24.1462  -54.3667 N.am      22 UNK        -0.7600 
    123 O          0.1443  -24.7808  -52.2887 O.2       22 UNK        -0.5000 
    124 C124       -1.1335  -21.7869  -52.2178 C.3       23 UNK        -0.0398 
    125 S125       -2.3916  -20.7034  -51.4634 S.3       23 UNK        -0.2404 
    126 C126       -1.6331  -19.0606  -51.6783 C.3       23 UNK        -0.0205 
    127 H127       -3.8573  -15.3963  -42.6592 H         1 UNK         0.0600 
    128 H128       -3.0026  -16.5847  -43.6466 H         1 UNK         0.0600 
    129 H129       -4.7614  -16.6373  -43.5359 H         1 UNK         0.0600 
    130 H130       -2.1581  -15.5301  -45.4160 H         1 UNK         0.3000 
    131 H131       -3.8829  -13.9139  -47.1743 H         1 UNK         0.0600 
    132 H132       -2.5951  -15.7286  -48.2176 H         1 UNK         0.0800 
    133 H133       -2.1121  -14.1961  -48.8467 H         1 UNK         0.0800 
    134 H134        0.3316  -17.1695  -46.4526 H         1 UNK         0.0800 
    135 H135       -1.3497  -17.2728  -46.9013 H         1 UNK         0.0800 
    136 H136       -1.9598  -17.7031  -49.3447 H         1 UNK         0.1150 
    137 H137        1.0133  -19.7317  -51.6652 H         1 UNK         0.1150 
    138 H138        2.0829  -17.9075  -47.9363 H         1 UNK         0.1150 
    139 H139        3.2279  -19.9912  -50.8857 H         1 UNK         0.0800 
    140 H140        3.7585  -18.4572  -50.2421 H         1 UNK         0.0800 
    141 H141        1.8075  -21.1850  -47.8322 H         1 UNK         0.0800 
    142 H142        2.3499  -21.8809  -49.3424 H         1 UNK         0.0800 
    143 H143        4.2203  -23.0529  -48.0846 H         1 UNK         0.0600 
    144 H144        3.2406  -21.5243  -45.8509 H         1 UNK         0.3000 
    145 H145        5.1010  -23.3672  -43.3830 H         1 UNK         0.0600 
    146 H146        5.8217  -21.0391  -42.9250 H         1 UNK         0.0600 
    147 H147        5.2570  -20.5234  -44.5125 H         1 UNK         0.0600 
    148 H148        6.6003  -21.6495  -44.3772 H         1 UNK         0.0600 
    149 H149        3.2608  -21.1900  -43.1636 H         1 UNK         0.3000 
    150 H150        0.3555  -23.1803  -42.4974 H         1 UNK         0.0600 
    151 H151        1.6512  -23.0977  -40.3537 H         1 UNK         0.0600 
    152 H152        0.4165  -21.8482  -40.4118 H         1 UNK         0.0600 
    153 H153        2.1055  -21.4294  -40.6878 H         1 UNK         0.0600 
    154 H154        0.7468  -20.3676  -42.4562 H         1 UNK         0.3000 
    155 H155        0.0651  -19.7380  -45.9165 H         1 UNK         0.0600 
    156 H156       -2.1299  -19.8269  -44.8116 H         1 UNK         0.0600 
    157 H157       -1.5231  -18.1811  -44.6979 H         1 UNK         0.0600 
    158 H158       -1.4561  -19.2537  -43.3015 H         1 UNK         0.0600 
    159 H159        0.7760  -17.9389  -43.8773 H         1 UNK         0.3000 
    160 H160        4.3331  -18.1655  -44.2597 H         1 UNK         0.0600 
    161 H161        2.2714  -16.0710  -45.1167 H         1 UNK         0.0600 
    162 H162        3.5214  -16.7593  -46.1471 H         1 UNK         0.0600 
    163 H163        3.9740  -15.7661  -44.7691 H         1 UNK         0.0600 
    164 H164        2.5245  -16.5292  -42.7042 H         1 UNK         0.3000 
    165 H165        2.6193  -18.5993  -39.7780 H         1 UNK         0.0600 
    166 H166        3.3017  -16.4198  -38.8167 H         1 UNK         0.0600 
    167 H167        4.6375  -17.1190  -39.7175 H         1 UNK         0.0600 
    168 H168        3.7050  -15.8014  -40.4185 H         1 UNK         0.0600 
    169 H169        1.2473  -16.1687  -40.3440 H         1 UNK         0.3000 
    170 H170       -1.6423  -17.4808  -41.8693 H         1 UNK         0.0600 
    171 H171       -2.0795  -18.1699  -39.5114 H         1 UNK         0.0600 
    172 H172       -1.3791  -16.6637  -38.9308 H         1 UNK         0.0600 
    173 H173       -2.8601  -16.6435  -39.8901 H         1 UNK         0.0600 
    174 H174       -1.1747  -14.9531  -40.7063 H         1 UNK         0.3000 
    175 H175       -1.3520  -13.3032  -42.7289 H         1 UNK         0.0600 
    176 H176        1.3044  -13.3072  -41.2027 H         1 UNK         0.0600 
    177 H177        0.3785  -11.8529  -41.5659 H         1 UNK         0.0600 
    178 H178       -0.3065  -13.0905  -40.5354 H         1 UNK         0.0600 
    179 H179       -0.3455  -12.7229  -44.5555 H         1 UNK         0.3000 
    180 H180        2.5747  -11.5673  -45.3166 H         1 UNK         0.0600 
    181 H181        3.8056  -13.6195  -45.9213 H         1 UNK         0.0600 
    182 H182        3.1881  -12.8342  -47.3620 H         1 UNK         0.0600 
    183 H183        2.3863  -14.2704  -46.7357 H         1 UNK         0.0600 
    184 H184        0.4153  -12.7722  -46.9451 H         1 UNK         0.3000 
    185 H185       -1.7434  -10.0385  -46.5490 H         1 UNK         0.0600 
    186 H186       -0.2904   -9.0809  -48.3450 H         1 UNK         0.0600 
    187 H187       -0.1617  -10.6642  -49.1014 H         1 UNK         0.0600 
    188 H188       -1.7207   -9.8414  -49.0225 H         1 UNK         0.0600 
    189 H189       -1.8604  -12.2688  -48.3033 H         1 UNK         0.3000 
    190 H190        1.6913  -23.6134  -45.7849 H         1 UNK         0.3000 
    191 H191        0.0202  -25.0308  -45.5014 H         1 UNK         0.0600 
    192 H192       -0.0569  -27.2444  -46.5654 H         1 UNK         0.0600 
    193 H193        1.5934  -26.8985  -46.0713 H         1 UNK         0.0600 
    194 H194        1.1318  -26.7727  -47.7685 H         1 UNK         0.0600 
    195 H195       -0.4877  -22.7801  -46.6230 H         1 UNK         0.3000 
    196 H196       -1.5670  -22.7628  -49.2808 H         1 UNK         0.0600 
    197 H197       -1.7184  -20.7664  -46.9571 H         1 UNK         0.0600 
    198 H198       -0.4892  -20.7820  -48.2268 H         1 UNK         0.0600 
    199 H199       -2.1584  -20.3920  -48.6035 H         1 UNK         0.0600 
    200 H200       -3.6928  -22.2092  -49.9245 H         1 UNK         0.3000 
    201 H201       -5.9633  -23.1041  -48.2947 H         1 UNK         0.0600 
    202 H202       -7.2731  -22.2662  -50.2744 H         1 UNK         0.0600 
    203 H203       -6.0481  -23.4395  -50.7278 H         1 UNK         0.0600 
    204 H204       -5.7757  -21.7240  -51.0270 H         1 UNK         0.0600 
    205 H205       -4.4139  -20.0982  -49.3226 H         1 UNK         0.3000 
    206 H206       -4.2945  -18.0470  -48.6289 H         1 UNK         0.0600 
    207 H207       -3.9671  -18.9226  -46.3503 H         1 UNK         0.0600 
    208 H208       -4.8575  -17.4092  -46.3009 H         1 UNK         0.0600 
    209 H209       -5.7071  -18.9271  -46.0613 H         1 UNK         0.0600 
    210 H210       -7.5811  -19.2816  -48.1105 H         1 UNK         0.3000 
    211 H211       -8.9300  -16.7797  -48.8090 H         1 UNK         0.0600 
    212 H212       -9.9451  -19.6692  -48.6054 H         1 UNK         0.0600 
    213 H213      -10.9585  -18.2391  -48.7682 H         1 UNK         0.0600 
    214 H214       -9.9951  -18.4662  -47.3168 H         1 UNK         0.0600 
    215 H215       -7.3164  -19.2228  -50.5425 H         1 UNK         0.3000 
    216 H216       -8.1393  -18.1456  -53.1364 H         1 UNK         0.0600 
    217 H217       -9.4397  -20.2806  -52.9396 H         1 UNK         0.0600 
    218 H218       -7.9796  -21.1519  -52.4855 H         1 UNK         0.0600 
    219 H219       -8.1394  -20.4748  -54.1037 H         1 UNK         0.0600 
    220 H220       -6.3735  -18.8818  -54.7609 H         1 UNK         0.3000 
    221 H221       -3.7126  -19.1335  -53.5132 H         1 UNK         0.0600 
    222 H222       -2.9161  -17.0922  -54.6852 H         1 UNK         0.0600 
    223 H223       -4.5187  -16.8187  -55.3623 H         1 UNK         0.0600 
    224 H224       -4.2452  -16.6668  -53.6283 H         1 UNK         0.0600 
    225 H225       -2.0911  -18.8544  -55.5109 H         1 UNK         0.3000 
    226 H226       -1.0638  -19.8922  -57.1623 H         1 UNK         0.0600 
    227 H227       -2.6244  -18.6127  -58.5955 H         1 UNK         0.0600 
    228 H228       -2.2571  -20.1591  -59.3334 H         1 UNK         0.0600 
    229 H229       -3.8115  -19.9070  -58.5400 H         1 UNK         0.0600 
    230 H230       -3.3918  -21.9271  -58.5178 H         1 UNK         0.3000 
    231 H231       -2.0924  -24.3272  -57.8171 H         1 UNK         0.0600 
    232 H232       -4.0408  -25.3851  -58.9796 H         1 UNK         0.0600 
    233 H233       -3.4173  -24.0204  -59.8913 H         1 UNK         0.0600 
    234 H234       -4.9012  -23.8505  -58.9518 H         1 UNK         0.0600 
    235 H235       -4.5436  -22.5759  -56.0356 H         1 UNK         0.3000 
    236 H236       -5.4980  -24.8083  -54.4551 H         1 UNK         0.0600 
    237 H237       -5.6054  -21.8126  -53.8428 H         1 UNK         0.0600 
    238 H238       -6.7874  -22.6665  -54.8359 H         1 UNK         0.0600 
    239 H239       -6.6040  -23.0792  -53.1400 H         1 UNK         0.0600 
    240 H240       -2.7095  -22.6465  -54.2859 H         1 UNK         0.3000 
    241 H241       -1.9781  -23.6402  -51.5700 H         1 UNK         0.0600 
    242 H242       -0.7801  -23.5304  -55.0065 H         1 UNK         0.3800 
    243 H243        0.4549  -24.7358  -54.7140 H         1 UNK         0.3800 
    244 H244       -0.7650  -21.3187  -53.1324 H         1 UNK         0.0800 
    245 H245       -0.2865  -21.8439  -51.5318 H         1 UNK         0.0800 
    246 H246       -1.1959  -18.9756  -52.6739 H         1 UNK         0.0800 
    247 H247       -2.4245  -18.3106  -51.6332 H         1 UNK         0.0800 
@<TRIPOS>BOND
     1    1    2 1    
     2    1  127 1    
     3    1  128 1    
     4    1  129 1    
     5    2    3 2    
     6    2    4 am   BACKBONE|DICT|INTERRES
     7    4    5 1    
     8    4  130 1    
     9    5    6 1    
    10    5   65 1    
    11    5  131 1    
    12    6    7 1    
    13    6  132 1    
    14    6  133 1    
    15    7    8 1    
    16    8    9 1    
    17    8  134 1    
    18    8  135 1    
    19    9   10 ar   
    20    9   14 ar   
    21   10   11 ar   
    22   10  136 1    
    23   11   12 ar   
    24   11  126 1    
    25   12   13 ar   
    26   12  137 1    
    27   13   14 ar   
    28   13   15 1    
    29   14  138 1    
    30   15   16 1    
    31   15  139 1    
    32   15  140 1    
    33   16   17 1    
    34   17   18 1    
    35   17  141 1    
    36   17  142 1    
    37   18   19 1    
    38   18   67 1    
    39   18  143 1    
    40   19   20 am   BACKBONE|DICT|INTERRES
    41   19  144 1    
    42   20   21 2    
    43   20   22 1    
    44   22   23 1    
    45   22   24 1    
    46   22  145 1    
    47   23  146 1    
    48   23  147 1    
    49   23  148 1    
    50   24   25 am   BACKBONE|DICT|INTERRES
    51   24  149 1    
    52   25   26 2    
    53   25   27 1    
    54   27   28 1    
    55   27   29 1    
    56   27  150 1    
    57   28  151 1    
    58   28  152 1    
    59   28  153 1    
    60   29   30 am   BACKBONE|DICT|INTERRES
    61   29  154 1    
    62   30   31 2    
    63   30   32 1    
    64   32   33 1    
    65   32   34 1    
    66   32  155 1    
    67   33  156 1    
    68   33  157 1    
    69   33  158 1    
    70   34   35 am   BACKBONE|DICT|INTERRES
    71   34  159 1    
    72   35   36 2    
    73   35   37 1    
    74   37   38 1    
    75   37   39 1    
    76   37  160 1    
    77   38  161 1    
    78   38  162 1    
    79   38  163 1    
    80   39   40 am   BACKBONE|DICT|INTERRES
    81   39  164 1    
    82   40   41 2    
    83   40   42 1    
    84   42   43 1    
    85   42   44 1    
    86   42  165 1    
    87   43  166 1    
    88   43  167 1    
    89   43  168 1    
    90   44   45 am   BACKBONE|DICT|INTERRES
    91   44  169 1    
    92   45   46 2    
    93   45   47 1    
    94   47   48 1    
    95   47   49 1    
    96   47  170 1    
    97   48  171 1    
    98   48  172 1    
    99   48  173 1    
   100   49   50 am   BACKBONE|DICT|INTERRES
   101   49  174 1    
   102   50   51 2    
   103   50   52 1    
   104   52   53 1    
   105   52   54 1    
   106   52  175 1    
   107   53  176 1    
   108   53  177 1    
   109   53  178 1    
   110   54   55 am   BACKBONE|DICT|INTERRES
   111   54  179 1    
   112   55   56 2    
   113   55   57 1    
   114   57   58 1    
   115   57   59 1    
   116   57  180 1    
   117   58  181 1    
   118   58  182 1    
   119   58  183 1    
   120   59   60 am   BACKBONE|DICT|INTERRES
   121   59  184 1    
   122   60   61 2    
   123   60   62 1    
   124   62   63 1    
   125   62   64 1    
   126   62  185 1    
   127   63  186 1    
   128   63  187 1    
   129   63  188 1    
   130   64   65 am   BACKBONE|DICT|INTERRES
   131   64  189 1    
   132   65   66 2    
   133   67   68 2    
   134   67   69 am   BACKBONE|DICT|INTERRES
   135   69   70 1    
   136   69  190 1    
   137   70   71 1    
   138   70   72 1    
   139   70  191 1    
   140   71  192 1    
   141   71  193 1    
   142   71  194 1    
   143   72   73 2    
   144   72   74 am   BACKBONE|DICT|INTERRES
   145   74   75 1    
   146   74  195 1    
   147   75   76 1    
   148   75   77 1    
   149   75  196 1    
   150   76  197 1    
   151   76  198 1    
   152   76  199 1    
   153   77   78 2    
   154   77   79 am   BACKBONE|DICT|INTERRES
   155   79   80 1    
   156   79  200 1    
   157   80   81 1    
   158   80   82 1    
   159   80  201 1    
   160   81  202 1    
   161   81  203 1    
   162   81  204 1    
   163   82   83 2    
   164   82   84 am   BACKBONE|DICT|INTERRES
   165   84   85 1    
   166   84  205 1    
   167   85   86 1    
   168   85   87 1    
   169   85  206 1    
   170   86  207 1    
   171   86  208 1    
   172   86  209 1    
   173   87   88 2    
   174   87   89 am   BACKBONE|DICT|INTERRES
   175   89   90 1    
   176   89  210 1    
   177   90   91 1    
   178   90   92 1    
   179   90  211 1    
   180   91  212 1    
   181   91  213 1    
   182   91  214 1    
   183   92   93 2    
   184   92   94 am   BACKBONE|DICT|INTERRES
   185   94   95 1    
   186   94  215 1    
   187   95   96 1    
   188   95   97 1    
   189   95  216 1    
   190   96  217 1    
   191   96  218 1    
   192   96  219 1    
   193   97   98 2    
   194   97   99 am   BACKBONE|DICT|INTERRES
   195   99  100 1    
   196   99  220 1    
   197  100  101 1    
   198  100  102 1    
   199  100  221 1    
   200  101  222 1    
   201  101  223 1    
   202  101  224 1    
   203  102  103 2    
   204  102  104 am   BACKBONE|DICT|INTERRES
   205  104  105 1    
   206  104  225 1    
   207  105  106 1    
   208  105  107 1    
   209  105  226 1    
   210  106  227 1    
   211  106  228 1    
   212  106  229 1    
   213  107  108 2    
   214  107  109 am   BACKBONE|DICT|INTERRES
   215  109  110 1    
   216  109  230 1    
   217  110  111 1    
   218  110  112 1    
   219  110  231 1    
   220  111  232 1    
   221  111  233 1    
   222  111  234 1    
   223  112  113 2    
   224  112  114 am   BACKBONE|DICT|INTERRES
   225  114  115 1    
   226  114  235 1    
   227  115  116 1    
   228  115  117 1    
   229  115  236 1    
   230  116  237 1    
   231  116  238 1    
   232  116  239 1    
   233  117  118 2    
   234  117  119 am   BACKBONE|DICT|INTERRES
   235  119  120 1    
   236  119  240 1    
   237  120  121 1    
   238  120  124 1    
   239  120  241 1    
   240  121  122 am   BACKBONE|DICT|INTERRES
   241  121  123 2    
   242  122  242 1    
   243  122  243 1    
   244  124  125 1    
   245  124  244 1    
   246  124  245 1    
   247  125  126 1    
   248  126  246 1    
   249  126  247 1    
@<TRIPOS>SUBSTRUCTURE
     1 UNK         1 GROUP             0       ****    0 ROOT    
