@<TRIPOS>MOLECULE
3R540
247   249    1
SMALL
USER_CHARGES


@<TRIPOS>ATOM
      1 CA          2.9076  -10.0185  -49.9412 C.3       0 UNK        -0.1800 
      2 C           3.0037  -10.8641  -48.6799 C.2       0 UNK         0.5000 
      3 O           3.4929  -10.3866  -47.6556 O.2       0 UNK        -0.5000 
      4 N           2.5209  -12.1133  -48.7402 N.am      1 UNK        -0.5000 
      5 CA          2.5782  -13.0989  -47.6485 C.3       1 UNK         0.1400 
      6 C6          2.1863  -14.5241  -48.1049 C.3       23 UNK        -0.0398 
      7 S7          3.2302  -15.1345  -49.4686 S.3       23 UNK        -0.2404 
      8 C8          1.9900  -15.4325  -50.7660 C.3       23 UNK        -0.0205 
      9 C9          1.1435  -16.6645  -50.4780 C.ar      23 UNK        -0.0193 
     10 C10        -0.2093  -16.5414  -50.1499 C.ar      23 UNK        -0.1150 
     11 C11        -0.9982  -17.6799  -49.9606 C.ar      23 UNK        -0.0193 
     12 C12        -0.4193  -18.9468  -50.0824 C.ar      23 UNK        -0.1150 
     13 C13         0.9453  -19.0875  -50.3725 C.ar      23 UNK        -0.0193 
     14 C14         1.7112  -17.9368  -50.5786 C.ar      23 UNK        -0.1150 
     15 C15         1.6428  -20.4440  -50.5069 C.3       23 UNK        -0.0205 
     16 S16         0.7415  -21.8918  -49.8573 S.3       23 UNK        -0.2404 
     17 C17         0.6537  -21.4942  -48.0786 C.3       23 UNK        -0.0398 
     18 CA          0.0027  -22.6072  -47.2264 C.3       11 UNK         0.1400 
     19 N           0.1259  -22.3090  -45.7980 N.am      11 UNK        -0.5000 
     20 C          -0.1750  -23.1592  -44.8078 C.2       10 UNK         0.5000 
     21 O          -0.5521  -24.3152  -44.9900 O.2       10 UNK        -0.5000 
     22 CA         -0.0975  -22.6098  -43.3739 C.3       10 UNK         0.1400 
     23 CB          1.3558  -22.5812  -42.8792 C.3       10 UNK        -0.1800 
     24 N          -0.6976  -21.2799  -43.2538 N.am      10 UNK        -0.5000 
     25 C          -1.9939  -21.0154  -43.4757 C.2       9 UNK         0.5000 
     26 O          -2.8260  -21.8776  -43.7539 O.2       9 UNK        -0.5000 
     27 CA         -2.4310  -19.5412  -43.4205 C.3       9 UNK         0.1400 
     28 CB         -2.6263  -19.0843  -41.9675 C.3       9 UNK        -0.1800 
     29 N          -1.4933  -18.6452  -44.0956 N.am      9 UNK        -0.5000 
     30 C          -1.2034  -18.6767  -45.4044 C.2       8 UNK         0.5000 
     31 O          -1.7205  -19.4535  -46.2056 O.2       8 UNK        -0.5000 
     32 CA         -0.1039  -17.7143  -45.8856 C.3       8 UNK         0.1400 
     33 CB         -0.6504  -16.2854  -46.0330 C.3       8 UNK        -0.1800 
     34 N           1.0464  -17.7167  -44.9809 N.am      8 UNK        -0.5000 
     35 C           1.8394  -18.7775  -44.7690 C.2       7 UNK         0.5000 
     36 O           1.7176  -19.8535  -45.3557 O.2       7 UNK        -0.5000 
     37 CA          2.9180  -18.6221  -43.6838 C.3       7 UNK         0.1400 
     38 CB          4.1532  -17.9025  -44.2458 C.3       7 UNK        -0.1800 
     39 N           2.4158  -17.9010  -42.5130 N.am      7 UNK        -0.5000 
     40 C           1.5366  -18.4093  -41.6360 C.2       6 UNK         0.5000 
     41 O           1.0864  -19.5513  -41.7123 O.2       6 UNK        -0.5000 
     42 CA          1.0376  -17.4803  -40.5099 C.3       6 UNK         0.1400 
     43 CB          1.9748  -17.5553  -39.2957 C.3       6 UNK        -0.1800 
     44 N           0.9023  -16.0849  -40.9283 N.am      6 UNK        -0.5000 
     45 C           0.1117  -15.6602  -41.9224 C.2       5 UNK         0.5000 
     46 O          -0.6749  -16.3932  -42.5209 O.2       5 UNK        -0.5000 
     47 CA          0.2448  -14.1904  -42.3641 C.3       5 UNK         0.1400 
     48 CB         -0.9022  -13.3557  -41.7759 C.3       5 UNK        -0.1800 
     49 N           1.5210  -13.5276  -42.0635 N.am      5 UNK        -0.5000 
     50 C           2.7521  -13.9648  -42.3736 C.2       4 UNK         0.5000 
     51 O           2.9987  -15.0941  -42.7998 O.2       4 UNK        -0.5000 
     52 CA          3.8744  -12.9256  -42.2399 C.3       4 UNK         0.1400 
     53 CB          5.2608  -13.4713  -42.6288 C.3       4 UNK        -0.1800 
     54 N           3.5310  -11.8028  -43.1050 N.am      4 UNK        -0.5000 
     55 C           3.7009  -10.5065  -42.8188 C.2       3 UNK         0.5000 
     56 O           4.2402  -10.1023  -41.7880 O.2       3 UNK        -0.5000 
     57 CA          3.1729   -9.4815  -43.8468 C.3       3 UNK         0.1400 
     58 CB          4.3329   -8.9086  -44.6748 C.3       3 UNK        -0.1800 
     59 N           2.1662  -10.0319  -44.7592 N.am      3 UNK        -0.5000 
     60 C           0.9293  -10.4083  -44.3977 C.2       2 UNK         0.5000 
     61 O           0.4750  -10.2397  -43.2662 O.2       2 UNK        -0.5000 
     62 CA          0.0642  -11.1275  -45.4562 C.3       2 UNK         0.1400 
     63 CB         -0.9690  -10.1610  -46.0537 C.3       2 UNK        -0.1800 
     64 N           0.8346  -11.7318  -46.5472 N.am      2 UNK        -0.5000 
     65 C           1.7567  -12.6954  -46.4058 C.2       1 UNK         0.5000 
     66 O           2.0030  -13.2343  -45.3300 O.2       1 UNK        -0.5000 
     67 C          -1.4640  -22.8861  -47.6289 C.2       11 UNK         0.5000 
     68 O          -1.7265  -23.8670  -48.3276 O.2       11 UNK        -0.5000 
     69 N          -2.3994  -22.0563  -47.1466 N.am      12 UNK        -0.5000 
     70 CA         -3.8400  -22.2207  -47.3493 C.3       12 UNK         0.1400 
     71 CB         -4.5784  -20.9783  -46.8318 C.3       12 UNK        -0.1800 
     72 C          -4.4104  -23.5051  -46.7184 C.2       12 UNK         0.5000 
     73 O          -5.3631  -24.0655  -47.2582 O.2       12 UNK        -0.5000 
     74 N          -3.8203  -23.9573  -45.6061 N.am      13 UNK        -0.5000 
     75 CA         -4.1793  -25.2006  -44.9326 C.3       13 UNK         0.1400 
     76 CB         -3.7637  -25.1207  -43.4544 C.3       13 UNK        -0.1800 
     77 C          -3.5578  -26.4316  -45.6161 C.2       13 UNK         0.5000 
     78 O          -4.2846  -27.3593  -45.9733 O.2       13 UNK        -0.5000 
     79 N          -2.2255  -26.4372  -45.7550 N.am      14 UNK        -0.5000 
     80 CA         -1.4490  -27.6160  -46.1415 C.3       14 UNK         0.1400 
     81 CB         -0.0201  -27.4807  -45.5926 C.3       14 UNK        -0.1800 
     82 C          -1.4103  -27.8674  -47.6567 C.2       14 UNK         0.5000 
     83 O          -1.4359  -29.0269  -48.0717 O.2       14 UNK        -0.5000 
     84 N          -1.3269  -26.7936  -48.4512 N.am      15 UNK        -0.5000 
     85 CA         -1.1606  -26.8477  -49.9069 C.3       15 UNK         0.1400 
     86 CB          0.0952  -26.0417  -50.2847 C.3       15 UNK        -0.1800 
     87 C          -2.3967  -26.3173  -50.6537 C.2       15 UNK         0.5000 
     88 O          -2.3480  -26.1827  -51.8779 O.2       15 UNK        -0.5000 
     89 N          -3.4626  -25.9735  -49.9126 N.am      16 UNK        -0.5000 
     90 CA         -4.7115  -25.3572  -50.3817 C.3       16 UNK         0.1400 
     91 CB         -5.4951  -26.3428  -51.2748 C.3       16 UNK        -0.1800 
     92 C          -4.5019  -23.9914  -51.0744 C.2       16 UNK         0.5000 
     93 O          -5.3511  -23.5776  -51.8637 O.2       16 UNK        -0.5000 
     94 N          -3.3459  -23.3504  -50.8293 N.am      17 UNK        -0.5000 
     95 CA         -2.8068  -22.1884  -51.5484 C.3       17 UNK         0.1400 
     96 CB         -3.5804  -20.9128  -51.1719 C.3       17 UNK        -0.1800 
     97 C          -2.7068  -22.4075  -53.0770 C.2       17 UNK         0.5000 
     98 O          -2.8658  -21.4632  -53.8512 O.2       17 UNK        -0.5000 
     99 N          -2.4886  -23.6703  -53.4813 N.am      18 UNK        -0.5000 
    100 CA        -2.5097  -24.1876  -54.8537 C.3       18 UNK         0.1400 
    101 CB        -1.3754  -23.5685  -55.6969 C.3       18 UNK        -0.1800 
    102 C         -3.8896  -24.0788  -55.5438 C.2       18 UNK         0.5000 
    103 O         -3.9574  -24.1662  -56.7706 O.2       18 UNK        -0.5000 
    104 N         -4.9619  -23.8862  -54.7579 N.am      19 UNK        -0.5000 
    105 CA        -6.3837  -23.7612  -55.1112 C.3       19 UNK         0.1400 
    106 CB        -6.9010  -25.0499  -55.7773 C.3       19 UNK        -0.1800 
    107 C         -6.7600  -22.5181  -55.9454 C.2       19 UNK         0.5000 
    108 O         -7.8547  -21.9831  -55.7674 O.2       19 UNK        -0.5000 
    109 N         -5.8691  -22.0830  -56.8416 N.am      20 UNK        -0.5000 
    110 CA        -6.0612  -20.9660  -57.7651 C.3       20 UNK         0.1400 
    111 CB        -5.0483  -21.1083  -58.9124 C.3       20 UNK        -0.1800 
    112 C         -5.9357  -19.5763  -57.1106 C.2       20 UNK         0.5000 
    113 O         -6.3784  -18.5963  -57.7121 O.2       20 UNK        -0.5000 
    114 N         -5.3268  -19.5014  -55.9213 N.am      21 UNK        -0.5000 
    115 CA        -5.0781  -18.2667  -55.1813 C.3       21 UNK         0.1400 
    116 CB        -3.5591  -18.0316  -55.1198 C.3       21 UNK        -0.1800 
    117 C         -5.6654  -18.3520  -53.7646 C.2       21 UNK         0.5000 
    118 O         -5.9478  -19.4458  -53.2719 O.2       21 UNK        -0.5000 
    119 N         -5.8049  -17.1784  -53.1349 N.am      22 UNK        -0.5000 
    120 CA        -6.1573  -16.9717  -51.7157 C.3       22 UNK         0.1400 
    121 C         -7.6142  -17.3663  -51.3224 C.2       22 UNK         0.5000 
    122 N         -8.5203  -17.5813  -52.2679 N.am      22 UNK        -0.7600 
    123 O         -7.9430  -17.4439  -50.1416 O.2       22 UNK        -0.5000 
    124 C124       -5.0989  -17.5507  -50.7313 C.3       23 UNK        -0.0398 
    125 S125       -3.3939  -17.0432  -51.1462 S.3       23 UNK        -0.2404 
    126 C126       -2.4821  -17.5424  -49.6551 C.3       23 UNK        -0.0205 
    127 H127        2.3117   -9.1261  -49.7497 H         1 UNK         0.0600 
    128 H128        2.4463  -10.5668  -50.7630 H         1 UNK         0.0600 
    129 H129        3.9022   -9.7044  -50.2575 H         1 UNK         0.0600 
    130 H130        2.1379  -12.4509  -49.6113 H         1 UNK         0.3000 
    131 H131        3.6185  -13.1384  -47.3178 H         1 UNK         0.0600 
    132 H132        2.2977  -15.2319  -47.2811 H         1 UNK         0.0800 
    133 H133        1.1352  -14.5557  -48.3951 H         1 UNK         0.0800 
    134 H134        1.3649  -14.5470  -50.8904 H         1 UNK         0.0800 
    135 H135        2.5063  -15.5739  -51.7166 H         1 UNK         0.0800 
    136 H136       -0.6608  -15.5622  -50.0747 H         1 UNK         0.1150 
    137 H137       -1.0425  -19.8183  -49.9501 H         1 UNK         0.1150 
    138 H138        2.7593  -18.0291  -50.8277 H         1 UNK         0.1150 
    139 H139        1.8439  -20.6189  -51.5645 H         1 UNK         0.0800 
    140 H140        2.6147  -20.4004  -50.0128 H         1 UNK         0.0800 
    141 H141        0.1244  -20.5521  -47.9358 H         1 UNK         0.0800 
    142 H142        1.6729  -21.3189  -47.7311 H         1 UNK         0.0800 
    143 H143        0.5613  -23.5287  -47.4050 H         1 UNK         0.0600 
    144 H144        0.4634  -21.3815  -45.5580 H         1 UNK         0.3000 
    145 H145       -0.6600  -23.2883  -42.7294 H         1 UNK         0.0600 
    146 H146        1.4080  -22.2932  -41.8293 H         1 UNK         0.0600 
    147 H147        1.8188  -23.5647  -42.9688 H         1 UNK         0.0600 
    148 H148        1.9632  -21.8783  -43.4497 H         1 UNK         0.0600 
    149 H149       -0.0804  -20.5276  -42.9640 H         1 UNK         0.3000 
    150 H150       -3.3914  -19.4598  -43.9329 H         1 UNK         0.0600 
    151 H151       -3.3514  -19.7164  -41.4536 H         1 UNK         0.0600 
    152 H152       -2.9968  -18.0600  -41.9227 H         1 UNK         0.0600 
    153 H153       -1.6946  -19.1274  -41.4035 H         1 UNK         0.0600 
    154 H154       -1.0514  -17.9346  -43.5173 H         1 UNK         0.3000 
    155 H155        0.2378  -18.0521  -46.8668 H         1 UNK         0.0600 
    156 H156       -1.4398  -16.2493  -46.7838 H         1 UNK         0.0600 
    157 H157        0.1270  -15.5912  -46.3457 H         1 UNK         0.0600 
    158 H158       -1.0718  -15.9101  -45.1008 H         1 UNK         0.0600 
    159 H159        1.2003  -16.8846  -44.4304 H         1 UNK         0.3000 
    160 H160        3.2232  -19.6214  -43.3666 H         1 UNK         0.0600 
    161 H161        3.9112  -16.9009  -44.6036 H         1 UNK         0.0600 
    162 H162        4.5773  -18.4558  -45.0846 H         1 UNK         0.0600 
    163 H163        4.9327  -17.8079  -43.4898 H         1 UNK         0.0600 
    164 H164        2.6960  -16.9266  -42.4276 H         1 UNK         0.3000 
    165 H165        0.0510  -17.8322  -40.2028 H         1 UNK         0.0600 
    166 H166        1.5890  -16.9680  -38.4623 H         1 UNK         0.0600 
    167 H167        2.0794  -18.5835  -38.9467 H         1 UNK         0.0600 
    168 H168        2.9730  -17.1861  -39.5347 H         1 UNK         0.0600 
    169 H169        1.5293  -15.4182  -40.5033 H         1 UNK         0.3000 
    170 H170        0.1409  -14.1846  -43.4508 H         1 UNK         0.0600 
    171 H171       -1.8707  -13.8048  -42.0006 H         1 UNK         0.0600 
    172 H172       -0.8219  -13.2729  -40.6914 H         1 UNK         0.0600 
    173 H173       -0.9127  -12.3478  -42.1902 H         1 UNK         0.0600 
    174 H174        1.4417  -12.5767  -41.7319 H         1 UNK         0.3000 
    175 H175        3.9004  -12.6098  -41.1950 H         1 UNK         0.0600 
    176 H176        5.2837  -13.8047  -43.6672 H         1 UNK         0.0600 
    177 H177        6.0319  -12.7110  -42.5043 H         1 UNK         0.0600 
    178 H178        5.5363  -14.3208  -42.0027 H         1 UNK         0.0600 
    179 H179        3.0403  -12.0590  -43.9560 H         1 UNK         0.3000 
    180 H180        2.7140   -8.6631  -43.2884 H         1 UNK         0.0600 
    181 H181        4.8343   -9.6856  -45.2535 H         1 UNK         0.0600 
    182 H182        5.0811   -8.4433  -44.0318 H         1 UNK         0.0600 
    183 H183        3.9831   -8.1461  -45.3710 H         1 UNK         0.0600 
    184 H184        2.4684  -10.1976  -45.7125 H         1 UNK         0.3000 
    185 H185       -0.4711  -11.9301  -44.9445 H         1 UNK         0.0600 
    186 H186       -1.5837   -9.7130  -45.2717 H         1 UNK         0.0600 
    187 H187       -0.4893   -9.3483  -46.6006 H         1 UNK         0.0600 
    188 H188       -1.6426  -10.6766  -46.7384 H         1 UNK         0.0600 
    189 H189        0.7051  -11.3335  -47.4656 H         1 UNK         0.3000 
    190 H190       -2.1092  -21.2361  -46.6190 H         1 UNK         0.3000 
    191 H191       -4.0193  -22.2879  -48.4215 H         1 UNK         0.0600 
    192 H192       -4.2400  -20.0773  -47.3439 H         1 UNK         0.0600 
    193 H193       -5.6527  -21.0634  -46.9996 H         1 UNK         0.0600 
    194 H194       -4.4226  -20.8353  -45.7626 H         1 UNK         0.0600 
    195 H195       -3.0916  -23.3965  -45.1794 H         1 UNK         0.3000 
    196 H196       -5.2650  -25.3160  -44.9615 H         1 UNK         0.0600 
    197 H197       -4.0173  -26.0406  -42.9262 H         1 UNK         0.0600 
    198 H198       -4.2761  -24.3026  -42.9478 H         1 UNK         0.0600 
    199 H199       -2.6914  -24.9600  -43.3400 H         1 UNK         0.0600 
    200 H200       -1.6892  -25.6237  -45.4555 H         1 UNK         0.3000 
    201 H201       -1.8990  -28.4945  -45.6735 H         1 UNK         0.0600 
    202 H202       -0.0237  -27.3495  -44.5104 H         1 UNK         0.0600 
    203 H203        0.5008  -26.6285  -46.0310 H         1 UNK         0.0600 
    204 H204        0.5688  -28.3725  -45.8107 H         1 UNK         0.0600 
    205 H205       -1.3485  -25.8642  -48.0442 H         1 UNK         0.3000 
    206 H206       -1.0113  -27.8755  -50.2430 H         1 UNK         0.0600 
    207 H207        0.9756  -26.4182  -49.7639 H         1 UNK         0.0600 
    208 H208        0.3000  -26.1088  -51.3538 H         1 UNK         0.0600 
    209 H209       -0.0115  -24.9851  -50.0387 H         1 UNK         0.0600 
    210 H210       -3.3861  -26.0986  -48.9131 H         1 UNK         0.3000 
    211 H211       -5.3212  -25.1690  -49.5008 H         1 UNK         0.0600 
    212 H212       -4.9946  -26.5148  -52.2282 H         1 UNK         0.0600 
    213 H213       -6.4929  -25.9623  -51.4964 H         1 UNK         0.0600 
    214 H214       -5.6206  -27.3070  -50.7823 H         1 UNK         0.0600 
    215 H215       -2.7262  -23.7564  -50.1353 H         1 UNK         0.3000 
    216 H216       -1.7822  -22.0628  -51.2031 H         1 UNK         0.0600 
    217 H217       -3.1579  -20.0379  -51.6668 H         1 UNK         0.0600 
    218 H218       -3.5381  -20.7257  -50.1002 H         1 UNK         0.0600 
    219 H219       -4.6287  -20.9786  -51.4624 H         1 UNK         0.0600 
    220 H220       -2.3953  -24.3884  -52.7684 H         1 UNK         0.3000 
    221 H221       -2.3067  -25.2559  -54.7672 H         1 UNK         0.0600 
    222 H222       -1.5537  -22.5137  -55.9070 H         1 UNK         0.0600 
    223 H223       -0.4150  -23.6527  -55.1886 H         1 UNK         0.0600 
    224 H224       -1.2782  -24.0782  -56.6561 H         1 UNK         0.0600 
    225 H225       -4.7918  -23.7814  -53.7623 H         1 UNK         0.3000 
    226 H226       -6.9073  -23.6559  -54.1599 H         1 UNK         0.0600 
    227 H227       -6.7097  -25.9209  -55.1505 H         1 UNK         0.0600 
    228 H228       -7.9782  -24.9974  -55.9404 H         1 UNK         0.0600 
    229 H229       -6.4341  -25.2237  -56.7470 H         1 UNK         0.0600 
    230 H230       -5.0179  -22.6278  -56.9473 H         1 UNK         0.3000 
    231 H231       -7.0658  -21.0379  -58.1870 H         1 UNK         0.0600 
    232 H232       -4.0211  -21.0599  -58.5482 H         1 UNK         0.0600 
    233 H233       -5.1743  -20.3139  -59.6492 H         1 UNK         0.0600 
    234 H234       -5.1743  -22.0571  -59.4345 H         1 UNK         0.0600 
    235 H235       -5.0524  -20.3544  -55.4523 H         1 UNK         0.3000 
    236 H236       -5.5432  -17.4154  -55.6824 H         1 UNK         0.0600 
    237 H237       -3.1296  -17.9647  -56.1194 H         1 UNK         0.0600 
    238 H238       -3.3230  -17.1011  -54.6022 H         1 UNK         0.0600 
    239 H239       -3.0496  -18.8370  -54.5895 H         1 UNK         0.0600 
    240 H240       -5.5594  -16.3362  -53.6349 H         1 UNK         0.3000 
    241 H241       -6.1374  -15.8893  -51.5849 H         1 UNK         0.0600 
    242 H242       -9.4631  -17.8249  -52.0076 H         1 UNK         0.3800 
    243 H243       -8.2663  -17.5237  -53.2410 H         1 UNK         0.3800 
    244 H244       -5.3110  -17.2232  -49.7121 H         1 UNK         0.0800 
    245 H245       -5.1496  -18.6391  -50.7193 H         1 UNK         0.0800 
    246 H246       -2.6351  -16.7999  -48.8714 H         1 UNK         0.0800 
    247 H247       -2.8804  -18.4833  -49.2725 H         1 UNK         0.0800 
@<TRIPOS>BOND
     1    1    2 1    
     2    1  127 1    
     3    1  128 1    
     4    1  129 1    
     5    2    3 2    
     6    2    4 am   BACKBONE|DICT|INTERRES
     7    4    5 1    
     8    4  130 1    
     9    5    6 1    
    10    5   65 1    
    11    5  131 1    
    12    6    7 1    
    13    6  132 1    
    14    6  133 1    
    15    7    8 1    
    16    8    9 1    
    17    8  134 1    
    18    8  135 1    
    19    9   10 ar   
    20    9   14 ar   
    21   10   11 ar   
    22   10  136 1    
    23   11   12 ar   
    24   11  126 1    
    25   12   13 ar   
    26   12  137 1    
    27   13   14 ar   
    28   13   15 1    
    29   14  138 1    
    30   15   16 1    
    31   15  139 1    
    32   15  140 1    
    33   16   17 1    
    34   17   18 1    
    35   17  141 1    
    36   17  142 1    
    37   18   19 1    
    38   18   67 1    
    39   18  143 1    
    40   19   20 am   BACKBONE|DICT|INTERRES
    41   19  144 1    
    42   20   21 2    
    43   20   22 1    
    44   22   23 1    
    45   22   24 1    
    46   22  145 1    
    47   23  146 1    
    48   23  147 1    
    49   23  148 1    
    50   24   25 am   BACKBONE|DICT|INTERRES
    51   24  149 1    
    52   25   26 2    
    53   25   27 1    
    54   27   28 1    
    55   27   29 1    
    56   27  150 1    
    57   28  151 1    
    58   28  152 1    
    59   28  153 1    
    60   29   30 am   BACKBONE|DICT|INTERRES
    61   29  154 1    
    62   30   31 2    
    63   30   32 1    
    64   32   33 1    
    65   32   34 1    
    66   32  155 1    
    67   33  156 1    
    68   33  157 1    
    69   33  158 1    
    70   34   35 am   BACKBONE|DICT|INTERRES
    71   34  159 1    
    72   35   36 2    
    73   35   37 1    
    74   37   38 1    
    75   37   39 1    
    76   37  160 1    
    77   38  161 1    
    78   38  162 1    
    79   38  163 1    
    80   39   40 am   BACKBONE|DICT|INTERRES
    81   39  164 1    
    82   40   41 2    
    83   40   42 1    
    84   42   43 1    
    85   42   44 1    
    86   42  165 1    
    87   43  166 1    
    88   43  167 1    
    89   43  168 1    
    90   44   45 am   BACKBONE|DICT|INTERRES
    91   44  169 1    
    92   45   46 2    
    93   45   47 1    
    94   47   48 1    
    95   47   49 1    
    96   47  170 1    
    97   48  171 1    
    98   48  172 1    
    99   48  173 1    
   100   49   50 am   BACKBONE|DICT|INTERRES
   101   49  174 1    
   102   50   51 2    
   103   50   52 1    
   104   52   53 1    
   105   52   54 1    
   106   52  175 1    
   107   53  176 1    
   108   53  177 1    
   109   53  178 1    
   110   54   55 am   BACKBONE|DICT|INTERRES
   111   54  179 1    
   112   55   56 2    
   113   55   57 1    
   114   57   58 1    
   115   57   59 1    
   116   57  180 1    
   117   58  181 1    
   118   58  182 1    
   119   58  183 1    
   120   59   60 am   BACKBONE|DICT|INTERRES
   121   59  184 1    
   122   60   61 2    
   123   60   62 1    
   124   62   63 1    
   125   62   64 1    
   126   62  185 1    
   127   63  186 1    
   128   63  187 1    
   129   63  188 1    
   130   64   65 am   BACKBONE|DICT|INTERRES
   131   64  189 1    
   132   65   66 2    
   133   67   68 2    
   134   67   69 am   BACKBONE|DICT|INTERRES
   135   69   70 1    
   136   69  190 1    
   137   70   71 1    
   138   70   72 1    
   139   70  191 1    
   140   71  192 1    
   141   71  193 1    
   142   71  194 1    
   143   72   73 2    
   144   72   74 am   BACKBONE|DICT|INTERRES
   145   74   75 1    
   146   74  195 1    
   147   75   76 1    
   148   75   77 1    
   149   75  196 1    
   150   76  197 1    
   151   76  198 1    
   152   76  199 1    
   153   77   78 2    
   154   77   79 am   BACKBONE|DICT|INTERRES
   155   79   80 1    
   156   79  200 1    
   157   80   81 1    
   158   80   82 1    
   159   80  201 1    
   160   81  202 1    
   161   81  203 1    
   162   81  204 1    
   163   82   83 2    
   164   82   84 am   BACKBONE|DICT|INTERRES
   165   84   85 1    
   166   84  205 1    
   167   85   86 1    
   168   85   87 1    
   169   85  206 1    
   170   86  207 1    
   171   86  208 1    
   172   86  209 1    
   173   87   88 2    
   174   87   89 am   BACKBONE|DICT|INTERRES
   175   89   90 1    
   176   89  210 1    
   177   90   91 1    
   178   90   92 1    
   179   90  211 1    
   180   91  212 1    
   181   91  213 1    
   182   91  214 1    
   183   92   93 2    
   184   92   94 am   BACKBONE|DICT|INTERRES
   185   94   95 1    
   186   94  215 1    
   187   95   96 1    
   188   95   97 1    
   189   95  216 1    
   190   96  217 1    
   191   96  218 1    
   192   96  219 1    
   193   97   98 2    
   194   97   99 am   BACKBONE|DICT|INTERRES
   195   99  100 1    
   196   99  220 1    
   197  100  101 1    
   198  100  102 1    
   199  100  221 1    
   200  101  222 1    
   201  101  223 1    
   202  101  224 1    
   203  102  103 2    
   204  102  104 am   BACKBONE|DICT|INTERRES
   205  104  105 1    
   206  104  225 1    
   207  105  106 1    
   208  105  107 1    
   209  105  226 1    
   210  106  227 1    
   211  106  228 1    
   212  106  229 1    
   213  107  108 2    
   214  107  109 am   BACKBONE|DICT|INTERRES
   215  109  110 1    
   216  109  230 1    
   217  110  111 1    
   218  110  112 1    
   219  110  231 1    
   220  111  232 1    
   221  111  233 1    
   222  111  234 1    
   223  112  113 2    
   224  112  114 am   BACKBONE|DICT|INTERRES
   225  114  115 1    
   226  114  235 1    
   227  115  116 1    
   228  115  117 1    
   229  115  236 1    
   230  116  237 1    
   231  116  238 1    
   232  116  239 1    
   233  117  118 2    
   234  117  119 am   BACKBONE|DICT|INTERRES
   235  119  120 1    
   236  119  240 1    
   237  120  121 1    
   238  120  124 1    
   239  120  241 1    
   240  121  122 am   BACKBONE|DICT|INTERRES
   241  121  123 2    
   242  122  242 1    
   243  122  243 1    
   244  124  125 1    
   245  124  244 1    
   246  124  245 1    
   247  125  126 1    
   248  126  246 1    
   249  126  247 1    
@<TRIPOS>SUBSTRUCTURE
     1 UNK         1 GROUP             0       ****    0 ROOT    
