@<TRIPOS>MOLECULE
3R540
247   249    1
SMALL
USER_CHARGES


@<TRIPOS>ATOM
      1 CA         -2.6824  -16.8062  -46.2701 C.3       0 UNK        -0.1800 
      2 C          -3.2252  -15.3981  -46.4459 C.2       0 UNK         0.5000 
      3 O          -3.1823  -14.6150  -45.4984 O.2       0 UNK        -0.5000 
      4 N          -3.7151  -15.0731  -47.6458 N.am      1 UNK        -0.5000 
      5 CA         -4.0832  -13.7114  -48.0512 C.3       1 UNK         0.1400 
      6 C6         -5.3249  -13.7001  -48.9730 C.3       23 UNK        -0.0398 
      7 S7         -6.8294  -14.0772  -48.0112 S.3       23 UNK        -0.2404 
      8 C8         -7.8942  -14.8917  -49.2447 C.3       23 UNK        -0.0205 
      9 C9         -7.4721  -16.3145  -49.5986 C.ar      23 UNK        -0.0193 
     10 C10        -7.5237  -16.7308  -50.9319 C.ar      23 UNK        -0.1150 
     11 C11        -7.1829  -18.0392  -51.2843 C.ar      23 UNK        -0.0193 
     12 C12        -6.8026  -18.9419  -50.2883 C.ar      23 UNK        -0.1150 
     13 C13        -6.7531  -18.5457  -48.9494 C.ar      23 UNK        -0.0193 
     14 C14        -7.0895  -17.2312  -48.6107 C.ar      23 UNK        -0.1150 
     15 C15        -6.3663  -19.5464  -47.8701 C.3       23 UNK        -0.0205 
     16 S16        -4.5864  -19.4823  -47.5042 S.3       23 UNK        -0.2404 
     17 C17        -4.4245  -20.7879  -46.2397 C.3       23 UNK        -0.0398 
     18 CA         -3.2979  -21.7901  -46.5910 C.3       11 UNK         0.1400 
     19 N          -1.9627  -21.2118  -46.4266 N.am      11 UNK        -0.5000 
     20 C          -0.9281  -21.4928  -47.2274 C.2       10 UNK         0.5000 
     21 O          -1.0114  -22.2104  -48.2227 O.2       10 UNK        -0.5000 
     22 CA          0.4481  -20.9420  -46.8047 C.3       10 UNK         0.1400 
     23 CB          0.6160  -19.4653  -47.1869 C.3       10 UNK        -0.1800 
     24 N           0.6950  -21.0930  -45.3726 N.am      10 UNK        -0.5000 
     25 C           0.7117  -22.2661  -44.7284 C.2       9 UNK         0.5000 
     26 O           0.5411  -23.3523  -45.2826 O.2       9 UNK        -0.5000 
     27 CA          0.9142  -22.2349  -43.2052 C.3       9 UNK         0.1400 
     28 CB          2.3944  -22.4688  -42.8701 C.3       9 UNK        -0.1800 
     29 N           0.4601  -21.0233  -42.5139 N.am      9 UNK        -0.5000 
     30 C          -0.7365  -20.4215  -42.5928 C.2       8 UNK         0.5000 
     31 O          -1.6081  -20.7200  -43.4150 O.2       8 UNK        -0.5000 
     32 CA         -1.0181  -19.3336  -41.5417 C.3       8 UNK         0.1400 
     33 CB          0.2406  -18.7928  -40.8286 C.3       8 UNK        -0.1800 
     34 N          -1.7474  -18.2155  -42.1303 N.am      8 UNK        -0.5000 
     35 C          -2.7109  -17.5291  -41.5011 C.2       7 UNK         0.5000 
     36 O          -3.1793  -17.8656  -40.4112 O.2       7 UNK        -0.5000 
     37 CA         -3.2228  -16.2400  -42.1856 C.3       7 UNK         0.1400 
     38 CB         -3.8447  -15.2432  -41.1860 C.3       7 UNK        -0.1800 
     39 N          -2.2181  -15.5584  -43.0086 N.am      7 UNK        -0.5000 
     40 C          -0.9963  -15.1455  -42.6459 C.2       6 UNK         0.5000 
     41 O          -0.5287  -15.2440  -41.5093 O.2       6 UNK        -0.5000 
     42 CA         -0.1432  -14.5256  -43.7657 C.3       6 UNK         0.1400 
     43 CB          0.0699  -13.0233  -43.5263 C.3       6 UNK        -0.1800 
     44 N           1.1561  -15.1820  -43.9066 N.am      6 UNK        -0.5000 
     45 C           1.3459  -16.4743  -44.2066 C.2       5 UNK         0.5000 
     46 O           0.4382  -17.3009  -44.3305 O.2       5 UNK        -0.5000 
     47 CA          2.7969  -16.8945  -44.5039 C.3       5 UNK         0.1400 
     48 CB          3.1038  -18.3012  -43.9606 C.3       5 UNK        -0.1800 
     49 N           2.9791  -16.9013  -45.9564 N.am      5 UNK        -0.5000 
     50 C           3.2432  -15.8711  -46.7731 C.2       4 UNK         0.5000 
     51 O           3.1528  -15.9897  -47.9957 O.2       4 UNK        -0.5000 
     52 CA          3.7165  -14.5197  -46.2063 C.3       4 UNK         0.1400 
     53 CB          5.2520  -14.4325  -46.2001 C.3       4 UNK        -0.1800 
     54 N           3.1584  -13.4572  -47.0327 N.am      4 UNK        -0.5000 
     55 C           2.8773  -12.2198  -46.6103 C.2       3 UNK         0.5000 
     56 O           3.1588  -11.8041  -45.4855 O.2       3 UNK        -0.5000 
     57 CA          2.1422  -11.2874  -47.5950 C.3       3 UNK         0.1400 
     58 CB          3.1480  -10.3892  -48.3316 C.3       3 UNK        -0.1800 
     59 N           1.3017  -11.9723  -48.5843 N.am      3 UNK        -0.5000 
     60 C           0.2438  -12.7443  -48.2998 C.2       2 UNK         0.5000 
     61 O          -0.0981  -13.0388  -47.1518 O.2       2 UNK        -0.5000 
     62 CA         -0.5367  -13.2950  -49.5122 C.3       2 UNK         0.1400 
     63 CB          0.2234  -14.4716  -50.1462 C.3       2 UNK        -0.1800 
     64 N          -1.8740  -13.7549  -49.1434 N.am      2 UNK        -0.5000 
     65 C          -2.8749  -12.9882  -48.6871 C.2       1 UNK         0.5000 
     66 O          -2.8524  -11.7564  -48.7130 O.2       1 UNK        -0.5000 
     67 C          -3.4294  -23.0763  -45.7534 C.2       11 UNK         0.5000 
     68 O          -4.0002  -24.0521  -46.2400 O.2       11 UNK        -0.5000 
     69 N          -2.9263  -23.0566  -44.5101 N.am      12 UNK        -0.5000 
     70 CA         -3.1915  -24.0940  -43.5108 C.3       12 UNK         0.1400 
     71 CB         -2.8711  -23.5448  -42.1120 C.3       12 UNK        -0.1800 
     72 C          -2.4643  -25.4317  -43.7447 C.2       12 UNK         0.5000 
     73 O          -3.0099  -26.4700  -43.3682 O.2       12 UNK        -0.5000 
     74 N          -1.2592  -25.3967  -44.3289 N.am      13 UNK        -0.5000 
     75 CA         -0.4087  -26.5736  -44.5301 C.3       13 UNK         0.1400 
     76 CB          0.9096  -26.3945  -43.7583 C.3       13 UNK        -0.1800 
     77 C          -0.1407  -26.8259  -46.0203 C.2       13 UNK         0.5000 
     78 O          -0.2551  -27.9664  -46.4699 O.2       13 UNK        -0.5000 
     79 N           0.1882  -25.7639  -46.7682 N.am      14 UNK        -0.5000 
     80 CA          0.4841  -25.8181  -48.2040 C.3       14 UNK         0.1400 
     81 CB          1.4447  -24.6733  -48.5582 C.3       14 UNK        -0.1800 
     82 C          -0.7739  -25.8147  -49.0998 C.2       14 UNK         0.5000 
     83 O          -0.6411  -25.8723  -50.3233 O.2       14 UNK        -0.5000 
     84 N          -1.9668  -25.7580  -48.4860 N.am      15 UNK        -0.5000 
     85 CA         -3.2934  -25.8722  -49.1067 C.3       15 UNK         0.1400 
     86 CB         -3.4998  -27.2915  -49.6761 C.3       15 UNK        -0.1800 
     87 C          -3.5972  -24.7696  -50.1425 C.2       15 UNK         0.5000 
     88 O          -4.3633  -24.9984  -51.0805 O.2       15 UNK        -0.5000 
     89 N          -2.9757  -23.5973  -49.9618 N.am      16 UNK        -0.5000 
     90 CA         -3.0353  -22.3802  -50.7717 C.3       16 UNK         0.1400 
     91 CB         -4.4611  -21.8104  -50.8594 C.3       16 UNK        -0.1800 
     92 C          -2.3839  -22.4913  -52.1584 C.2       16 UNK         0.5000 
     93 O          -1.6164  -21.6025  -52.5304 O.2       16 UNK        -0.5000 
     94 N          -2.6951  -23.5650  -52.8916 N.am      17 UNK        -0.5000 
     95 CA         -2.2957  -23.8000  -54.2773 C.3       17 UNK         0.1400 
     96 CB         -3.0101  -25.0560  -54.7985 C.3       17 UNK        -0.1800 
     97 C          -0.7760  -23.9173  -54.4837 C.2       17 UNK         0.5000 
     98 O          -0.2618  -23.3804  -55.4654 O.2       17 UNK        -0.5000 
     99 N          -0.0823  -24.6041  -53.5644 N.am      18 UNK        -0.5000 
    100 CA         1.3648  -24.8220  -53.6497 C.3       18 UNK         0.1400 
    101 CB         1.7574  -26.0267  -52.7818 C.3       18 UNK        -0.1800 
    102 C          2.1789  -23.5778  -53.2511 C.2       18 UNK         0.5000 
    103 O          3.2770  -23.3796  -53.7722 O.2       18 UNK        -0.5000 
    104 N          1.6299  -22.7676  -52.3374 N.am      19 UNK        -0.5000 
    105 CA         2.2600  -21.5493  -51.8282 C.3       19 UNK         0.1400 
    106 CB         1.8114  -21.3388  -50.3737 C.3       19 UNK        -0.1800 
    107 C          1.9395  -20.3002  -52.6698 C.2       19 UNK         0.5000 
    108 O          2.6544  -19.3054  -52.5470 O.2       19 UNK        -0.5000 
    109 N          0.8614  -20.3580  -53.4687 N.am      20 UNK        -0.5000 
    110 CA         0.2010  -19.2332  -54.1454 C.3       20 UNK         0.1400 
    111 CB         1.1072  -18.6081  -55.2260 C.3       20 UNK        -0.1800 
    112 C         -0.3309  -18.2121  -53.1162 C.2       20 UNK         0.5000 
    113 O         -0.1142  -17.0057  -53.2441 O.2       20 UNK        -0.5000 
    114 N         -0.9925  -18.7445  -52.0802 N.am      21 UNK        -0.5000 
    115 CA        -1.3748  -18.0362  -50.8568 C.3       21 UNK         0.1400 
    116 CB        -1.7553  -19.0730  -49.7987 C.3       21 UNK        -0.1800 
    117 C         -2.5311  -17.0372  -51.0157 C.2       21 UNK         0.5000 
    118 O         -2.8215  -16.3111  -50.0649 O.2       21 UNK        -0.5000 
    119 N         -3.1875  -17.0363  -52.1789 N.am      22 UNK        -0.5000 
    120 CA        -4.3484  -16.1890  -52.4798 C.3       22 UNK         0.1400 
    121 C         -4.0155  -14.6852  -52.7027 C.2       22 UNK         0.5000 
    122 N         -2.7572  -14.3033  -52.8871 N.am      22 UNK        -0.7600 
    123 O         -4.9158  -13.8509  -52.6980 O.2       22 UNK        -0.5000 
    124 C124       -5.1881  -16.7507  -53.6572 C.3       23 UNK        -0.0398 
    125 S125       -5.5858  -18.5292  -53.4969 S.3       23 UNK        -0.2404 
    126 C126       -7.2390  -18.4846  -52.7375 C.3       23 UNK        -0.0205 
    127 H127       -3.2923  -17.3656  -45.5609 H         1 UNK         0.0600 
    128 H128       -1.6601  -16.7726  -45.8960 H         1 UNK         0.0600 
    129 H129       -2.6722  -17.3421  -47.2161 H         1 UNK         0.0600 
    130 H130       -3.6902  -15.7550  -48.3986 H         1 UNK         0.3000 
    131 H131       -4.3328  -13.1273  -47.1626 H         1 UNK         0.0600 
    132 H132       -5.4655  -12.7215  -49.4355 H         1 UNK         0.0800 
    133 H133       -5.2080  -14.4161  -49.7878 H         1 UNK         0.0800 
    134 H134       -7.9335  -14.2647  -50.1370 H         1 UNK         0.0800 
    135 H135       -8.9106  -14.9285  -48.8510 H         1 UNK         0.0800 
    136 H136       -7.8299  -16.0346  -51.7002 H         1 UNK         0.1150 
    137 H137       -6.5523  -19.9569  -50.5580 H         1 UNK         0.1150 
    138 H138       -7.0617  -16.9257  -47.5743 H         1 UNK         0.1150 
    139 H139       -6.6362  -20.5561  -48.1835 H         1 UNK         0.0800 
    140 H140       -6.9300  -19.3437  -46.9582 H         1 UNK         0.0800 
    141 H141       -4.2400  -20.3192  -45.2715 H         1 UNK         0.0800 
    142 H142       -5.3827  -21.3032  -46.1498 H         1 UNK         0.0800 
    143 H143       -3.4448  -22.0830  -47.6322 H         1 UNK         0.0600 
    144 H144       -1.7991  -20.6699  -45.5871 H         1 UNK         0.3000 
    145 H145        1.2133  -21.5153  -47.3308 H         1 UNK         0.0600 
    146 H146        1.5862  -19.0931  -46.8651 H         1 UNK         0.0600 
    147 H147       -0.1529  -18.8360  -46.7367 H         1 UNK         0.0600 
    148 H148        0.5749  -19.3298  -48.2661 H         1 UNK         0.0600 
    149 H149        0.7913  -20.2467  -44.8313 H         1 UNK         0.3000 
    150 H150        0.3457  -23.0708  -42.7962 H         1 UNK         0.0600 
    151 H151        3.0176  -21.6386  -43.2052 H         1 UNK         0.0600 
    152 H152        2.7685  -23.3746  -43.3495 H         1 UNK         0.0600 
    153 H153        2.5429  -22.5891  -41.7968 H         1 UNK         0.0600 
    154 H154        1.0948  -20.6737  -41.8110 H         1 UNK         0.3000 
    155 H155       -1.6429  -19.8237  -40.7926 H         1 UNK         0.0600 
    156 H156       -0.0253  -18.0303  -40.0960 H         1 UNK         0.0600 
    157 H157        0.9354  -18.3360  -41.5337 H         1 UNK         0.0600 
    158 H158        0.7693  -19.5765  -40.2850 H         1 UNK         0.0600 
    159 H159       -1.4104  -17.8937  -43.0297 H         1 UNK         0.3000 
    160 H160       -4.0105  -16.5563  -42.8707 H         1 UNK         0.0600 
    161 H161       -3.1207  -14.9200  -40.4373 H         1 UNK         0.0600 
    162 H162       -4.6881  -15.6887  -40.6573 H         1 UNK         0.0600 
    163 H163       -4.2180  -14.3553  -41.6964 H         1 UNK         0.0600 
    164 H164       -2.5183  -15.3485  -43.9587 H         1 UNK         0.3000 
    165 H165       -0.6617  -14.6414  -44.7188 H         1 UNK         0.0600 
    166 H166        0.6070  -12.5645  -44.3566 H         1 UNK         0.0600 
    167 H167       -0.8859  -12.5056  -43.4359 H         1 UNK         0.0600 
    168 H168        0.6351  -12.8355  -42.6127 H         1 UNK         0.0600 
    169 H169        1.9565  -14.5820  -43.7806 H         1 UNK         0.3000 
    170 H170        3.4935  -16.2074  -44.0221 H         1 UNK         0.0600 
    171 H171        4.1341  -18.5868  -44.1733 H         1 UNK         0.0600 
    172 H172        2.4544  -19.0612  -44.3940 H         1 UNK         0.0600 
    173 H173        2.9761  -18.3374  -42.8785 H         1 UNK         0.0600 
    174 H174        2.7029  -17.7631  -46.3995 H         1 UNK         0.3000 
    175 H175        3.3546  -14.3797  -45.1909 H         1 UNK         0.0600 
    176 H176        5.6847  -15.2239  -45.5869 H         1 UNK         0.0600 
    177 H177        5.6634  -14.5318  -47.2054 H         1 UNK         0.0600 
    178 H178        5.5936  -13.4813  -45.7915 H         1 UNK         0.0600 
    179 H179        2.8724  -13.7474  -47.9589 H         1 UNK         0.3000 
    180 H180        1.4877  -10.6471  -47.0000 H         1 UNK         0.0600 
    181 H181        3.8113  -10.9707  -48.9730 H         1 UNK         0.0600 
    182 H182        3.7728   -9.8403  -47.6255 H         1 UNK         0.0600 
    183 H183        2.6392   -9.6517  -48.9527 H         1 UNK         0.0600 
    184 H184        1.5264  -11.7955  -49.5528 H         1 UNK         0.3000 
    185 H185       -0.6419  -12.4977  -50.2505 H         1 UNK         0.0600 
    186 H186        1.2224  -14.1731  -50.4661 H         1 UNK         0.0600 
    187 H187        0.3390  -15.2990  -49.4445 H         1 UNK         0.0600 
    188 H188       -0.2954  -14.8479  -51.0278 H         1 UNK         0.0600 
    189 H189       -2.0188  -14.7578  -49.1444 H         1 UNK         0.3000 
    190 H190       -2.4632  -22.2160  -44.1746 H         1 UNK         0.3000 
    191 H191       -4.2626  -24.3072  -43.5374 H         1 UNK         0.0600 
    192 H192       -3.4344  -22.6343  -41.9063 H         1 UNK         0.0600 
    193 H193       -3.1323  -24.2690  -41.3393 H         1 UNK         0.0600 
    194 H194       -1.8126  -23.3161  -41.9989 H         1 UNK         0.0600 
    195 H195       -0.8792  -24.5095  -44.6403 H         1 UNK         0.3000 
    196 H196       -0.8933  -27.4708  -44.1398 H         1 UNK         0.0600 
    197 H197        1.5423  -27.2769  -43.8605 H         1 UNK         0.0600 
    198 H198        0.7247  -26.2488  -42.6940 H         1 UNK         0.0600 
    199 H199        1.4827  -25.5399  -44.1174 H         1 UNK         0.0600 
    200 H200        0.2947  -24.8577  -46.3177 H         1 UNK         0.3000 
    201 H201        1.0060  -26.7531  -48.4176 H         1 UNK         0.0600 
    202 H202        1.6797  -24.6610  -49.6226 H         1 UNK         0.0600 
    203 H203        2.3873  -24.7731  -48.0201 H         1 UNK         0.0600 
    204 H204        1.0222  -23.7052  -48.3036 H         1 UNK         0.0600 
    205 H205       -1.9639  -25.6761  -47.4795 H         1 UNK         0.3000 
    206 H206       -4.0190  -25.7364  -48.3045 H         1 UNK         0.0600 
    207 H207       -3.2886  -28.0520  -48.9243 H         1 UNK         0.0600 
    208 H208       -4.5300  -27.4379  -50.0023 H         1 UNK         0.0600 
    209 H209       -2.8551  -27.4805  -50.5350 H         1 UNK         0.0600 
    210 H210       -2.3162  -23.5358  -49.1932 H         1 UNK         0.3000 
    211 H211       -2.4380  -21.6621  -50.2218 H         1 UNK         0.0600 
    212 H212       -5.1358  -22.4690  -51.4064 H         1 UNK         0.0600 
    213 H213       -4.4593  -20.8481  -51.3733 H         1 UNK         0.0600 
    214 H214       -4.8789  -21.6490  -49.8660 H         1 UNK         0.0600 
    215 H215       -3.3327  -24.2372  -52.4733 H         1 UNK         0.3000 
    216 H216       -2.6397  -22.9460  -54.8644 H         1 UNK         0.0600 
    217 H217       -2.7483  -25.2528  -55.8390 H         1 UNK         0.0600 
    218 H218       -2.7432  -25.9403  -54.2183 H         1 UNK         0.0600 
    219 H219       -4.0932  -24.9405  -54.7528 H         1 UNK         0.0600 
    220 H220       -0.5663  -25.0102  -52.7740 H         1 UNK         0.3000 
    221 H221        1.6179  -25.0643  -54.6844 H         1 UNK         0.0600 
    222 H222        1.5842  -25.8362  -51.7235 H         1 UNK         0.0600 
    223 H223        1.1930  -26.9168  -53.0600 H         1 UNK         0.0600 
    224 H224        2.8158  -26.2621  -52.9004 H         1 UNK         0.0600 
    225 H225        0.7171  -22.9994  -51.9738 H         1 UNK         0.3000 
    226 H226        3.3455  -21.6700  -51.8290 H         1 UNK         0.0600 
    227 H227        2.1804  -20.3922  -49.9768 H         1 UNK         0.0600 
    228 H228        0.7252  -21.3348  -50.2847 H         1 UNK         0.0600 
    229 H229        2.1986  -22.1271  -49.7300 H         1 UNK         0.0600 
    230 H230        0.3220  -21.2144  -53.4524 H         1 UNK         0.3000 
    231 H231       -0.6735  -19.6487  -54.6486 H         1 UNK         0.0600 
    232 H232        1.9749  -18.1080  -54.7954 H         1 UNK         0.0600 
    233 H233        0.5602  -17.8646  -55.8067 H         1 UNK         0.0600 
    234 H234        1.4672  -19.3648  -55.9231 H         1 UNK         0.0600 
    235 H235       -1.1620  -19.7459  -52.0973 H         1 UNK         0.3000 
    236 H236       -0.5009  -17.4857  -50.5035 H         1 UNK         0.0600 
    237 H237       -2.7536  -19.4722  -49.9767 H         1 UNK         0.0600 
    238 H238       -1.0510  -19.9013  -49.7830 H         1 UNK         0.0600 
    239 H239       -1.7605  -18.6308  -48.8046 H         1 UNK         0.0600 
    240 H240       -2.8987  -17.6815  -52.8980 H         1 UNK         0.3000 
    241 H241       -4.9783  -16.2106  -51.5913 H         1 UNK         0.0600 
    242 H242       -2.0136  -14.9845  -52.9048 H         1 UNK         0.3800 
    243 H243       -2.5511  -13.3279  -53.0307 H         1 UNK         0.3800 
    244 H244       -4.6453  -16.6224  -54.5952 H         1 UNK         0.0800 
    245 H245       -6.1152  -16.1861  -53.7688 H         1 UNK         0.0800 
    246 H246       -7.8959  -17.8364  -53.3196 H         1 UNK         0.0800 
    247 H247       -7.6753  -19.4831  -52.7907 H         1 UNK         0.0800 
@<TRIPOS>BOND
     1    1    2 1    
     2    1  127 1    
     3    1  128 1    
     4    1  129 1    
     5    2    3 2    
     6    2    4 am   BACKBONE|DICT|INTERRES
     7    4    5 1    
     8    4  130 1    
     9    5    6 1    
    10    5   65 1    
    11    5  131 1    
    12    6    7 1    
    13    6  132 1    
    14    6  133 1    
    15    7    8 1    
    16    8    9 1    
    17    8  134 1    
    18    8  135 1    
    19    9   10 ar   
    20    9   14 ar   
    21   10   11 ar   
    22   10  136 1    
    23   11   12 ar   
    24   11  126 1    
    25   12   13 ar   
    26   12  137 1    
    27   13   14 ar   
    28   13   15 1    
    29   14  138 1    
    30   15   16 1    
    31   15  139 1    
    32   15  140 1    
    33   16   17 1    
    34   17   18 1    
    35   17  141 1    
    36   17  142 1    
    37   18   19 1    
    38   18   67 1    
    39   18  143 1    
    40   19   20 am   BACKBONE|DICT|INTERRES
    41   19  144 1    
    42   20   21 2    
    43   20   22 1    
    44   22   23 1    
    45   22   24 1    
    46   22  145 1    
    47   23  146 1    
    48   23  147 1    
    49   23  148 1    
    50   24   25 am   BACKBONE|DICT|INTERRES
    51   24  149 1    
    52   25   26 2    
    53   25   27 1    
    54   27   28 1    
    55   27   29 1    
    56   27  150 1    
    57   28  151 1    
    58   28  152 1    
    59   28  153 1    
    60   29   30 am   BACKBONE|DICT|INTERRES
    61   29  154 1    
    62   30   31 2    
    63   30   32 1    
    64   32   33 1    
    65   32   34 1    
    66   32  155 1    
    67   33  156 1    
    68   33  157 1    
    69   33  158 1    
    70   34   35 am   BACKBONE|DICT|INTERRES
    71   34  159 1    
    72   35   36 2    
    73   35   37 1    
    74   37   38 1    
    75   37   39 1    
    76   37  160 1    
    77   38  161 1    
    78   38  162 1    
    79   38  163 1    
    80   39   40 am   BACKBONE|DICT|INTERRES
    81   39  164 1    
    82   40   41 2    
    83   40   42 1    
    84   42   43 1    
    85   42   44 1    
    86   42  165 1    
    87   43  166 1    
    88   43  167 1    
    89   43  168 1    
    90   44   45 am   BACKBONE|DICT|INTERRES
    91   44  169 1    
    92   45   46 2    
    93   45   47 1    
    94   47   48 1    
    95   47   49 1    
    96   47  170 1    
    97   48  171 1    
    98   48  172 1    
    99   48  173 1    
   100   49   50 am   BACKBONE|DICT|INTERRES
   101   49  174 1    
   102   50   51 2    
   103   50   52 1    
   104   52   53 1    
   105   52   54 1    
   106   52  175 1    
   107   53  176 1    
   108   53  177 1    
   109   53  178 1    
   110   54   55 am   BACKBONE|DICT|INTERRES
   111   54  179 1    
   112   55   56 2    
   113   55   57 1    
   114   57   58 1    
   115   57   59 1    
   116   57  180 1    
   117   58  181 1    
   118   58  182 1    
   119   58  183 1    
   120   59   60 am   BACKBONE|DICT|INTERRES
   121   59  184 1    
   122   60   61 2    
   123   60   62 1    
   124   62   63 1    
   125   62   64 1    
   126   62  185 1    
   127   63  186 1    
   128   63  187 1    
   129   63  188 1    
   130   64   65 am   BACKBONE|DICT|INTERRES
   131   64  189 1    
   132   65   66 2    
   133   67   68 2    
   134   67   69 am   BACKBONE|DICT|INTERRES
   135   69   70 1    
   136   69  190 1    
   137   70   71 1    
   138   70   72 1    
   139   70  191 1    
   140   71  192 1    
   141   71  193 1    
   142   71  194 1    
   143   72   73 2    
   144   72   74 am   BACKBONE|DICT|INTERRES
   145   74   75 1    
   146   74  195 1    
   147   75   76 1    
   148   75   77 1    
   149   75  196 1    
   150   76  197 1    
   151   76  198 1    
   152   76  199 1    
   153   77   78 2    
   154   77   79 am   BACKBONE|DICT|INTERRES
   155   79   80 1    
   156   79  200 1    
   157   80   81 1    
   158   80   82 1    
   159   80  201 1    
   160   81  202 1    
   161   81  203 1    
   162   81  204 1    
   163   82   83 2    
   164   82   84 am   BACKBONE|DICT|INTERRES
   165   84   85 1    
   166   84  205 1    
   167   85   86 1    
   168   85   87 1    
   169   85  206 1    
   170   86  207 1    
   171   86  208 1    
   172   86  209 1    
   173   87   88 2    
   174   87   89 am   BACKBONE|DICT|INTERRES
   175   89   90 1    
   176   89  210 1    
   177   90   91 1    
   178   90   92 1    
   179   90  211 1    
   180   91  212 1    
   181   91  213 1    
   182   91  214 1    
   183   92   93 2    
   184   92   94 am   BACKBONE|DICT|INTERRES
   185   94   95 1    
   186   94  215 1    
   187   95   96 1    
   188   95   97 1    
   189   95  216 1    
   190   96  217 1    
   191   96  218 1    
   192   96  219 1    
   193   97   98 2    
   194   97   99 am   BACKBONE|DICT|INTERRES
   195   99  100 1    
   196   99  220 1    
   197  100  101 1    
   198  100  102 1    
   199  100  221 1    
   200  101  222 1    
   201  101  223 1    
   202  101  224 1    
   203  102  103 2    
   204  102  104 am   BACKBONE|DICT|INTERRES
   205  104  105 1    
   206  104  225 1    
   207  105  106 1    
   208  105  107 1    
   209  105  226 1    
   210  106  227 1    
   211  106  228 1    
   212  106  229 1    
   213  107  108 2    
   214  107  109 am   BACKBONE|DICT|INTERRES
   215  109  110 1    
   216  109  230 1    
   217  110  111 1    
   218  110  112 1    
   219  110  231 1    
   220  111  232 1    
   221  111  233 1    
   222  111  234 1    
   223  112  113 2    
   224  112  114 am   BACKBONE|DICT|INTERRES
   225  114  115 1    
   226  114  235 1    
   227  115  116 1    
   228  115  117 1    
   229  115  236 1    
   230  116  237 1    
   231  116  238 1    
   232  116  239 1    
   233  117  118 2    
   234  117  119 am   BACKBONE|DICT|INTERRES
   235  119  120 1    
   236  119  240 1    
   237  120  121 1    
   238  120  124 1    
   239  120  241 1    
   240  121  122 am   BACKBONE|DICT|INTERRES
   241  121  123 2    
   242  122  242 1    
   243  122  243 1    
   244  124  125 1    
   245  124  244 1    
   246  124  245 1    
   247  125  126 1    
   248  126  246 1    
   249  126  247 1    
@<TRIPOS>SUBSTRUCTURE
     1 UNK         1 GROUP             0       ****    0 ROOT    
