@<TRIPOS>MOLECULE
3R540
247   249    1
SMALL
USER_CHARGES


@<TRIPOS>ATOM
      1 CA          0.0938   -8.8761  -44.9043 C.3       0 UNK        -0.1800 
      2 C           0.3401  -10.3657  -44.7212 C.2       0 UNK         0.5000 
      3 O           1.3911  -10.7536  -44.2073 O.2       0 UNK        -0.5000 
      4 N          -0.6299  -11.2028  -45.1131 N.am      1 UNK        -0.5000 
      5 CA         -0.5922  -12.6758  -45.0946 C.3       1 UNK         0.1400 
      6 C6         -1.6090  -13.2900  -46.0918 C.3       23 UNK        -0.0398 
      7 S7         -1.3720  -12.6622  -47.7907 S.3       23 UNK        -0.2404 
      8 C8         -3.0065  -12.9641  -48.5293 C.3       23 UNK        -0.0205 
      9 C9         -3.3082  -14.4495  -48.6540 C.ar      23 UNK        -0.0193 
     10 C10        -2.6304  -15.2275  -49.5975 C.ar      23 UNK        -0.1150 
     11 C11        -2.9040  -16.5926  -49.7203 C.ar      23 UNK        -0.0193 
     12 C12        -3.8683  -17.1770  -48.8959 C.ar      23 UNK        -0.1150 
     13 C13        -4.5534  -16.4089  -47.9489 C.ar      23 UNK        -0.0193 
     14 C14        -4.2704  -15.0452  -47.8339 C.ar      23 UNK        -0.1150 
     15 C15        -5.5965  -17.0533  -47.0472 C.3       23 UNK        -0.0205 
     16 S16        -5.0585  -17.1712  -45.3061 S.3       23 UNK        -0.2404 
     17 C17        -3.3719  -17.8621  -45.4305 C.3       23 UNK        -0.0398 
     18 CA         -3.3060  -19.2804  -46.0473 C.3       11 UNK         0.1400 
     19 N          -1.9704  -19.5842  -46.5639 N.am      11 UNK        -0.5000 
     20 C          -1.6593  -20.6419  -47.3237 C.2       10 UNK         0.5000 
     21 O          -2.4848  -21.4638  -47.7155 O.2       10 UNK        -0.5000 
     22 CA         -0.1722  -20.8509  -47.6614 C.3       10 UNK         0.1400 
     23 CB          0.2468  -19.9891  -48.8613 C.3       10 UNK        -0.1800 
     24 N           0.6994  -20.5841  -46.5161 N.am      10 UNK        -0.5000 
     25 C           0.6728  -21.2908  -45.3759 C.2       9 UNK         0.5000 
     26 O          -0.0375  -22.2817  -45.2049 O.2       9 UNK        -0.5000 
     27 CA          1.5386  -20.7752  -44.2133 C.3       9 UNK         0.1400 
     28 CB          2.9966  -21.2297  -44.3734 C.3       9 UNK        -0.1800 
     29 N           1.4840  -19.3193  -44.0757 N.am      9 UNK        -0.5000 
     30 C           0.3788  -18.6223  -43.7730 C.2       8 UNK         0.5000 
     31 O          -0.7092  -19.1412  -43.5248 O.2       8 UNK        -0.5000 
     32 CA          0.4949  -17.0874  -43.8084 C.3       8 UNK         0.1400 
     33 CB          1.1786  -16.5635  -42.5375 C.3       8 UNK        -0.1800 
     34 N           1.2233  -16.6155  -44.9861 N.am      8 UNK        -0.5000 
     35 C           0.8287  -16.8011  -46.2532 C.2       7 UNK         0.5000 
     36 O          -0.2362  -17.3297  -46.5633 O.2       7 UNK        -0.5000 
     37 CA          1.8110  -16.3817  -47.3591 C.3       7 UNK         0.1400 
     38 CB          1.6483  -14.9000  -47.7154 C.3       7 UNK        -0.1800 
     39 N           3.1975  -16.6474  -46.9821 N.am      7 UNK        -0.5000 
     40 C           3.7375  -17.8723  -46.9306 C.2       6 UNK         0.5000 
     41 O           3.1286  -18.9007  -47.2271 O.2       6 UNK        -0.5000 
     42 CA          5.1879  -17.9601  -46.4218 C.3       6 UNK         0.1400 
     43 CB          6.1802  -17.6304  -47.5469 C.3       6 UNK        -0.1800 
     44 N           5.4347  -17.0772  -45.2794 N.am      6 UNK        -0.5000 
     45 C           4.8791  -17.2434  -44.0714 C.2       5 UNK         0.5000 
     46 O           4.1222  -18.1721  -43.7928 O.2       5 UNK        -0.5000 
     47 CA          5.1878  -16.1780  -43.0038 C.3       5 UNK         0.1400 
     48 CB          6.4796  -16.5299  -42.2517 C.3       5 UNK        -0.1800 
     49 N           5.2854  -14.8086  -43.5166 N.am      5 UNK        -0.5000 
     50 C           4.3215  -14.1562  -44.1786 C.2       4 UNK         0.5000 
     51 O           3.2595  -14.6712  -44.5318 O.2       4 UNK        -0.5000 
     52 CA          4.5672  -12.6620  -44.4429 C.3       4 UNK         0.1400 
     53 CB          4.0038  -12.2228  -45.8051 C.3       4 UNK        -0.1800 
     54 N           3.9301  -11.8806  -43.3877 N.am      4 UNK        -0.5000 
     55 C           4.4022  -11.7420  -42.1404 C.2       3 UNK         0.5000 
     56 O           5.5064  -12.1495  -41.7771 O.2       3 UNK        -0.5000 
     57 CA          3.4681  -11.0618  -41.1231 C.3       3 UNK         0.1400 
     58 CB          3.5204   -9.5336  -41.2730 C.3       3 UNK        -0.1800 
     59 N           2.0854  -11.5147  -41.2763 N.am      3 UNK        -0.5000 
     60 C           1.6266  -12.7174  -40.8940 C.2       2 UNK         0.5000 
     61 O           2.2920  -13.5393  -40.2644 O.2       2 UNK        -0.5000 
     62 CA          0.2031  -13.0758  -41.3445 C.3       2 UNK         0.1400 
     63 CB         -0.8613  -12.3527  -40.5024 C.3       2 UNK        -0.1800 
     64 N           0.0701  -12.7208  -42.7507 N.am      2 UNK        -0.5000 
     65 C          -0.7407  -13.2527  -43.6647 C.2       1 UNK         0.5000 
     66 O          -1.5659  -14.1327  -43.4176 O.2       1 UNK        -0.5000 
     67 C          -3.8173  -20.3659  -45.0794 C.2       11 UNK         0.5000 
     68 O          -4.9539  -20.8166  -45.2253 O.2       11 UNK        -0.5000 
     69 N          -2.9552  -20.8197  -44.1580 N.am      12 UNK        -0.5000 
     70 CA         -3.2297  -21.9203  -43.2288 C.3       12 UNK         0.1400 
     71 CB         -2.0740  -22.0408  -42.2244 C.3       12 UNK        -0.1800 
     72 C          -3.4820  -23.2661  -43.9392 C.2       12 UNK         0.5000 
     73 O          -4.3155  -24.0489  -43.4828 O.2       12 UNK        -0.5000 
     74 N          -2.7919  -23.4879  -45.0654 N.am      13 UNK        -0.5000 
     75 CA         -2.9764  -24.6302  -45.9619 C.3       13 UNK         0.1400 
     76 CB         -1.6699  -24.8527  -46.7421 C.3       13 UNK        -0.1800 
     77 C          -4.1654  -24.4679  -46.9345 C.2       13 UNK         0.5000 
     78 O          -4.4032  -25.3725  -47.7364 O.2       13 UNK        -0.5000 
     79 N          -4.8639  -23.3222  -46.8915 N.am      14 UNK        -0.5000 
     80 CA         -5.9705  -22.9208  -47.7678 C.3       14 UNK         0.1400 
     81 CB         -7.2158  -23.7925  -47.5036 C.3       14 UNK        -0.1800 
     82 C          -5.5622  -22.8875  -49.2553 C.2       14 UNK         0.5000 
     83 O          -6.2924  -23.3891  -50.1106 O.2       14 UNK        -0.5000 
     84 N          -4.3674  -22.3415  -49.5257 N.am      15 UNK        -0.5000 
     85 CA         -3.6828  -22.2966  -50.8215 C.3       15 UNK         0.1400 
     86 CB         -4.4387  -21.3870  -51.8084 C.3       15 UNK        -0.1800 
     87 C          -3.3956  -23.7085  -51.3747 C.2       15 UNK         0.5000 
     88 O          -3.5669  -23.9570  -52.5710 O.2       15 UNK        -0.5000 
     89 N          -2.9926  -24.6064  -50.4614 N.am      16 UNK        -0.5000 
     90 CA         -2.7950  -26.0486  -50.6383 C.3       16 UNK         0.1400 
     91 CB         -1.6101  -26.3309  -51.5837 C.3       16 UNK        -0.1800 
     92 C          -4.0992  -26.7415  -51.0769 C.2       16 UNK         0.5000 
     93 O          -4.1175  -27.4407  -52.0888 O.2       16 UNK        -0.5000 
     94 N          -5.1864  -26.4714  -50.3389 N.am      17 UNK        -0.5000 
     95 CA         -6.5725  -26.8515  -50.6475 C.3       17 UNK         0.1400 
     96 CB         -6.7763  -28.3657  -50.4377 C.3       17 UNK        -0.1800 
     97 C          -7.0127  -26.3681  -52.0495 C.2       17 UNK         0.5000 
     98 O          -7.6127  -27.1237  -52.8158 O.2       17 UNK        -0.5000 
     99 N          -6.6468  -25.1171  -52.3598 N.am      18 UNK        -0.5000 
    100 CA        -6.8030  -24.3969  -53.6260 C.3       18 UNK         0.1400 
    101 CB        -8.2949  -24.2120  -53.9698 C.3       18 UNK        -0.1800 
    102 C         -5.9965  -24.9627  -54.8174 C.2       18 UNK         0.5000 
    103 O         -6.1700  -24.4664  -55.9316 O.2       18 UNK        -0.5000 
    104 N         -5.1229  -25.9576  -54.5975 N.am      19 UNK        -0.5000 
    105 CA        -4.3199  -26.5783  -55.6542 C.3       19 UNK         0.1400 
    106 CB        -3.8368  -27.9650  -55.2047 C.3       19 UNK        -0.1800 
    107 C         -3.1256  -25.7112  -56.0887 C.2       19 UNK         0.5000 
    108 O         -2.7646  -25.7397  -57.2663 O.2       19 UNK        -0.5000 
    109 N         -2.5338  -24.9598  -55.1487 N.am      20 UNK        -0.5000 
    110 CA        -1.4317  -24.0357  -55.4272 C.3       20 UNK         0.1400 
    111 CB        -0.5264  -23.9093  -54.1919 C.3       20 UNK        -0.1800 
    112 C         -1.9470  -22.6542  -55.8598 C.2       20 UNK         0.5000 
    113 O         -1.2531  -21.9580  -56.6021 O.2       20 UNK        -0.5000 
    114 N         -3.1420  -22.2776  -55.3751 N.am      21 UNK        -0.5000 
    115 CA        -3.8792  -21.0440  -55.6873 C.3       21 UNK         0.1400 
    116 CB        -4.4226  -21.1072  -57.1291 C.3       21 UNK        -0.1800 
    117 C         -3.0790  -19.7498  -55.4068 C.2       21 UNK         0.5000 
    118 O         -3.2560  -18.7503  -56.1053 O.2       21 UNK        -0.5000 
    119 N         -2.1969  -19.8120  -54.3990 N.am      22 UNK        -0.5000 
    120 CA        -1.2273  -18.7737  -54.0061 C.3       22 UNK         0.1400 
    121 C         -0.0643  -18.5584  -55.0253 C.2       22 UNK         0.5000 
    122 N          0.1453  -19.4343  -56.0019 N.am      22 UNK        -0.7600 
    123 O          0.6898  -17.5956  -54.9125 O.2       22 UNK        -0.5000 
    124 C124       -1.8835  -17.4326  -53.5668 C.3       23 UNK        -0.0398 
    125 S125       -3.1464  -17.6305  -52.2618 S.3       23 UNK        -0.2404 
    126 C126       -2.1611  -17.4351  -50.7436 C.3       23 UNK        -0.0205 
    127 H127        0.8647   -8.4467  -45.5440 H         1 UNK         0.0600 
    128 H128        0.1283   -8.3697  -43.9398 H         1 UNK         0.0600 
    129 H129       -0.8767   -8.6783  -45.3599 H         1 UNK         0.0600 
    130 H130       -1.4722  -10.8098  -45.5079 H         1 UNK         0.3000 
    131 H131        0.4023  -12.9773  -45.4289 H         1 UNK         0.0600 
    132 H132       -1.5122  -14.3775  -46.1198 H         1 UNK         0.0800 
    133 H133       -2.6307  -13.0784  -45.7717 H         1 UNK         0.0800 
    134 H134       -3.7720  -12.4563  -47.9405 H         1 UNK         0.0800 
    135 H135       -3.0339  -12.5103  -49.5209 H         1 UNK         0.0800 
    136 H136       -1.8871  -14.7677  -50.2337 H         1 UNK         0.1150 
    137 H137       -4.0839  -18.2310  -48.9989 H         1 UNK         0.1150 
    138 H138       -4.7971  -14.4518  -47.0998 H         1 UNK         0.1150 
    139 H139       -6.5149  -16.4662  -47.0892 H         1 UNK         0.0800 
    140 H140       -5.8628  -18.0468  -47.4105 H         1 UNK         0.0800 
    141 H141       -2.9165  -17.8463  -44.4392 H         1 UNK         0.0800 
    142 H142       -2.7822  -17.1647  -46.0257 H         1 UNK         0.0800 
    143 H143       -3.9659  -19.3095  -46.9138 H         1 UNK         0.0600 
    144 H144       -1.2392  -18.9115  -46.3474 H         1 UNK         0.3000 
    145 H145       -0.0400  -21.8986  -47.9390 H         1 UNK         0.0600 
    146 H146        1.2968  -20.1434  -49.1105 H         1 UNK         0.0600 
    147 H147       -0.3377  -20.2462  -49.7453 H         1 UNK         0.0600 
    148 H148        0.1014  -18.9265  -48.6696 H         1 UNK         0.0600 
    149 H149        1.3486  -19.8098  -46.6008 H         1 UNK         0.3000 
    150 H150        1.1479  -21.2106  -43.2914 H         1 UNK         0.0600 
    151 H151        3.0598  -22.3143  -44.4694 H         1 UNK         0.0600 
    152 H152        3.5944  -20.9446  -43.5075 H         1 UNK         0.0600 
    153 H153        3.4613  -20.7930  -45.2577 H         1 UNK         0.0600 
    154 H154        2.3594  -18.8197  -44.2055 H         1 UNK         0.3000 
    155 H155       -0.5129  -16.6702  -43.8552 H         1 UNK         0.0600 
    156 H156        0.5442  -16.7192  -41.6645 H         1 UNK         0.0600 
    157 H157        1.3856  -15.4968  -42.6111 H         1 UNK         0.0600 
    158 H158        2.1246  -17.0688  -42.3468 H         1 UNK         0.0600 
    159 H159        2.0886  -16.1089  -44.8174 H         1 UNK         0.3000 
    160 H160        1.5798  -16.9669  -48.2517 H         1 UNK         0.0600 
    161 H161        1.8198  -14.2550  -46.8547 H         1 UNK         0.0600 
    162 H162        0.6407  -14.7079  -48.0823 H         1 UNK         0.0600 
    163 H163        2.3411  -14.6024  -48.5025 H         1 UNK         0.0600 
    164 H164        3.7397  -15.8606  -46.6567 H         1 UNK         0.3000 
    165 H165        5.3655  -18.9891  -46.1017 H         1 UNK         0.0600 
    166 H166        7.2100  -17.7669  -47.2162 H         1 UNK         0.0600 
    167 H167        6.0265  -18.2846  -48.4061 H         1 UNK         0.0600 
    168 H168        6.0722  -16.6019  -47.8936 H         1 UNK         0.0600 
    169 H169        6.0448  -16.2870  -45.4276 H         1 UNK         0.3000 
    170 H170        4.3668  -16.1917  -42.2847 H         1 UNK         0.0600 
    171 H171        6.4283  -17.5373  -41.8361 H         1 UNK         0.0600 
    172 H172        7.3510  -16.4883  -42.9064 H         1 UNK         0.0600 
    173 H173        6.6506  -15.8458  -41.4202 H         1 UNK         0.0600 
    174 H174        6.1001  -14.2850  -43.2280 H         1 UNK         0.3000 
    175 H175        5.6420  -12.4691  -44.4416 H         1 UNK         0.0600 
    176 H176        2.9213  -12.3420  -45.8552 H         1 UNK         0.0600 
    177 H177        4.2294  -11.1748  -46.0027 H         1 UNK         0.0600 
    178 H178        4.4373  -12.8093  -46.6159 H         1 UNK         0.0600 
    179 H179        3.0158  -11.4978  -43.6117 H         1 UNK         0.3000 
    180 H180        3.8133  -11.3201  -40.1196 H         1 UNK         0.0600 
    181 H181        3.1653   -9.2109  -42.2528 H         1 UNK         0.0600 
    182 H182        4.5403   -9.1651  -41.1551 H         1 UNK         0.0600 
    183 H183        2.9084   -9.0426  -40.5161 H         1 UNK         0.0600 
    184 H184        1.4702  -10.8894  -41.7760 H         1 UNK         0.3000 
    185 H185        0.0673  -14.1521  -41.2278 H         1 UNK         0.0600 
    186 H186       -0.7479  -12.5905  -39.4441 H         1 UNK         0.0600 
    187 H187       -0.7932  -11.2694  -40.6071 H         1 UNK         0.0600 
    188 H188       -1.8667  -12.6538  -40.7973 H         1 UNK         0.0600 
    189 H189        0.7217  -12.0212  -43.0964 H         1 UNK         0.3000 
    190 H190       -2.0493  -20.3651  -44.0708 H         1 UNK         0.3000 
    191 H191       -4.1356  -21.6657  -42.6751 H         1 UNK         0.0600 
    192 H192       -1.1343  -22.2868  -42.7188 H         1 UNK         0.0600 
    193 H193       -1.9291  -21.1097  -41.6761 H         1 UNK         0.0600 
    194 H194       -2.2739  -22.8232  -41.4913 H         1 UNK         0.0600 
    195 H195       -2.0793  -22.8173  -45.3325 H         1 UNK         0.3000 
    196 H196       -3.1690  -25.5220  -45.3622 H         1 UNK         0.0600 
    197 H197       -0.8264  -24.9903  -46.0653 H         1 UNK         0.0600 
    198 H198       -1.4399  -24.0083  -47.3922 H         1 UNK         0.0600 
    199 H199       -1.7295  -25.7444  -47.3668 H         1 UNK         0.0600 
    200 H200       -4.5863  -22.6231  -46.2125 H         1 UNK         0.3000 
    201 H201       -6.2217  -21.8942  -47.4985 H         1 UNK         0.0600 
    202 H202       -8.0739  -23.4301  -48.0708 H         1 UNK         0.0600 
    203 H203       -7.4924  -23.7720  -46.4495 H         1 UNK         0.0600 
    204 H204       -7.0530  -24.8326  -47.7868 H         1 UNK         0.0600 
    205 H205       -3.8122  -21.9945  -48.7430 H         1 UNK         0.3000 
    206 H206       -2.7085  -21.8413  -50.6384 H         1 UNK         0.0600 
    207 H207       -4.5685  -20.3860  -51.3970 H         1 UNK         0.0600 
    208 H208       -5.4255  -21.7765  -52.0544 H         1 UNK         0.0600 
    209 H209       -3.8850  -21.2829  -52.7381 H         1 UNK         0.0600 
    210 H210       -2.9388  -24.2869  -49.5053 H         1 UNK         0.3000 
    211 H211       -2.5413  -26.4539  -49.6580 H         1 UNK         0.0600 
    212 H212       -0.7136  -25.7987  -51.2661 H         1 UNK         0.0600 
    213 H213       -1.3711  -27.3947  -51.5976 H         1 UNK         0.0600 
    214 H214       -1.8312  -26.0372  -52.6086 H         1 UNK         0.0600 
    215 H215       -5.0574  -25.9079  -49.5026 H         1 UNK         0.3000 
    216 H216       -7.2043  -26.3270  -49.9294 H         1 UNK         0.0600 
    217 H217       -7.8251  -28.6391  -50.5583 H         1 UNK         0.0600 
    218 H218       -6.2000  -28.9550  -51.1516 H         1 UNK         0.0600 
    219 H219       -6.4760  -28.6673  -49.4342 H         1 UNK         0.0600 
    220 H220       -6.2145  -24.5728  -51.6174 H         1 UNK         0.3000 
    221 H221       -6.3891  -23.4051  -53.4455 H         1 UNK         0.0600 
    222 H222       -8.7707  -25.1570  -54.2328 H         1 UNK         0.0600 
    223 H223       -8.8419  -23.7816  -53.1308 H         1 UNK         0.0600 
    224 H224       -8.4223  -23.5372  -54.8170 H         1 UNK         0.0600 
    225 H225       -4.9997  -26.3186  -53.6580 H         1 UNK         0.3000 
    226 H226       -4.9609  -26.7225  -56.5268 H         1 UNK         0.0600 
    227 H227       -4.6617  -28.5733  -54.8331 H         1 UNK         0.0600 
    228 H228       -3.3822  -28.5039  -56.0367 H         1 UNK         0.0600 
    229 H229       -3.0858  -27.8957  -54.4174 H         1 UNK         0.0600 
    230 H230       -2.9166  -24.9467  -54.2084 H         1 UNK         0.3000 
    231 H231       -0.8214  -24.4303  -56.2425 H         1 UNK         0.0600 
    232 H232        0.3125  -23.2415  -54.3923 H         1 UNK         0.0600 
    233 H233       -0.1075  -24.8755  -53.9112 H         1 UNK         0.0600 
    234 H234       -1.0604  -23.5096  -53.3306 H         1 UNK         0.0600 
    235 H235       -3.6027  -22.9179  -54.7423 H         1 UNK         0.3000 
    236 H236       -4.7387  -21.0201  -55.0161 H         1 UNK         0.0600 
    237 H237       -4.9985  -22.0186  -57.2917 H         1 UNK         0.0600 
    238 H238       -5.0842  -20.2659  -57.3382 H         1 UNK         0.0600 
    239 H239       -3.6178  -21.0835  -57.8645 H         1 UNK         0.0600 
    240 H240       -2.1142  -20.6880  -53.9068 H         1 UNK         0.3000 
    241 H241       -0.7306  -19.1785  -53.1237 H         1 UNK         0.0600 
    242 H242        0.9088  -19.2810  -56.6410 H         1 UNK         0.3800 
    243 H243       -0.4511  -20.2467  -56.1279 H         1 UNK         0.3800 
    244 H244       -1.1279  -16.7267  -53.2195 H         1 UNK         0.0800 
    245 H245       -2.3581  -16.9475  -54.4203 H         1 UNK         0.0800 
    246 H246       -1.9513  -18.4217  -50.3292 H         1 UNK         0.0800 
    247 H247       -1.1921  -16.9836  -50.9596 H         1 UNK         0.0800 
@<TRIPOS>BOND
     1    1    2 1    
     2    1  127 1    
     3    1  128 1    
     4    1  129 1    
     5    2    3 2    
     6    2    4 am   BACKBONE|DICT|INTERRES
     7    4    5 1    
     8    4  130 1    
     9    5    6 1    
    10    5   65 1    
    11    5  131 1    
    12    6    7 1    
    13    6  132 1    
    14    6  133 1    
    15    7    8 1    
    16    8    9 1    
    17    8  134 1    
    18    8  135 1    
    19    9   10 ar   
    20    9   14 ar   
    21   10   11 ar   
    22   10  136 1    
    23   11   12 ar   
    24   11  126 1    
    25   12   13 ar   
    26   12  137 1    
    27   13   14 ar   
    28   13   15 1    
    29   14  138 1    
    30   15   16 1    
    31   15  139 1    
    32   15  140 1    
    33   16   17 1    
    34   17   18 1    
    35   17  141 1    
    36   17  142 1    
    37   18   19 1    
    38   18   67 1    
    39   18  143 1    
    40   19   20 am   BACKBONE|DICT|INTERRES
    41   19  144 1    
    42   20   21 2    
    43   20   22 1    
    44   22   23 1    
    45   22   24 1    
    46   22  145 1    
    47   23  146 1    
    48   23  147 1    
    49   23  148 1    
    50   24   25 am   BACKBONE|DICT|INTERRES
    51   24  149 1    
    52   25   26 2    
    53   25   27 1    
    54   27   28 1    
    55   27   29 1    
    56   27  150 1    
    57   28  151 1    
    58   28  152 1    
    59   28  153 1    
    60   29   30 am   BACKBONE|DICT|INTERRES
    61   29  154 1    
    62   30   31 2    
    63   30   32 1    
    64   32   33 1    
    65   32   34 1    
    66   32  155 1    
    67   33  156 1    
    68   33  157 1    
    69   33  158 1    
    70   34   35 am   BACKBONE|DICT|INTERRES
    71   34  159 1    
    72   35   36 2    
    73   35   37 1    
    74   37   38 1    
    75   37   39 1    
    76   37  160 1    
    77   38  161 1    
    78   38  162 1    
    79   38  163 1    
    80   39   40 am   BACKBONE|DICT|INTERRES
    81   39  164 1    
    82   40   41 2    
    83   40   42 1    
    84   42   43 1    
    85   42   44 1    
    86   42  165 1    
    87   43  166 1    
    88   43  167 1    
    89   43  168 1    
    90   44   45 am   BACKBONE|DICT|INTERRES
    91   44  169 1    
    92   45   46 2    
    93   45   47 1    
    94   47   48 1    
    95   47   49 1    
    96   47  170 1    
    97   48  171 1    
    98   48  172 1    
    99   48  173 1    
   100   49   50 am   BACKBONE|DICT|INTERRES
   101   49  174 1    
   102   50   51 2    
   103   50   52 1    
   104   52   53 1    
   105   52   54 1    
   106   52  175 1    
   107   53  176 1    
   108   53  177 1    
   109   53  178 1    
   110   54   55 am   BACKBONE|DICT|INTERRES
   111   54  179 1    
   112   55   56 2    
   113   55   57 1    
   114   57   58 1    
   115   57   59 1    
   116   57  180 1    
   117   58  181 1    
   118   58  182 1    
   119   58  183 1    
   120   59   60 am   BACKBONE|DICT|INTERRES
   121   59  184 1    
   122   60   61 2    
   123   60   62 1    
   124   62   63 1    
   125   62   64 1    
   126   62  185 1    
   127   63  186 1    
   128   63  187 1    
   129   63  188 1    
   130   64   65 am   BACKBONE|DICT|INTERRES
   131   64  189 1    
   132   65   66 2    
   133   67   68 2    
   134   67   69 am   BACKBONE|DICT|INTERRES
   135   69   70 1    
   136   69  190 1    
   137   70   71 1    
   138   70   72 1    
   139   70  191 1    
   140   71  192 1    
   141   71  193 1    
   142   71  194 1    
   143   72   73 2    
   144   72   74 am   BACKBONE|DICT|INTERRES
   145   74   75 1    
   146   74  195 1    
   147   75   76 1    
   148   75   77 1    
   149   75  196 1    
   150   76  197 1    
   151   76  198 1    
   152   76  199 1    
   153   77   78 2    
   154   77   79 am   BACKBONE|DICT|INTERRES
   155   79   80 1    
   156   79  200 1    
   157   80   81 1    
   158   80   82 1    
   159   80  201 1    
   160   81  202 1    
   161   81  203 1    
   162   81  204 1    
   163   82   83 2    
   164   82   84 am   BACKBONE|DICT|INTERRES
   165   84   85 1    
   166   84  205 1    
   167   85   86 1    
   168   85   87 1    
   169   85  206 1    
   170   86  207 1    
   171   86  208 1    
   172   86  209 1    
   173   87   88 2    
   174   87   89 am   BACKBONE|DICT|INTERRES
   175   89   90 1    
   176   89  210 1    
   177   90   91 1    
   178   90   92 1    
   179   90  211 1    
   180   91  212 1    
   181   91  213 1    
   182   91  214 1    
   183   92   93 2    
   184   92   94 am   BACKBONE|DICT|INTERRES
   185   94   95 1    
   186   94  215 1    
   187   95   96 1    
   188   95   97 1    
   189   95  216 1    
   190   96  217 1    
   191   96  218 1    
   192   96  219 1    
   193   97   98 2    
   194   97   99 am   BACKBONE|DICT|INTERRES
   195   99  100 1    
   196   99  220 1    
   197  100  101 1    
   198  100  102 1    
   199  100  221 1    
   200  101  222 1    
   201  101  223 1    
   202  101  224 1    
   203  102  103 2    
   204  102  104 am   BACKBONE|DICT|INTERRES
   205  104  105 1    
   206  104  225 1    
   207  105  106 1    
   208  105  107 1    
   209  105  226 1    
   210  106  227 1    
   211  106  228 1    
   212  106  229 1    
   213  107  108 2    
   214  107  109 am   BACKBONE|DICT|INTERRES
   215  109  110 1    
   216  109  230 1    
   217  110  111 1    
   218  110  112 1    
   219  110  231 1    
   220  111  232 1    
   221  111  233 1    
   222  111  234 1    
   223  112  113 2    
   224  112  114 am   BACKBONE|DICT|INTERRES
   225  114  115 1    
   226  114  235 1    
   227  115  116 1    
   228  115  117 1    
   229  115  236 1    
   230  116  237 1    
   231  116  238 1    
   232  116  239 1    
   233  117  118 2    
   234  117  119 am   BACKBONE|DICT|INTERRES
   235  119  120 1    
   236  119  240 1    
   237  120  121 1    
   238  120  124 1    
   239  120  241 1    
   240  121  122 am   BACKBONE|DICT|INTERRES
   241  121  123 2    
   242  122  242 1    
   243  122  243 1    
   244  124  125 1    
   245  124  244 1    
   246  124  245 1    
   247  125  126 1    
   248  126  246 1    
   249  126  247 1    
@<TRIPOS>SUBSTRUCTURE
     1 UNK         1 GROUP             0       ****    0 ROOT    
