@<TRIPOS>MOLECULE
3R540
247   249    1
SMALL
USER_CHARGES


@<TRIPOS>ATOM
      1 CA         -1.3751  -18.5067  -50.5633 C.3       0 UNK        -0.1800 
      2 C          -0.9188  -17.0564  -50.5254 C.2       0 UNK         0.5000 
      3 O          -1.2474  -16.2906  -51.4300 O.2       0 UNK        -0.5000 
      4 N          -0.1446  -16.6941  -49.4942 N.am      1 UNK        -0.5000 
      5 CA          0.4473  -15.3648  -49.3050 C.3       1 UNK         0.1400 
      6 C6          1.5640  -15.3569  -48.2218 C.3       23 UNK        -0.0398 
      7 S7          3.1661  -14.7634  -48.8587 S.3       23 UNK        -0.2404 
      8 C8          4.0558  -16.3290  -49.1658 C.3       23 UNK        -0.0205 
      9 C9          3.3352  -17.2323  -50.1601 C.ar      23 UNK        -0.0193 
     10 C10         3.0091  -16.7580  -51.4333 C.ar      23 UNK        -0.1150 
     11 C11         2.2929  -17.5561  -52.3269 C.ar      23 UNK        -0.0193 
     12 C12         1.9358  -18.8539  -51.9508 C.ar      23 UNK        -0.1150 
     13 C13         2.2860  -19.3636  -50.6964 C.ar      23 UNK        -0.0193 
     14 C14         2.9817  -18.5375  -49.8020 C.ar      23 UNK        -0.1150 
     15 C15         1.8593  -20.7944  -50.3593 C.3       23 UNK        -0.0205 
     16 S16         2.7993  -21.6255  -49.0315 S.3       23 UNK        -0.2404 
     17 C17         1.9615  -21.0260  -47.5253 C.3       23 UNK        -0.0398 
     18 CA          0.8820  -22.0124  -47.0100 C.3       11 UNK         0.1400 
     19 N           0.7743  -22.0143  -45.5485 N.am      11 UNK        -0.5000 
     20 C           0.0293  -22.8755  -44.8394 C.2       10 UNK         0.5000 
     21 O          -0.5862  -23.8169  -45.3384 O.2       10 UNK        -0.5000 
     22 CA         -0.1019  -22.6062  -43.3292 C.3       10 UNK         0.1400 
     23 CB          1.0764  -23.2185  -42.5585 C.3       10 UNK        -0.1800 
     24 N          -0.2145  -21.1782  -43.0245 N.am      10 UNK        -0.5000 
     25 C          -1.2339  -20.4005  -43.4189 C.2       9 UNK         0.5000 
     26 O          -2.2237  -20.8292  -44.0106 O.2       9 UNK        -0.5000 
     27 CA         -1.1034  -18.8877  -43.1662 C.3       9 UNK         0.1400 
     28 CB         -1.5177  -18.5311  -41.7315 C.3       9 UNK        -0.1800 
     29 N           0.2487  -18.3964  -43.4224 N.am      9 UNK        -0.5000 
     30 C           0.8465  -18.3871  -44.6220 C.2       8 UNK         0.5000 
     31 O           0.3023  -18.7517  -45.6659 O.2       8 UNK        -0.5000 
     32 CA          2.3266  -17.9650  -44.6456 C.3       8 UNK         0.1400 
     33 CB          2.4773  -16.4394  -44.6366 C.3       8 UNK        -0.1800 
     34 N           3.0712  -18.5231  -43.5184 N.am      8 UNK        -0.5000 
     35 C           3.3731  -19.8200  -43.3772 C.2       7 UNK         0.5000 
     36 O           3.0757  -20.6831  -44.2019 O.2       7 UNK        -0.5000 
     37 CA          4.0969  -20.2196  -42.0787 C.3       7 UNK         0.1400 
     38 CB          5.6107  -19.9981  -42.2127 C.3       7 UNK        -0.1800 
     39 N           3.6001  -19.4882  -40.9113 N.am      7 UNK        -0.5000 
     40 C           2.3743  -19.6435  -40.3917 C.2       6 UNK         0.5000 
     41 O           1.5410  -20.4336  -40.8326 O.2       6 UNK        -0.5000 
     42 CA          2.0012  -18.7289  -39.2109 C.3       6 UNK         0.1400 
     43 CB          2.5178  -19.3145  -37.8882 C.3       6 UNK        -0.1800 
     44 N           2.4879  -17.3539  -39.3602 N.am      6 UNK        -0.5000 
     45 C           2.1238  -16.5251  -40.3469 C.2       5 UNK         0.5000 
     46 O           1.3879  -16.8540  -41.2792 O.2       5 UNK        -0.5000 
     47 CA          2.7186  -15.1082  -40.3152 C.3       5 UNK         0.1400 
     48 CB          4.0077  -15.0496  -41.1496 C.3       5 UNK        -0.1800 
     49 N           1.7647  -14.1323  -40.8413 N.am      5 UNK        -0.5000 
     50 C           0.7158  -13.6531  -40.1567 C.2       4 UNK         0.5000 
     51 O           0.4854  -13.9488  -38.9829 O.2       4 UNK        -0.5000 
     52 CA         -0.2304  -12.6747  -40.8816 C.3       4 UNK         0.1400 
     53 CB         -0.2226  -11.2961  -40.1986 C.3       4 UNK        -0.1800 
     54 N           0.1207  -12.5015  -42.2943 N.am      4 UNK        -0.5000 
     55 C          -0.7165  -12.6730  -43.3250 C.2       3 UNK         0.5000 
     56 O          -1.9156  -12.9316  -43.1941 O.2       3 UNK        -0.5000 
     57 CA         -0.1239  -12.4856  -44.7428 C.3       3 UNK         0.1400 
     58 CB          1.4026  -12.7168  -44.8132 C.3       3 UNK        -0.1800 
     59 N          -0.7966  -13.2903  -45.7700 N.am      3 UNK        -0.5000 
     60 C          -0.9772  -14.6214  -45.7779 C.2       2 UNK         0.5000 
     61 O          -0.6024  -15.3727  -44.8808 O.2       2 UNK        -0.5000 
     62 CA         -1.6486  -15.2305  -47.0245 C.3       2 UNK         0.1400 
     63 CB         -3.1261  -15.5358  -46.7362 C.3       2 UNK        -0.1800 
     64 N          -1.5721  -14.3354  -48.1857 N.am      2 UNK        -0.5000 
     65 C          -0.6085  -14.2433  -49.1191 C.2       1 UNK         0.5000 
     66 O          -0.5790  -13.2819  -49.8856 O.2       1 UNK        -0.5000 
     67 C          -0.4836  -21.7456  -47.6758 C.2       11 UNK         0.5000 
     68 O          -0.8549  -22.4599  -48.6048 O.2       11 UNK        -0.5000 
     69 N          -1.2252  -20.7502  -47.1678 N.am      12 UNK        -0.5000 
     70 CA         -2.5792  -20.4237  -47.6165 C.3       12 UNK         0.1400 
     71 CB         -3.0361  -19.1010  -46.9909 C.3       12 UNK        -0.1800 
     72 C          -3.5915  -21.5507  -47.3565 C.2       12 UNK         0.5000 
     73 O          -4.4130  -21.8278  -48.2303 O.2       12 UNK        -0.5000 
     74 N          -3.4905  -22.2091  -46.1945 N.am      13 UNK        -0.5000 
     75 CA         -4.2787  -23.3900  -45.8398 C.3       13 UNK         0.1400 
     76 CB         -4.0405  -23.7547  -44.3673 C.3       13 UNK        -0.1800 
     77 C          -3.9887  -24.5873  -46.7642 C.2       13 UNK         0.5000 
     78 O          -4.9298  -25.2161  -47.2494 O.2       13 UNK        -0.5000 
     79 N          -2.7011  -24.8429  -47.0422 N.am      14 UNK        -0.5000 
     80 CA         -2.2345  -25.8542  -47.9971 C.3       14 UNK         0.1400 
     81 CB         -0.7062  -25.9795  -47.9087 C.3       14 UNK        -0.1800 
     82 C          -2.6781  -25.5640  -49.4451 C.2       14 UNK         0.5000 
     83 O          -2.9823  -26.4966  -50.1884 O.2       14 UNK        -0.5000 
     84 N          -2.7688  -24.2745  -49.7948 N.am      15 UNK        -0.5000 
     85 CA         -3.3197  -23.7528  -51.0459 C.3       15 UNK         0.1400 
     86 CB         -2.7059  -22.3681  -51.3200 C.3       15 UNK        -0.1800 
     87 C          -4.8652  -23.7027  -51.0700 C.2       15 UNK         0.5000 
     88 O          -5.4234  -23.0305  -51.9377 O.2       15 UNK        -0.5000 
     89 N          -5.5329  -24.3957  -50.1345 N.am      16 UNK        -0.5000 
     90 CA         -6.9845  -24.5543  -50.0055 C.3       16 UNK         0.1400 
     91 CB         -7.5550  -25.3437  -51.2027 C.3       16 UNK        -0.1800 
     92 C          -7.7032  -23.2146  -49.7568 C.2       16 UNK         0.5000 
     93 O          -8.6414  -22.8676  -50.4746 O.2       16 UNK        -0.5000 
     94 N          -7.2152  -22.4789  -48.7484 N.am      17 UNK        -0.5000 
     95 CA         -7.6257  -21.1258  -48.3558 C.3       17 UNK         0.1400 
     96 CB         -9.0974  -21.0903  -47.8924 C.3       17 UNK        -0.1800 
     97 C          -7.2961  -20.0934  -49.4526 C.2       17 UNK         0.5000 
     98 O          -8.1232  -19.2416  -49.7818 O.2       17 UNK        -0.5000 
     99 N          -6.0773  -20.2159  -49.9990 N.am      18 UNK        -0.5000 
    100 CA        -5.4859  -19.4019  -51.0659 C.3       18 UNK         0.1400 
    101 CB        -5.2750  -17.9493  -50.5884 C.3       18 UNK        -0.1800 
    102 C         -6.2310  -19.4859  -52.4176 C.2       18 UNK         0.5000 
    103 O         -6.1173  -18.5716  -53.2349 O.2       18 UNK        -0.5000 
    104 N         -6.9544  -20.5881  -52.6551 N.am      19 UNK        -0.5000 
    105 CA        -7.6166  -20.8824  -53.9268 C.3       19 UNK         0.1400 
    106 CB        -8.6813  -21.9665  -53.7088 C.3       19 UNK        -0.1800 
    107 C         -6.6119  -21.3193  -55.0085 C.2       19 UNK         0.5000 
    108 O         -6.7714  -20.9533  -56.1730 O.2       19 UNK        -0.5000 
    109 N         -5.5809  -22.0658  -54.5941 N.am      20 UNK        -0.5000 
    110 CA        -4.4778  -22.5475  -55.4252 C.3       20 UNK         0.1400 
    111 CB        -4.2682  -24.0461  -55.1421 C.3       20 UNK        -0.1800 
    112 C         -3.1989  -21.7184  -55.1847 C.2       20 UNK         0.5000 
    113 O         -2.0936  -22.2617  -55.2280 O.2       20 UNK        -0.5000 
    114 N         -3.3689  -20.4176  -54.9107 N.am      21 UNK        -0.5000 
    115 CA        -2.2923  -19.4435  -54.7285 C.3       21 UNK         0.1400 
    116 CB        -2.8771  -18.1901  -54.0565 C.3       21 UNK        -0.1800 
    117 C         -1.5727  -19.0889  -56.0483 C.2       21 UNK         0.5000 
    118 O         -1.9731  -19.5359  -57.1261 O.2       21 UNK        -0.5000 
    119 N         -0.5162  -18.2770  -55.9260 N.am      22 UNK        -0.5000 
    120 CA         0.3931  -17.8556  -57.0081 C.3       22 UNK         0.1400 
    121 C         -0.2536  -17.0279  -58.1600 C.2       22 UNK         0.5000 
    122 N         -1.4387  -16.4555  -57.9880 N.am      22 UNK        -0.7600 
    123 O          0.3365  -16.9007  -59.2294 O.2       22 UNK        -0.5000 
    124 C124        1.6302  -17.0967  -56.4544 C.3       23 UNK        -0.0398 
    125 S125        2.4776  -17.9534  -55.0804 S.3       23 UNK        -0.2404 
    126 C126        1.8483  -16.9908  -53.6670 C.3       23 UNK        -0.0205 
    127 H127       -1.1494  -18.9487  -51.5334 H         1 UNK         0.0600 
    128 H128       -2.4495  -18.5659  -50.4012 H         1 UNK         0.0600 
    129 H129       -0.8742  -19.1003  -49.7996 H         1 UNK         0.0600 
    130 H130        0.0947  -17.3850  -48.7995 H         1 UNK         0.3000 
    131 H131        0.9198  -15.1446  -50.2648 H         1 UNK         0.0600 
    132 H132        1.3120  -14.7134  -47.3803 H         1 UNK         0.0800 
    133 H133        1.7059  -16.3510  -47.7961 H         1 UNK         0.0800 
    134 H134        5.0485  -16.0997  -49.5550 H         1 UNK         0.0800 
    135 H135        4.2093  -16.8397  -48.2138 H         1 UNK         0.0800 
    136 H136        3.2788  -15.7484  -51.7096 H         1 UNK         0.1150 
    137 H137        1.3757  -19.4690  -52.6413 H         1 UNK         0.1150 
    138 H138        3.2522  -18.8979  -48.8216 H         1 UNK         0.1150 
    139 H139        0.7962  -20.8045  -50.1228 H         1 UNK         0.0800 
    140 H140        1.9700  -21.4087  -51.2542 H         1 UNK         0.0800 
    141 H141        1.5595  -20.0237  -47.6807 H         1 UNK         0.0800 
    142 H142        2.7473  -20.9106  -46.7791 H         1 UNK         0.0800 
    143 H143        1.1821  -23.0259  -47.2853 H         1 UNK         0.0600 
    144 H144        1.2995  -21.3040  -45.0509 H         1 UNK         0.3000 
    145 H145       -1.0170  -23.0918  -42.9847 H         1 UNK         0.0600 
    146 H146        0.9480  -23.0984  -41.4827 H         1 UNK         0.0600 
    147 H147        1.1594  -24.2875  -42.7583 H         1 UNK         0.0600 
    148 H148        2.0245  -22.7585  -42.8356 H         1 UNK         0.0600 
    149 H149        0.5328  -20.7691  -42.4717 H         1 UNK         0.3000 
    150 H150       -1.7786  -18.3734  -43.8533 H         1 UNK         0.0600 
    151 H151       -2.5372  -18.8595  -41.5263 H         1 UNK         0.0600 
    152 H152       -1.4824  -17.4535  -41.5695 H         1 UNK         0.0600 
    153 H153       -0.8652  -19.0008  -40.9952 H         1 UNK         0.0600 
    154 H154        0.7494  -18.0102  -42.6261 H         1 UNK         0.3000 
    155 H155        2.7673  -18.3439  -45.5704 H         1 UNK         0.0600 
    156 H156        2.0447  -15.9991  -43.7385 H         1 UNK         0.0600 
    157 H157        3.5242  -16.1413  -44.6925 H         1 UNK         0.0600 
    158 H158        1.9681  -15.9949  -45.4881 H         1 UNK         0.0600 
    159 H159        3.3041  -17.8893  -42.7694 H         1 UNK         0.3000 
    160 H160        3.9215  -21.2849  -41.9141 H         1 UNK         0.0600 
    161 H161        5.8546  -18.9445  -42.3547 H         1 UNK         0.0600 
    162 H162        6.0105  -20.5459  -43.0671 H         1 UNK         0.0600 
    163 H163        6.1402  -20.3492  -41.3268 H         1 UNK         0.0600 
    164 H164        4.2237  -18.8166  -40.4885 H         1 UNK         0.3000 
    165 H165        0.9111  -18.6892  -39.1604 H         1 UNK         0.0600 
    166 H166        2.1755  -18.7267  -37.0363 H         1 UNK         0.0600 
    167 H167        2.1552  -20.3333  -37.7445 H         1 UNK         0.0600 
    168 H168        3.6076  -19.3466  -37.8586 H         1 UNK         0.0600 
    169 H169        3.1072  -17.0155  -38.6378 H         1 UNK         0.3000 
    170 H170        2.9615  -14.8470  -39.2828 H         1 UNK         0.0600 
    171 H171        3.8258  -15.2890  -42.1973 H         1 UNK         0.0600 
    172 H172        4.4574  -14.0574  -41.1078 H         1 UNK         0.0600 
    173 H173        4.7496  -15.7562  -40.7755 H         1 UNK         0.0600 
    174 H174        1.8379  -13.9216  -41.8234 H         1 UNK         0.3000 
    175 H175       -1.2327  -13.0973  -40.7870 H         1 UNK         0.0600 
    176 H176       -0.9321  -10.6184  -40.6738 H         1 UNK         0.0600 
    177 H177        0.7637  -10.8325  -40.2402 H         1 UNK         0.0600 
    178 H178       -0.5056  -11.3749  -39.1481 H         1 UNK         0.0600 
    179 H179        1.0739  -12.2305  -42.4876 H         1 UNK         0.3000 
    180 H180       -0.3112  -11.4444  -45.0086 H         1 UNK         0.0600 
    181 H181        1.6785  -13.7037  -44.4444 H         1 UNK         0.0600 
    182 H182        1.9481  -11.9763  -44.2277 H         1 UNK         0.0600 
    183 H183        1.7652  -12.6341  -45.8380 H         1 UNK         0.0600 
    184 H184       -1.1626  -12.7657  -46.5506 H         1 UNK         0.3000 
    185 H185       -1.1477  -16.1762  -47.2215 H         1 UNK         0.0600 
    186 H186       -3.2267  -16.2104  -45.8847 H         1 UNK         0.0600 
    187 H187       -3.6883  -14.6304  -46.5042 H         1 UNK         0.0600 
    188 H188       -3.6028  -16.0171  -47.5906 H         1 UNK         0.0600 
    189 H189       -2.2888  -13.6254  -48.2079 H         1 UNK         0.3000 
    190 H190       -0.8335  -20.1771  -46.4263 H         1 UNK         0.3000 
    191 H191       -2.5433  -20.2831  -48.6956 H         1 UNK         0.0600 
    192 H192       -2.3479  -18.2969  -47.2467 H         1 UNK         0.0600 
    193 H193       -4.0241  -18.8162  -47.3547 H         1 UNK         0.0600 
    194 H194       -3.0912  -19.1617  -45.9044 H         1 UNK         0.0600 
    195 H195       -2.8344  -21.8674  -45.4973 H         1 UNK         0.3000 
    196 H196       -5.3329  -23.1297  -45.9545 H         1 UNK         0.0600 
    197 H197       -4.6624  -24.5999  -44.0702 H         1 UNK         0.0600 
    198 H198       -4.2877  -22.9208  -43.7100 H         1 UNK         0.0600 
    199 H199       -3.0031  -24.0303  -44.1805 H         1 UNK         0.0600 
    200 H200       -1.9817  -24.3048  -46.5659 H         1 UNK         0.3000 
    201 H201       -2.6710  -26.8114  -47.7047 H         1 UNK         0.0600 
    202 H202       -0.3909  -26.2517  -46.9014 H         1 UNK         0.0600 
    203 H203       -0.2088  -25.0464  -48.1733 H         1 UNK         0.0600 
    204 H204       -0.3378  -26.7514  -48.5854 H         1 UNK         0.0600 
    205 H205       -2.4195  -23.5805  -49.1417 H         1 UNK         0.3000 
    206 H206       -3.0154  -24.4165  -51.8569 H         1 UNK         0.0600 
    207 H207       -1.6178  -22.4199  -51.3600 H         1 UNK         0.0600 
    208 H208       -3.0428  -21.9628  -52.2733 H         1 UNK         0.0600 
    209 H209       -2.9768  -21.6512  -50.5473 H         1 UNK         0.0600 
    210 H210       -4.9896  -24.8638  -49.4201 H         1 UNK         0.3000 
    211 H211       -7.1487  -25.1571  -49.1112 H         1 UNK         0.0600 
    212 H212       -7.4325  -24.8066  -52.1429 H         1 UNK         0.0600 
    213 H213       -8.6206  -25.5353  -51.0722 H         1 UNK         0.0600 
    214 H214       -7.0621  -26.3104  -51.3050 H         1 UNK         0.0600 
    215 H215       -6.3752  -22.8152  -48.2940 H         1 UNK         0.3000 
    216 H216       -7.0093  -20.8598  -47.4957 H         1 UNK         0.0600 
    217 H217       -9.3470  -20.1165  -47.4697 H         1 UNK         0.0600 
    218 H218       -9.2857  -21.8366  -47.1208 H         1 UNK         0.0600 
    219 H219       -9.7904  -21.2736  -48.7137 H         1 UNK         0.0600 
    220 H220       -5.4825  -20.9477  -49.6211 H         1 UNK         0.3000 
    221 H221       -4.5006  -19.8301  -51.2509 H         1 UNK         0.0600 
    222 H222       -6.2222  -17.4250  -50.4604 H         1 UNK         0.0600 
    223 H223       -4.7446  -17.9176  -49.6369 H         1 UNK         0.0600 
    224 H224       -4.6835  -17.3796  -51.3059 H         1 UNK         0.0600 
    225 H225       -6.9638  -21.3218  -51.9578 H         1 UNK         0.3000 
    226 H226       -8.1193  -19.9784  -54.2771 H         1 UNK         0.0600 
    227 H227       -9.4244  -21.6471  -52.9779 H         1 UNK         0.0600 
    228 H228       -9.2098  -22.1886  -54.6366 H         1 UNK         0.0600 
    229 H229       -8.2391  -22.8963  -53.3505 H         1 UNK         0.0600 
    230 H230       -5.5371  -22.3222  -53.6087 H         1 UNK         0.3000 
    231 H231       -4.7286  -22.4407  -56.4823 H         1 UNK         0.0600 
    232 H232       -3.9497  -24.2198  -54.1146 H         1 UNK         0.0600 
    233 H233       -3.5076  -24.4687  -55.7995 H         1 UNK         0.0600 
    234 H234       -5.1867  -24.6097  -55.3066 H         1 UNK         0.0600 
    235 H235       -4.3092  -20.0504  -54.9217 H         1 UNK         0.3000 
    236 H236       -1.5496  -19.8785  -54.0562 H         1 UNK         0.0600 
    237 H237       -3.3111  -18.4350  -53.0883 H         1 UNK         0.0600 
    238 H238       -2.1139  -17.4331  -53.8741 H         1 UNK         0.0600 
    239 H239       -3.6562  -17.7316  -54.6667 H         1 UNK         0.0600 
    240 H240       -0.2594  -17.9576  -55.0054 H         1 UNK         0.3000 
    241 H241        0.7560  -18.7748  -57.4717 H         1 UNK         0.0600 
    242 H242       -1.9394  -16.5624  -57.1208 H         1 UNK         0.3800 
    243 H243       -1.8478  -15.9250  -58.7412 H         1 UNK         0.3800 
    244 H244        2.3650  -16.9541  -57.2488 H         1 UNK         0.0800 
    245 H245        1.3475  -16.0933  -56.1304 H         1 UNK         0.0800 
    246 H246        2.1779  -15.9560  -53.7738 H         1 UNK         0.0800 
    247 H247        0.7583  -16.9677  -53.6845 H         1 UNK         0.0800 
@<TRIPOS>BOND
     1    1    2 1    
     2    1  127 1    
     3    1  128 1    
     4    1  129 1    
     5    2    3 2    
     6    2    4 am   BACKBONE|DICT|INTERRES
     7    4    5 1    
     8    4  130 1    
     9    5    6 1    
    10    5   65 1    
    11    5  131 1    
    12    6    7 1    
    13    6  132 1    
    14    6  133 1    
    15    7    8 1    
    16    8    9 1    
    17    8  134 1    
    18    8  135 1    
    19    9   10 ar   
    20    9   14 ar   
    21   10   11 ar   
    22   10  136 1    
    23   11   12 ar   
    24   11  126 1    
    25   12   13 ar   
    26   12  137 1    
    27   13   14 ar   
    28   13   15 1    
    29   14  138 1    
    30   15   16 1    
    31   15  139 1    
    32   15  140 1    
    33   16   17 1    
    34   17   18 1    
    35   17  141 1    
    36   17  142 1    
    37   18   19 1    
    38   18   67 1    
    39   18  143 1    
    40   19   20 am   BACKBONE|DICT|INTERRES
    41   19  144 1    
    42   20   21 2    
    43   20   22 1    
    44   22   23 1    
    45   22   24 1    
    46   22  145 1    
    47   23  146 1    
    48   23  147 1    
    49   23  148 1    
    50   24   25 am   BACKBONE|DICT|INTERRES
    51   24  149 1    
    52   25   26 2    
    53   25   27 1    
    54   27   28 1    
    55   27   29 1    
    56   27  150 1    
    57   28  151 1    
    58   28  152 1    
    59   28  153 1    
    60   29   30 am   BACKBONE|DICT|INTERRES
    61   29  154 1    
    62   30   31 2    
    63   30   32 1    
    64   32   33 1    
    65   32   34 1    
    66   32  155 1    
    67   33  156 1    
    68   33  157 1    
    69   33  158 1    
    70   34   35 am   BACKBONE|DICT|INTERRES
    71   34  159 1    
    72   35   36 2    
    73   35   37 1    
    74   37   38 1    
    75   37   39 1    
    76   37  160 1    
    77   38  161 1    
    78   38  162 1    
    79   38  163 1    
    80   39   40 am   BACKBONE|DICT|INTERRES
    81   39  164 1    
    82   40   41 2    
    83   40   42 1    
    84   42   43 1    
    85   42   44 1    
    86   42  165 1    
    87   43  166 1    
    88   43  167 1    
    89   43  168 1    
    90   44   45 am   BACKBONE|DICT|INTERRES
    91   44  169 1    
    92   45   46 2    
    93   45   47 1    
    94   47   48 1    
    95   47   49 1    
    96   47  170 1    
    97   48  171 1    
    98   48  172 1    
    99   48  173 1    
   100   49   50 am   BACKBONE|DICT|INTERRES
   101   49  174 1    
   102   50   51 2    
   103   50   52 1    
   104   52   53 1    
   105   52   54 1    
   106   52  175 1    
   107   53  176 1    
   108   53  177 1    
   109   53  178 1    
   110   54   55 am   BACKBONE|DICT|INTERRES
   111   54  179 1    
   112   55   56 2    
   113   55   57 1    
   114   57   58 1    
   115   57   59 1    
   116   57  180 1    
   117   58  181 1    
   118   58  182 1    
   119   58  183 1    
   120   59   60 am   BACKBONE|DICT|INTERRES
   121   59  184 1    
   122   60   61 2    
   123   60   62 1    
   124   62   63 1    
   125   62   64 1    
   126   62  185 1    
   127   63  186 1    
   128   63  187 1    
   129   63  188 1    
   130   64   65 am   BACKBONE|DICT|INTERRES
   131   64  189 1    
   132   65   66 2    
   133   67   68 2    
   134   67   69 am   BACKBONE|DICT|INTERRES
   135   69   70 1    
   136   69  190 1    
   137   70   71 1    
   138   70   72 1    
   139   70  191 1    
   140   71  192 1    
   141   71  193 1    
   142   71  194 1    
   143   72   73 2    
   144   72   74 am   BACKBONE|DICT|INTERRES
   145   74   75 1    
   146   74  195 1    
   147   75   76 1    
   148   75   77 1    
   149   75  196 1    
   150   76  197 1    
   151   76  198 1    
   152   76  199 1    
   153   77   78 2    
   154   77   79 am   BACKBONE|DICT|INTERRES
   155   79   80 1    
   156   79  200 1    
   157   80   81 1    
   158   80   82 1    
   159   80  201 1    
   160   81  202 1    
   161   81  203 1    
   162   81  204 1    
   163   82   83 2    
   164   82   84 am   BACKBONE|DICT|INTERRES
   165   84   85 1    
   166   84  205 1    
   167   85   86 1    
   168   85   87 1    
   169   85  206 1    
   170   86  207 1    
   171   86  208 1    
   172   86  209 1    
   173   87   88 2    
   174   87   89 am   BACKBONE|DICT|INTERRES
   175   89   90 1    
   176   89  210 1    
   177   90   91 1    
   178   90   92 1    
   179   90  211 1    
   180   91  212 1    
   181   91  213 1    
   182   91  214 1    
   183   92   93 2    
   184   92   94 am   BACKBONE|DICT|INTERRES
   185   94   95 1    
   186   94  215 1    
   187   95   96 1    
   188   95   97 1    
   189   95  216 1    
   190   96  217 1    
   191   96  218 1    
   192   96  219 1    
   193   97   98 2    
   194   97   99 am   BACKBONE|DICT|INTERRES
   195   99  100 1    
   196   99  220 1    
   197  100  101 1    
   198  100  102 1    
   199  100  221 1    
   200  101  222 1    
   201  101  223 1    
   202  101  224 1    
   203  102  103 2    
   204  102  104 am   BACKBONE|DICT|INTERRES
   205  104  105 1    
   206  104  225 1    
   207  105  106 1    
   208  105  107 1    
   209  105  226 1    
   210  106  227 1    
   211  106  228 1    
   212  106  229 1    
   213  107  108 2    
   214  107  109 am   BACKBONE|DICT|INTERRES
   215  109  110 1    
   216  109  230 1    
   217  110  111 1    
   218  110  112 1    
   219  110  231 1    
   220  111  232 1    
   221  111  233 1    
   222  111  234 1    
   223  112  113 2    
   224  112  114 am   BACKBONE|DICT|INTERRES
   225  114  115 1    
   226  114  235 1    
   227  115  116 1    
   228  115  117 1    
   229  115  236 1    
   230  116  237 1    
   231  116  238 1    
   232  116  239 1    
   233  117  118 2    
   234  117  119 am   BACKBONE|DICT|INTERRES
   235  119  120 1    
   236  119  240 1    
   237  120  121 1    
   238  120  124 1    
   239  120  241 1    
   240  121  122 am   BACKBONE|DICT|INTERRES
   241  121  123 2    
   242  122  242 1    
   243  122  243 1    
   244  124  125 1    
   245  124  244 1    
   246  124  245 1    
   247  125  126 1    
   248  126  246 1    
   249  126  247 1    
@<TRIPOS>SUBSTRUCTURE
     1 UNK         1 GROUP             0       ****    0 ROOT    
