@<TRIPOS>MOLECULE
3R540
247   249    1
SMALL
USER_CHARGES


@<TRIPOS>ATOM
      1 CA          2.8719  -11.3904  -45.5552 C.3       0 UNK        -0.1800 
      2 C           2.3260  -12.7978  -45.7513 C.2       0 UNK         0.5000 
      3 O           2.8525  -13.7449  -45.1685 O.2       0 UNK        -0.5000 
      4 N           1.2731  -12.9347  -46.5682 N.am      1 UNK        -0.5000 
      5 CA          0.5652  -14.1918  -46.8333 C.3       1 UNK         0.1400 
      6 C6         -0.1374  -14.1591  -48.2168 C.3       23 UNK        -0.0398 
      7 S7         -0.3331  -15.8139  -48.9671 S.3       23 UNK        -0.2404 
      8 C8          1.2731  -16.0252  -49.7923 C.3       23 UNK        -0.0205 
      9 C9          1.2878  -17.2796  -50.6516 C.ar      23 UNK        -0.0193 
     10 C10         0.8396  -17.2206  -51.9727 C.ar      23 UNK        -0.1150 
     11 C11         0.8704  -18.3578  -52.7820 C.ar      23 UNK        -0.0193 
     12 C12         1.3363  -19.5650  -52.2548 C.ar      23 UNK        -0.1150 
     13 C13         1.7782  -19.6493  -50.9308 C.ar      23 UNK        -0.0193 
     14 C14         1.7602  -18.4919  -50.1381 C.ar      23 UNK        -0.1150 
     15 C15         2.2827  -21.0052  -50.4254 C.3       23 UNK        -0.0205 
     16 S16         2.4350  -21.1899  -48.6138 S.3       23 UNK        -0.2404 
     17 C17         0.6954  -21.0545  -48.0842 C.3       23 UNK        -0.0398 
     18 CA          0.0893  -22.3675  -47.5304 C.3       11 UNK         0.1400 
     19 N           0.9451  -23.0252  -46.5350 N.am      11 UNK        -0.5000 
     20 C           0.7108  -24.2339  -46.0026 C.2       10 UNK         0.5000 
     21 O          -0.2698  -24.9242  -46.2754 O.2       10 UNK        -0.5000 
     22 CA          1.7145  -24.7334  -44.9491 C.3       10 UNK         0.1400 
     23 CB          2.9390  -25.3644  -45.6275 C.3       10 UNK        -0.1800 
     24 N           2.1595  -23.6849  -44.0310 N.am      10 UNK        -0.5000 
     25 C           1.3732  -22.9542  -43.2310 C.2       9 UNK         0.5000 
     26 O           0.1481  -23.0672  -43.1929 O.2       9 UNK        -0.5000 
     27 CA          2.0606  -21.8834  -42.3659 C.3       9 UNK         0.1400 
     28 CB          2.7257  -22.4980  -41.1201 C.3       9 UNK        -0.1800 
     29 N           2.9823  -21.0274  -43.1255 N.am      9 UNK        -0.5000 
     30 C           4.1657  -21.3343  -43.6835 C.2       8 UNK         0.5000 
     31 O           4.6926  -22.4431  -43.5807 O.2       8 UNK        -0.5000 
     32 CA          4.8472  -20.2534  -44.5519 C.3       8 UNK         0.1400 
     33 CB          5.4981  -20.8658  -45.8053 C.3       8 UNK        -0.1800 
     34 N           3.8950  -19.2302  -44.9839 N.am      8 UNK        -0.5000 
     35 C           3.6807  -18.0585  -44.3748 C.2       7 UNK         0.5000 
     36 O           4.3516  -17.6530  -43.4244 O.2       7 UNK        -0.5000 
     37 CA          2.4955  -17.2109  -44.8909 C.3       7 UNK         0.1400 
     38 CB          1.6409  -17.9229  -45.9670 C.3       7 UNK        -0.1800 
     39 N           1.6427  -16.7492  -43.7899 N.am      7 UNK        -0.5000 
     40 C           1.0197  -17.5204  -42.8847 C.2       6 UNK         0.5000 
     41 O           1.0418  -18.7515  -42.9231 O.2       6 UNK        -0.5000 
     42 CA          0.1998  -16.8227  -41.7751 C.3       6 UNK         0.1400 
     43 CB          0.4369  -17.4706  -40.3946 C.3       6 UNK        -0.1800 
     44 N           0.3484  -15.3600  -41.7118 N.am      6 UNK        -0.5000 
     45 C           1.4428  -14.6696  -41.3573 C.2       5 UNK         0.5000 
     46 O           2.5168  -15.1991  -41.0713 O.2       5 UNK        -0.5000 
     47 CA          1.3190  -13.1356  -41.3042 C.3       5 UNK         0.1400 
     48 CB          2.6483  -12.4252  -41.6303 C.3       5 UNK        -0.1800 
     49 N           0.2556  -12.6231  -42.1736 N.am      5 UNK        -0.5000 
     50 C          -0.4238  -11.4932  -41.9355 C.2       4 UNK         0.5000 
     51 O          -0.3073  -10.8312  -40.9032 O.2       4 UNK        -0.5000 
     52 CA         -1.3785  -10.9999  -43.0328 C.3       4 UNK         0.1400 
     53 CB         -0.5884  -10.3962  -44.2045 C.3       4 UNK        -0.1800 
     54 N          -2.2415  -12.0659  -43.5385 N.am      4 UNK        -0.5000 
     55 C          -3.5379  -12.2024  -43.2281 C.2       3 UNK         0.5000 
     56 O          -4.1198  -11.4933  -42.4058 O.2       3 UNK        -0.5000 
     57 CA         -4.3442  -13.2816  -43.9796 C.3       3 UNK         0.1400 
     58 CB         -5.2496  -12.6294  -45.0367 C.3       3 UNK        -0.1800 
     59 N          -3.5102  -14.2858  -44.6402 N.am      3 UNK        -0.5000 
     60 C          -2.9361  -15.3183  -44.0131 C.2       2 UNK         0.5000 
     61 O          -3.0362  -15.5325  -42.8052 O.2       2 UNK        -0.5000 
     62 CA         -2.0694  -16.2495  -44.8790 C.3       2 UNK         0.1400 
     63 CB         -2.9329  -17.3216  -45.5558 C.3       2 UNK        -0.1800 
     64 N          -1.2405  -15.5777  -45.8861 N.am      2 UNK        -0.5000 
     65 C          -0.3710  -14.5825  -45.6609 C.2       1 UNK         0.5000 
     66 O          -0.2788  -14.0073  -44.5729 O.2       1 UNK        -0.5000 
     67 C          -1.3170  -22.0713  -46.9730 C.2       11 UNK         0.5000 
     68 O          -2.3042  -22.2151  -47.6958 O.2       11 UNK        -0.5000 
     69 N          -1.3694  -21.6576  -45.6993 N.am      12 UNK        -0.5000 
     70 CA         -2.5983  -21.3652  -44.9693 C.3       12 UNK         0.1400 
     71 CB         -2.2677  -20.4936  -43.7462 C.3       12 UNK        -0.1800 
     72 C          -3.3201  -22.6569  -44.5523 C.2       12 UNK         0.5000 
     73 O          -4.5342  -22.7527  -44.7269 O.2       12 UNK        -0.5000 
     74 N          -2.5570  -23.6362  -44.0443 N.am      13 UNK        -0.5000 
     75 CA         -3.0473  -24.9422  -43.5980 C.3       13 UNK         0.1400 
     76 CB         -1.9080  -25.7049  -42.9052 C.3       13 UNK        -0.1800 
     77 C          -3.6534  -25.7861  -44.7342 C.2       13 UNK         0.5000 
     78 O          -4.6989  -26.4067  -44.5382 O.2       13 UNK        -0.5000 
     79 N          -3.0059  -25.7713  -45.9072 N.am      14 UNK        -0.5000 
     80 CA         -3.4830  -26.4311  -47.1249 C.3       14 UNK         0.1400 
     81 CB         -2.2943  -26.6307  -48.0790 C.3       14 UNK        -0.1800 
     82 C          -4.6040  -25.6509  -47.8396 C.2       14 UNK         0.5000 
     83 O          -5.2419  -26.2089  -48.7331 O.2       14 UNK        -0.5000 
     84 N          -4.7965  -24.3764  -47.4632 N.am      15 UNK        -0.5000 
     85 CA         -5.6807  -23.3844  -48.0858 C.3       15 UNK         0.1400 
     86 CB         -7.1630  -23.7726  -47.9083 C.3       15 UNK        -0.1800 
     87 C          -5.2969  -23.0914  -49.5530 C.2       15 UNK         0.5000 
     88 O          -6.1659  -22.8391  -50.3882 O.2       15 UNK        -0.5000 
     89 N          -3.9887  -23.1400  -49.8324 N.am      16 UNK        -0.5000 
     90 CA         -3.3894  -22.8578  -51.1332 C.3       16 UNK         0.1400 
     91 CB         -2.0619  -23.6245  -51.2410 C.3       16 UNK        -0.1800 
     92 C          -3.1529  -21.3528  -51.3359 C.2       16 UNK         0.5000 
     93 O          -3.1986  -20.8886  -52.4740 O.2       16 UNK        -0.5000 
     94 N          -2.9056  -20.6331  -50.2308 N.am      17 UNK        -0.5000 
     95 CA         -2.6234  -19.1996  -50.1566 C.3       17 UNK         0.1400 
     96 CB         -2.5265  -18.8016  -48.6763 C.3       17 UNK        -0.1800 
     97 C          -3.6692  -18.3330  -50.8846 C.2       17 UNK         0.5000 
     98 O          -4.7974  -18.2051  -50.4052 O.2       17 UNK        -0.5000 
     99 N          -3.2638  -17.7773  -52.0344 N.am      18 UNK        -0.5000 
    100 CA        -4.0422  -16.9383  -52.9527 C.3       18 UNK         0.1400 
    101 CB        -4.4244  -15.6041  -52.2785 C.3       18 UNK        -0.1800 
    102 C         -5.2531  -17.6533  -53.5961 C.2       18 UNK         0.5000 
    103 O         -6.1792  -16.9820  -54.0559 O.2       18 UNK        -0.5000 
    104 N         -5.2300  -18.9919  -53.6278 N.am      19 UNK        -0.5000 
    105 CA        -6.2763  -19.8365  -54.2005 C.3       19 UNK         0.1400 
    106 CB        -6.4776  -21.0503  -53.2742 C.3       19 UNK        -0.1800 
    107 C         -5.9179  -20.2604  -55.6387 C.2       19 UNK         0.5000 
    108 O         -5.0093  -19.6961  -56.2555 O.2       19 UNK        -0.5000 
    109 N         -6.6197  -21.2831  -56.1475 N.am      20 UNK        -0.5000 
    110 CA        -6.4073  -21.8957  -57.4650 C.3       20 UNK         0.1400 
    111 CB        -7.5125  -22.9337  -57.7132 C.3       20 UNK        -0.1800 
    112 C         -5.0140  -22.5353  -57.6495 C.2       20 UNK         0.5000 
    113 O         -4.5791  -22.7186  -58.7867 O.2       20 UNK        -0.5000 
    114 N         -4.3317  -22.8370  -56.5351 N.am      21 UNK        -0.5000 
    115 CA        -2.9294  -23.2524  -56.4925 C.3       21 UNK         0.1400 
    116 CB        -2.5939  -23.7194  -55.0678 C.3       21 UNK        -0.1800 
    117 C         -1.9627  -22.1331  -56.9316 C.2       21 UNK         0.5000 
    118 O         -0.9245  -22.4304  -57.5242 O.2       21 UNK        -0.5000 
    119 N         -2.3256  -20.8768  -56.6447 N.am      22 UNK        -0.5000 
    120 CA        -1.6078  -19.6726  -57.0842 C.3       22 UNK         0.1400 
    121 C         -2.0965  -19.2054  -58.4798 C.2       22 UNK         0.5000 
    122 N         -3.4024  -19.1798  -58.7223 N.am      22 UNK        -0.7600 
    123 O         -1.2920  -18.8652  -59.3426 O.2       22 UNK        -0.5000 
    124 C124       -1.7330  -18.5078  -56.0700 C.3       23 UNK        -0.0398 
    125 S125       -1.2704  -18.9781  -54.3725 S.3       23 UNK        -0.2404 
    126 C126        0.3969  -18.2837  -54.2234 C.3       23 UNK        -0.0205 
    127 H127        2.3819  -10.6706  -46.2113 H         1 UNK         0.0600 
    128 H128        3.9411  -11.3691  -45.7659 H         1 UNK         0.0600 
    129 H129        2.7192  -11.0692  -44.5250 H         1 UNK         0.0600 
    130 H130        0.8777  -12.1106  -46.9971 H         1 UNK         0.3000 
    131 H131        1.3289  -14.9701  -46.8756 H         1 UNK         0.0600 
    132 H132       -1.1148  -13.6777  -48.1516 H         1 UNK         0.0800 
    133 H133        0.4365  -13.5505  -48.9174 H         1 UNK         0.0800 
    134 H134        2.0654  -16.0713  -49.0436 H         1 UNK         0.0800 
    135 H135        1.4848  -15.1535  -50.4134 H         1 UNK         0.0800 
    136 H136        0.4727  -16.2852  -52.3718 H         1 UNK         0.1150 
    137 H137        1.3507  -20.4453  -52.8826 H         1 UNK         0.1150 
    138 H138        2.1151  -18.5224  -49.1202 H         1 UNK         0.1150 
    139 H139        1.6273  -21.7964  -50.7933 H         1 UNK         0.0800 
    140 H140        3.2628  -21.1883  -50.8674 H         1 UNK         0.0800 
    141 H141        0.0951  -20.7004  -48.9238 H         1 UNK         0.0800 
    142 H142        0.6521  -20.2643  -47.3354 H         1 UNK         0.0800 
    143 H143       -0.0277  -23.0637  -48.3634 H         1 UNK         0.0600 
    144 H144        1.7862  -22.5358  -46.2690 H         1 UNK         0.3000 
    145 H145        1.2175  -25.5028  -44.3557 H         1 UNK         0.0600 
    146 H146        3.6142  -25.8024  -44.8922 H         1 UNK         0.0600 
    147 H147        2.6408  -26.1616  -46.3098 H         1 UNK         0.0600 
    148 H148        3.5033  -24.6305  -46.2045 H         1 UNK         0.0600 
    149 H149        3.1580  -23.5002  -43.9879 H         1 UNK         0.3000 
    150 H150        1.2699  -21.2219  -42.0096 H         1 UNK         0.0600 
    151 H151        1.9896  -23.0232  -40.5103 H         1 UNK         0.0600 
    152 H152        3.1754  -21.7272  -40.4943 H         1 UNK         0.0600 
    153 H153        3.5028  -23.2176  -41.3778 H         1 UNK         0.0600 
    154 H154        2.6206  -20.0923  -43.2789 H         1 UNK         0.3000 
    155 H155        5.6360  -19.8024  -43.9467 H         1 UNK         0.0600 
    156 H156        6.2801  -21.5771  -45.5366 H         1 UNK         0.0600 
    157 H157        5.9626  -20.0975  -46.4236 H         1 UNK         0.0600 
    158 H158        4.7695  -21.3952  -46.4205 H         1 UNK         0.0600 
    159 H159        3.2961  -19.4831  -45.7561 H         1 UNK         0.3000 
    160 H160        2.9357  -16.3253  -45.3473 H         1 UNK         0.0600 
    161 H161        2.2409  -18.1849  -46.8381 H         1 UNK         0.0600 
    162 H162        0.8366  -17.2853  -46.3249 H         1 UNK         0.0600 
    163 H163        1.1821  -18.8344  -45.5840 H         1 UNK         0.0600 
    164 H164        1.6054  -15.7477  -43.6590 H         1 UNK         0.3000 
    165 H165       -0.8464  -17.0023  -42.0195 H         1 UNK         0.0600 
    166 H166       -0.1532  -16.9797  -39.6207 H         1 UNK         0.0600 
    167 H167        0.1471  -18.5221  -40.4020 H         1 UNK         0.0600 
    168 H168        1.4851  -17.4280  -40.0980 H         1 UNK         0.0600 
    169 H169       -0.4851  -14.8329  -41.9349 H         1 UNK         0.3000 
    170 H170        1.0636  -12.9087  -40.2671 H         1 UNK         0.0600 
    171 H171        3.4324  -12.7145  -40.9298 H         1 UNK         0.0600 
    172 H172        2.9965  -12.6748  -42.6322 H         1 UNK         0.0600 
    173 H173        2.5496  -11.3415  -41.5689 H         1 UNK         0.0600 
    174 H174        0.1124  -13.1151  -43.0545 H         1 UNK         0.3000 
    175 H175       -1.9814  -10.1970  -42.6030 H         1 UNK         0.0600 
    176 H176        0.0059  -11.1500  -44.7181 H         1 UNK         0.0600 
    177 H177       -1.2574   -9.9440  -44.9367 H         1 UNK         0.0600 
    178 H178        0.0927   -9.6169  -43.8603 H         1 UNK         0.0600 
    179 H179       -1.8116  -12.7392  -44.1610 H         1 UNK         0.3000 
    180 H180       -4.9836  -13.7803  -43.2480 H         1 UNK         0.0600 
    181 H181       -4.6680  -12.1129  -45.8015 H         1 UNK         0.0600 
    182 H182       -5.9180  -11.8968  -44.5824 H         1 UNK         0.0600 
    183 H183       -5.8746  -13.3719  -45.5333 H         1 UNK         0.0600 
    184 H184       -3.3644  -14.1792  -45.6333 H         1 UNK         0.3000 
    185 H185       -1.3873  -16.7668  -44.2088 H         1 UNK         0.0600 
    186 H186       -3.5948  -17.8074  -44.8375 H         1 UNK         0.0600 
    187 H187       -3.5566  -16.9006  -46.3451 H         1 UNK         0.0600 
    188 H188       -2.3085  -18.1007  -45.9912 H         1 UNK         0.0600 
    189 H189       -1.2638  -15.9759  -46.8159 H         1 UNK         0.3000 
    190 H190       -0.5132  -21.6226  -45.1657 H         1 UNK         0.3000 
    191 H191       -3.2641  -20.7967  -45.6228 H         1 UNK         0.0600 
    192 H192       -1.7370  -19.5868  -44.0357 H         1 UNK         0.0600 
    193 H193       -3.1781  -20.1885  -43.2291 H         1 UNK         0.0600 
    194 H194       -1.6432  -21.0223  -43.0255 H         1 UNK         0.0600 
    195 H195       -1.5669  -23.4555  -43.8989 H         1 UNK         0.3000 
    196 H196       -3.8339  -24.7653  -42.8617 H         1 UNK         0.0600 
    197 H197       -2.2528  -26.6703  -42.5329 H         1 UNK         0.0600 
    198 H198       -1.5206  -25.1465  -42.0528 H         1 UNK         0.0600 
    199 H199       -1.0784  -25.8923  -43.5871 H         1 UNK         0.0600 
    200 H200       -2.1133  -25.2879  -45.9758 H         1 UNK         0.3000 
    201 H201       -3.8787  -27.4141  -46.8615 H         1 UNK         0.0600 
    202 H202       -1.8732  -25.6770  -48.4005 H         1 UNK         0.0600 
    203 H203       -2.5967  -27.1737  -48.9753 H         1 UNK         0.0600 
    204 H204       -1.4987  -27.2052  -47.6043 H         1 UNK         0.0600 
    205 H205       -4.2320  -24.0276  -46.7005 H         1 UNK         0.3000 
    206 H206       -5.5176  -22.4532  -47.5412 H         1 UNK         0.0600 
    207 H207       -7.3949  -23.9691  -46.8615 H         1 UNK         0.0600 
    208 H208       -7.8193  -22.9671  -48.2398 H         1 UNK         0.0600 
    209 H209       -7.4226  -24.6617  -48.4832 H         1 UNK         0.0600 
    210 H210       -3.3488  -23.2748  -49.0578 H         1 UNK         0.3000 
    211 H211       -4.0557  -23.2079  -51.9243 H         1 UNK         0.0600 
    212 H212       -1.5764  -23.4373  -52.1993 H         1 UNK         0.0600 
    213 H213       -2.2215  -24.7000  -51.1611 H         1 UNK         0.0600 
    214 H214       -1.3620  -23.3304  -50.4583 H         1 UNK         0.0600 
    215 H215       -2.9067  -21.1273  -49.3466 H         1 UNK         0.3000 
    216 H216       -1.6476  -19.0283  -50.6168 H         1 UNK         0.0600 
    217 H217       -2.4727  -17.7194  -48.5650 H         1 UNK         0.0600 
    218 H218       -1.6379  -19.2191  -48.2064 H         1 UNK         0.0600 
    219 H219       -3.3966  -19.1403  -48.1123 H         1 UNK         0.0600 
    220 H220       -2.3406  -18.0203  -52.3707 H         1 UNK         0.3000 
    221 H221       -3.3701  -16.7016  -53.7783 H         1 UNK         0.0600 
    222 H222       -5.1585  -15.7470  -51.4852 H         1 UNK         0.0600 
    223 H223       -3.5509  -15.1177  -51.8440 H         1 UNK         0.0600 
    224 H224       -4.8549  -14.9088  -52.9999 H         1 UNK         0.0600 
    225 H225       -4.4157  -19.4767  -53.2619 H         1 UNK         0.3000 
    226 H226       -7.2180  -19.2861  -54.2451 H         1 UNK         0.0600 
    227 H227       -6.5914  -20.7366  -52.2360 H         1 UNK         0.0600 
    228 H228       -7.3764  -21.6098  -53.5341 H         1 UNK         0.0600 
    229 H229       -5.6348  -21.7402  -53.3194 H         1 UNK         0.0600 
    230 H230       -7.3489  -21.6938  -55.5824 H         1 UNK         0.3000 
    231 H231       -6.5017  -21.1080  -58.2153 H         1 UNK         0.0600 
    232 H232       -7.4832  -23.7364  -56.9753 H         1 UNK         0.0600 
    233 H233       -7.4072  -23.3897  -58.6986 H         1 UNK         0.0600 
    234 H234       -8.5010  -22.4756  -57.6740 H         1 UNK         0.0600 
    235 H235       -4.7801  -22.6712  -55.6472 H         1 UNK         0.3000 
    236 H236       -2.8007  -24.0957  -57.1741 H         1 UNK         0.0600 
    237 H237       -2.7202  -22.9127  -54.3451 H         1 UNK         0.0600 
    238 H238       -3.2306  -24.5494  -54.7612 H         1 UNK         0.0600 
    239 H239       -1.5600  -24.0603  -55.0013 H         1 UNK         0.0600 
    240 H240       -3.2170  -20.7097  -56.1956 H         1 UNK         0.3000 
    241 H241       -0.5457  -19.9101  -57.1720 H         1 UNK         0.0600 
    242 H242       -3.7382  -18.8827  -59.6245 H         1 UNK         0.3800 
    243 H243       -4.0604  -19.4100  -57.9852 H         1 UNK         0.3800 
    244 H244       -1.1275  -17.6581  -56.3896 H         1 UNK         0.0800 
    245 H245       -2.7615  -18.1448  -56.0322 H         1 UNK         0.0800 
    246 H246        1.0809  -18.8336  -54.8715 H         1 UNK         0.0800 
    247 H247        0.3990  -17.2490  -54.5696 H         1 UNK         0.0800 
@<TRIPOS>BOND
     1    1    2 1    
     2    1  127 1    
     3    1  128 1    
     4    1  129 1    
     5    2    3 2    
     6    2    4 am   BACKBONE|DICT|INTERRES
     7    4    5 1    
     8    4  130 1    
     9    5    6 1    
    10    5   65 1    
    11    5  131 1    
    12    6    7 1    
    13    6  132 1    
    14    6  133 1    
    15    7    8 1    
    16    8    9 1    
    17    8  134 1    
    18    8  135 1    
    19    9   10 ar   
    20    9   14 ar   
    21   10   11 ar   
    22   10  136 1    
    23   11   12 ar   
    24   11  126 1    
    25   12   13 ar   
    26   12  137 1    
    27   13   14 ar   
    28   13   15 1    
    29   14  138 1    
    30   15   16 1    
    31   15  139 1    
    32   15  140 1    
    33   16   17 1    
    34   17   18 1    
    35   17  141 1    
    36   17  142 1    
    37   18   19 1    
    38   18   67 1    
    39   18  143 1    
    40   19   20 am   BACKBONE|DICT|INTERRES
    41   19  144 1    
    42   20   21 2    
    43   20   22 1    
    44   22   23 1    
    45   22   24 1    
    46   22  145 1    
    47   23  146 1    
    48   23  147 1    
    49   23  148 1    
    50   24   25 am   BACKBONE|DICT|INTERRES
    51   24  149 1    
    52   25   26 2    
    53   25   27 1    
    54   27   28 1    
    55   27   29 1    
    56   27  150 1    
    57   28  151 1    
    58   28  152 1    
    59   28  153 1    
    60   29   30 am   BACKBONE|DICT|INTERRES
    61   29  154 1    
    62   30   31 2    
    63   30   32 1    
    64   32   33 1    
    65   32   34 1    
    66   32  155 1    
    67   33  156 1    
    68   33  157 1    
    69   33  158 1    
    70   34   35 am   BACKBONE|DICT|INTERRES
    71   34  159 1    
    72   35   36 2    
    73   35   37 1    
    74   37   38 1    
    75   37   39 1    
    76   37  160 1    
    77   38  161 1    
    78   38  162 1    
    79   38  163 1    
    80   39   40 am   BACKBONE|DICT|INTERRES
    81   39  164 1    
    82   40   41 2    
    83   40   42 1    
    84   42   43 1    
    85   42   44 1    
    86   42  165 1    
    87   43  166 1    
    88   43  167 1    
    89   43  168 1    
    90   44   45 am   BACKBONE|DICT|INTERRES
    91   44  169 1    
    92   45   46 2    
    93   45   47 1    
    94   47   48 1    
    95   47   49 1    
    96   47  170 1    
    97   48  171 1    
    98   48  172 1    
    99   48  173 1    
   100   49   50 am   BACKBONE|DICT|INTERRES
   101   49  174 1    
   102   50   51 2    
   103   50   52 1    
   104   52   53 1    
   105   52   54 1    
   106   52  175 1    
   107   53  176 1    
   108   53  177 1    
   109   53  178 1    
   110   54   55 am   BACKBONE|DICT|INTERRES
   111   54  179 1    
   112   55   56 2    
   113   55   57 1    
   114   57   58 1    
   115   57   59 1    
   116   57  180 1    
   117   58  181 1    
   118   58  182 1    
   119   58  183 1    
   120   59   60 am   BACKBONE|DICT|INTERRES
   121   59  184 1    
   122   60   61 2    
   123   60   62 1    
   124   62   63 1    
   125   62   64 1    
   126   62  185 1    
   127   63  186 1    
   128   63  187 1    
   129   63  188 1    
   130   64   65 am   BACKBONE|DICT|INTERRES
   131   64  189 1    
   132   65   66 2    
   133   67   68 2    
   134   67   69 am   BACKBONE|DICT|INTERRES
   135   69   70 1    
   136   69  190 1    
   137   70   71 1    
   138   70   72 1    
   139   70  191 1    
   140   71  192 1    
   141   71  193 1    
   142   71  194 1    
   143   72   73 2    
   144   72   74 am   BACKBONE|DICT|INTERRES
   145   74   75 1    
   146   74  195 1    
   147   75   76 1    
   148   75   77 1    
   149   75  196 1    
   150   76  197 1    
   151   76  198 1    
   152   76  199 1    
   153   77   78 2    
   154   77   79 am   BACKBONE|DICT|INTERRES
   155   79   80 1    
   156   79  200 1    
   157   80   81 1    
   158   80   82 1    
   159   80  201 1    
   160   81  202 1    
   161   81  203 1    
   162   81  204 1    
   163   82   83 2    
   164   82   84 am   BACKBONE|DICT|INTERRES
   165   84   85 1    
   166   84  205 1    
   167   85   86 1    
   168   85   87 1    
   169   85  206 1    
   170   86  207 1    
   171   86  208 1    
   172   86  209 1    
   173   87   88 2    
   174   87   89 am   BACKBONE|DICT|INTERRES
   175   89   90 1    
   176   89  210 1    
   177   90   91 1    
   178   90   92 1    
   179   90  211 1    
   180   91  212 1    
   181   91  213 1    
   182   91  214 1    
   183   92   93 2    
   184   92   94 am   BACKBONE|DICT|INTERRES
   185   94   95 1    
   186   94  215 1    
   187   95   96 1    
   188   95   97 1    
   189   95  216 1    
   190   96  217 1    
   191   96  218 1    
   192   96  219 1    
   193   97   98 2    
   194   97   99 am   BACKBONE|DICT|INTERRES
   195   99  100 1    
   196   99  220 1    
   197  100  101 1    
   198  100  102 1    
   199  100  221 1    
   200  101  222 1    
   201  101  223 1    
   202  101  224 1    
   203  102  103 2    
   204  102  104 am   BACKBONE|DICT|INTERRES
   205  104  105 1    
   206  104  225 1    
   207  105  106 1    
   208  105  107 1    
   209  105  226 1    
   210  106  227 1    
   211  106  228 1    
   212  106  229 1    
   213  107  108 2    
   214  107  109 am   BACKBONE|DICT|INTERRES
   215  109  110 1    
   216  109  230 1    
   217  110  111 1    
   218  110  112 1    
   219  110  231 1    
   220  111  232 1    
   221  111  233 1    
   222  111  234 1    
   223  112  113 2    
   224  112  114 am   BACKBONE|DICT|INTERRES
   225  114  115 1    
   226  114  235 1    
   227  115  116 1    
   228  115  117 1    
   229  115  236 1    
   230  116  237 1    
   231  116  238 1    
   232  116  239 1    
   233  117  118 2    
   234  117  119 am   BACKBONE|DICT|INTERRES
   235  119  120 1    
   236  119  240 1    
   237  120  121 1    
   238  120  124 1    
   239  120  241 1    
   240  121  122 am   BACKBONE|DICT|INTERRES
   241  121  123 2    
   242  122  242 1    
   243  122  243 1    
   244  124  125 1    
   245  124  244 1    
   246  124  245 1    
   247  125  126 1    
   248  126  246 1    
   249  126  247 1    
@<TRIPOS>SUBSTRUCTURE
     1 UNK         1 GROUP             0       ****    0 ROOT    
