@<TRIPOS>MOLECULE
3R540
247   249    1
SMALL
USER_CHARGES


@<TRIPOS>ATOM
      1 CA         -4.0091  -12.7317  -42.2382 C.3       0 UNK        -0.1800 
      2 C          -4.3514  -12.1227  -43.5909 C.2       0 UNK         0.5000 
      3 O          -4.6207  -10.9236  -43.6735 O.2       0 UNK        -0.5000 
      4 N          -4.3511  -12.9462  -44.6454 N.am      1 UNK        -0.5000 
      5 CA         -4.5936  -12.5404  -46.0350 C.3       1 UNK         0.1400 
      6 C6         -4.9194  -13.7530  -46.9447 C.3       23 UNK        -0.0398 
      7 S7         -6.2959  -14.7733  -46.3121 S.3       23 UNK        -0.2404 
      8 C8         -6.5525  -15.9377  -47.6890 C.3       23 UNK        -0.0205 
      9 C9         -5.2980  -16.7366  -48.0104 C.ar      23 UNK        -0.0193 
     10 C10        -4.5406  -16.4239  -49.1427 C.ar      23 UNK        -0.1150 
     11 C11        -3.3804  -17.1424  -49.4411 C.ar      23 UNK        -0.0193 
     12 C12        -2.9907  -18.1939  -48.6083 C.ar      23 UNK        -0.1150 
     13 C13        -3.7309  -18.5087  -47.4662 C.ar      23 UNK        -0.0193 
     14 C14        -4.8867  -17.7781  -47.1728 C.ar      23 UNK        -0.1150 
     15 C15        -3.2741  -19.6325  -46.5512 C.3       23 UNK        -0.0205 
     16 S16        -1.8654  -19.1107  -45.5169 S.3       23 UNK        -0.2404 
     17 C17        -1.6809  -20.4630  -44.2961 C.3       23 UNK        -0.0398 
     18 CA         -1.9496  -21.8909  -44.8277 C.3       11 UNK         0.1400 
     19 N          -1.0526  -22.2801  -45.9166 N.am      11 UNK        -0.5000 
     20 C          -1.2203  -23.3716  -46.6755 C.2       10 UNK         0.5000 
     21 O          -2.1937  -24.1185  -46.5814 O.2       10 UNK        -0.5000 
     22 CA         -0.0909  -23.7117  -47.6618 C.3       10 UNK         0.1400 
     23 CB         -0.2635  -22.9524  -48.9864 C.3       10 UNK        -0.1800 
     24 N           1.2223  -23.4176  -47.0873 N.am      10 UNK        -0.5000 
     25 C           1.8223  -24.1674  -46.1525 C.2       9 UNK         0.5000 
     26 O           1.3478  -25.2143  -45.7143 O.2       9 UNK        -0.5000 
     27 CA          3.1612  -23.6511  -45.5901 C.3       9 UNK         0.1400 
     28 CB          4.3311  -24.1247  -46.4651 C.3       9 UNK        -0.1800 
     29 N           3.2106  -22.1933  -45.4670 N.am      9 UNK        -0.5000 
     30 C           2.4730  -21.4799  -44.6050 C.2       8 UNK         0.5000 
     31 O           1.6914  -21.9808  -43.7973 O.2       8 UNK        -0.5000 
     32 CA          2.5792  -19.9456  -44.7032 C.3       8 UNK         0.1400 
     33 CB          3.7475  -19.4246  -43.8541 C.3       8 UNK        -0.1800 
     34 N           2.7074  -19.4289  -46.0692 N.am      8 UNK        -0.5000 
     35 C           1.8642  -19.6902  -47.0788 C.2       7 UNK         0.5000 
     36 O           0.9587  -20.5193  -47.0033 O.2       7 UNK        -0.5000 
     37 CA          2.0453  -18.9066  -48.3884 C.3       7 UNK         0.1400 
     38 CB          0.6835  -18.4554  -48.9346 C.3       7 UNK        -0.1800 
     39 N           2.8777  -17.7213  -48.2085 N.am      7 UNK        -0.5000 
     40 C           4.0976  -17.5322  -48.7259 C.2       6 UNK         0.5000 
     41 O           4.7076  -18.3865  -49.3690 O.2       6 UNK        -0.5000 
     42 CA          4.7533  -16.1579  -48.4817 C.3       6 UNK         0.1400 
     43 CB          4.6832  -15.2995  -49.7543 C.3       6 UNK        -0.1800 
     44 N           4.1311  -15.4225  -47.3779 N.am      6 UNK        -0.5000 
     45 C           4.3641  -15.6717  -46.0803 C.2       5 UNK         0.5000 
     46 O           5.1765  -16.5079  -45.6852 O.2       5 UNK        -0.5000 
     47 CA          3.5250  -14.8888  -45.0485 C.3       5 UNK         0.1400 
     48 CB          4.2706  -13.6239  -44.5980 C.3       5 UNK        -0.1800 
     49 N           2.1960  -14.5119  -45.5360 N.am      5 UNK        -0.5000 
     50 C           1.2451  -15.3757  -45.9195 C.2       4 UNK         0.5000 
     51 O           1.3729  -16.5955  -45.8451 O.2       4 UNK        -0.5000 
     52 CA         -0.0429  -14.7927  -46.5293 C.3       4 UNK         0.1400 
     53 CB         -1.1581  -14.7849  -45.4747 C.3       4 UNK        -0.1800 
     54 N           0.1045  -13.4513  -47.1146 N.am      4 UNK        -0.5000 
     55 C           0.9467  -13.1323  -48.1132 C.2       3 UNK         0.5000 
     56 O           1.7243  -13.9414  -48.6238 O.2       3 UNK        -0.5000 
     57 CA          0.9812  -11.6579  -48.5745 C.3       3 UNK         0.1400 
     58 CB          1.4613  -11.4959  -50.0320 C.3       3 UNK        -0.1800 
     59 N          -0.2660  -10.9220  -48.3400 N.am      3 UNK        -0.5000 
     60 C          -1.4573  -11.1313  -48.9172 C.2       2 UNK         0.5000 
     61 O          -1.6797  -11.9844  -49.7769 O.2       2 UNK        -0.5000 
     62 CA         -2.6114  -10.2401  -48.4162 C.3       2 UNK         0.1400 
     63 CB         -3.2798   -9.4899  -49.5797 C.3       2 UNK        -0.1800 
     64 N          -3.6251  -11.0130  -47.6960 N.am      2 UNK        -0.5000 
     65 C          -3.3930  -11.7459  -46.5986 C.2       1 UNK         0.5000 
     66 O          -2.2856  -11.8200  -46.0559 O.2       1 UNK        -0.5000 
     67 C          -1.9515  -22.9333  -43.6909 C.2       11 UNK         0.5000 
     68 O          -3.0283  -23.3131  -43.2264 O.2       11 UNK        -0.5000 
     69 N          -0.7613  -23.4236  -43.3126 N.am      12 UNK        -0.5000 
     70 CA         -0.5741  -24.5082  -42.3457 C.3       12 UNK         0.1400 
     71 CB          0.9221  -24.6756  -42.0429 C.3       12 UNK        -0.1800 
     72 C          -1.1869  -25.8446  -42.8069 C.2       12 UNK         0.5000 
     73 O          -1.7228  -26.5822  -41.9789 O.2       12 UNK        -0.5000 
     74 N          -1.1537  -26.1125  -44.1195 N.am      13 UNK        -0.5000 
     75 CA         -1.7712  -27.2659  -44.7790 C.3       13 UNK         0.1400 
     76 CB         -1.0553  -27.5193  -46.1179 C.3       13 UNK        -0.1800 
     77 C          -3.3013  -27.1122  -44.9438 C.2       13 UNK         0.5000 
     78 O          -3.8311  -27.3296  -46.0342 O.2       13 UNK        -0.5000 
     79 N          -3.9827  -26.7579  -43.8453 N.am      14 UNK        -0.5000 
     80 CA         -5.4327  -26.6070  -43.6976 C.3       14 UNK         0.1400 
     81 CB         -6.1295  -27.9803  -43.8036 C.3       14 UNK        -0.1800 
     82 C          -6.0430  -25.5432  -44.6352 C.2       14 UNK         0.5000 
     83 O          -7.0787  -25.7922  -45.2558 O.2       14 UNK        -0.5000 
     84 N          -5.3997  -24.3666  -44.6945 N.am      15 UNK        -0.5000 
     85 CA         -5.8273  -23.1724  -45.4325 C.3       15 UNK         0.1400 
     86 CB         -7.1058  -22.5754  -44.8074 C.3       15 UNK        -0.1800 
     87 C          -5.9474  -23.3999  -46.9540 C.2       15 UNK         0.5000 
     88 O          -6.9471  -23.0110  -47.5625 O.2       15 UNK        -0.5000 
     89 N          -4.9192  -24.0121  -47.5565 N.am      16 UNK        -0.5000 
     90 CA         -4.8400  -24.3232  -48.9859 C.3       16 UNK         0.1400 
     91 CB         -3.8506  -25.4837  -49.1971 C.3       16 UNK        -0.1800 
     92 C          -4.4909  -23.0852  -49.8403 C.2       16 UNK         0.5000 
     93 O          -3.5284  -23.1094  -50.6076 O.2       16 UNK        -0.5000 
     94 N          -5.2965  -22.0214  -49.7151 N.am      17 UNK        -0.5000 
     95 CA         -5.1565  -20.7431  -50.4240 C.3       17 UNK         0.1400 
     96 CB         -6.2618  -19.7893  -49.9493 C.3       17 UNK        -0.1800 
     97 C          -5.1847  -20.8732  -51.9604 C.2       17 UNK         0.5000 
     98 O          -4.5577  -20.0720  -52.6551 O.2       17 UNK        -0.5000 
     99 N          -5.8607  -21.9214  -52.4537 N.am      18 UNK        -0.5000 
    100 CA        -5.9333  -22.3334  -53.8571 C.3       18 UNK         0.1400 
    101 CB        -6.9062  -23.5175  -53.9693 C.3       18 UNK        -0.1800 
    102 C         -4.5732  -22.6907  -54.4952 C.2       18 UNK         0.5000 
    103 O         -4.4860  -22.7324  -55.7230 O.2       18 UNK        -0.5000 
    104 N         -3.5336  -22.9150  -53.6746 N.am      19 UNK        -0.5000 
    105 CA        -2.1454  -23.0750  -54.1143 C.3       19 UNK         0.1400 
    106 CB        -1.2847  -23.5153  -52.9195 C.3       19 UNK        -0.1800 
    107 C         -1.5563  -21.7986  -54.7517 C.2       19 UNK         0.5000 
    108 O         -0.6208  -21.9071  -55.5451 O.2       19 UNK        -0.5000 
    109 N         -2.1137  -20.6258  -54.4004 N.am      20 UNK        -0.5000 
    110 CA        -1.7788  -19.2926  -54.9159 C.3       20 UNK         0.1400 
    111 CB        -2.1948  -19.1665  -56.3960 C.3       20 UNK        -0.1800 
    112 C         -0.3102  -18.8862  -54.6643 C.2       20 UNK         0.5000 
    113 O          0.3015  -18.2122  -55.4944 O.2       20 UNK        -0.5000 
    114 N          0.2282  -19.3070  -53.5117 N.am      21 UNK        -0.5000 
    115 CA         1.6107  -19.0634  -53.0909 C.3       21 UNK         0.1400 
    116 CB         1.9845  -20.1032  -52.0224 C.3       21 UNK        -0.1800 
    117 C          1.8713  -17.6248  -52.5935 C.2       21 UNK         0.5000 
    118 O          3.0320  -17.2468  -52.4335 O.2       21 UNK        -0.5000 
    119 N          0.7999  -16.8569  -52.3548 N.am      22 UNK        -0.5000 
    120 CA         0.8279  -15.4379  -51.9728 C.3       22 UNK         0.1400 
    121 C          1.4996  -14.5473  -53.0552 C.2       22 UNK         0.5000 
    122 N          2.4497  -13.7038  -52.6758 N.am      22 UNK        -0.7600 
    123 O          1.1340  -14.5863  -54.2277 O.2       22 UNK        -0.5000 
    124 C124       -0.5984  -14.9185  -51.6654 C.3       23 UNK        -0.0398 
    125 S125       -1.2485  -15.5708  -50.0953 S.3       23 UNK        -0.2404 
    126 C126       -2.5250  -16.7462  -50.6323 C.3       23 UNK        -0.0205 
    127 H127       -3.7987  -13.7989  -42.3157 H         1 UNK         0.0600 
    128 H128       -4.8395  -12.5981  -41.5449 H         1 UNK         0.0600 
    129 H129       -3.1302  -12.2422  -41.8187 H         1 UNK         0.0600 
    130 H130       -4.1232  -13.9203  -44.5129 H         1 UNK         0.3000 
    131 H131       -5.4595  -11.8746  -46.0389 H         1 UNK         0.0600 
    132 H132       -5.1846  -13.4153  -47.9481 H         1 UNK         0.0800 
    133 H133       -4.0454  -14.3939  -47.0633 H         1 UNK         0.0800 
    134 H134       -7.3594  -16.6236  -47.4273 H         1 UNK         0.0800 
    135 H135       -6.8944  -15.3864  -48.5663 H         1 UNK         0.0800 
    136 H136       -4.8407  -15.6053  -49.7816 H         1 UNK         0.1150 
    137 H137       -2.0959  -18.7534  -48.8312 H         1 UNK         0.1150 
    138 H138       -5.4641  -18.0120  -46.2895 H         1 UNK         0.1150 
    139 H139       -2.9891  -20.4933  -47.1582 H         1 UNK         0.0800 
    140 H140       -4.0987  -19.9504  -45.9116 H         1 UNK         0.0800 
    141 H141       -2.3599  -20.2388  -43.4715 H         1 UNK         0.0800 
    142 H142       -0.6746  -20.4002  -43.8798 H         1 UNK         0.0800 
    143 H143       -2.9553  -21.9080  -45.2366 H         1 UNK         0.0600 
    144 H144       -0.2613  -21.6702  -46.1071 H         1 UNK         0.3000 
    145 H145       -0.1417  -24.7802  -47.8800 H         1 UNK         0.0600 
    146 H146       -1.1837  -23.2563  -49.4834 H         1 UNK         0.0600 
    147 H147        0.5569  -23.1599  -49.6733 H         1 UNK         0.0600 
    148 H148       -0.3154  -21.8737  -48.8398 H         1 UNK         0.0600 
    149 H149        1.6163  -22.5142  -47.3152 H         1 UNK         0.3000 
    150 H150        3.2877  -24.0788  -44.5933 H         1 UNK         0.0600 
    151 H151        4.2759  -23.7091  -47.4721 H         1 UNK         0.0600 
    152 H152        4.3334  -25.2116  -46.5580 H         1 UNK         0.0600 
    153 H153        5.2892  -23.8347  -46.0335 H         1 UNK         0.0600 
    154 H154        3.8156  -21.6983  -46.1055 H         1 UNK         0.3000 
    155 H155        1.6551  -19.5315  -44.2952 H         1 UNK         0.0600 
    156 H156        4.7097  -19.7541  -44.2479 H         1 UNK         0.0600 
    157 H157        3.6729  -19.7790  -42.8251 H         1 UNK         0.0600 
    158 H158        3.7542  -18.3348  -43.8217 H         1 UNK         0.0600 
    159 H159        3.4118  -18.7215  -46.2181 H         1 UNK         0.3000 
    160 H160        2.5003  -19.5884  -49.1081 H         1 UNK         0.0600 
    161 H161        0.1258  -17.8792  -48.1947 H         1 UNK         0.0600 
    162 H162        0.0736  -19.3133  -49.2171 H         1 UNK         0.0600 
    163 H163        0.7996  -17.8330  -49.8184 H         1 UNK         0.0600 
    164 H164        2.4747  -16.9961  -47.6274 H         1 UNK         0.3000 
    165 H165        5.8056  -16.3287  -48.2449 H         1 UNK         0.0600 
    166 H166        5.1572  -14.3293  -49.6061 H         1 UNK         0.0600 
    167 H167        5.1939  -15.7899  -50.5842 H         1 UNK         0.0600 
    168 H168        3.6529  -15.1286  -50.0650 H         1 UNK         0.0600 
    169 H169        3.4136  -14.7526  -47.6337 H         1 UNK         0.3000 
    170 H170        3.3885  -15.5357  -44.1794 H         1 UNK         0.0600 
    171 H171        3.7280  -13.1061  -43.8069 H         1 UNK         0.0600 
    172 H172        4.4119  -12.9248  -45.4233 H         1 UNK         0.0600 
    173 H173        5.2575  -13.8716  -44.2047 H         1 UNK         0.0600 
    174 H174        2.0072  -13.5251  -45.6283 H         1 UNK         0.3000 
    175 H175       -0.3440  -15.4699  -47.3296 H         1 UNK         0.0600 
    176 H176       -1.2650  -15.7647  -45.0064 H         1 UNK         0.0600 
    177 H177       -0.9636  -14.0582  -44.6851 H         1 UNK         0.0600 
    178 H178       -2.1167  -14.5446  -45.9261 H         1 UNK         0.0600 
    179 H179       -0.5222  -12.7376  -46.7583 H         1 UNK         0.3000 
    180 H180        1.7269  -11.1771  -47.9401 H         1 UNK         0.0600 
    181 H181        0.8160  -12.0236  -50.7337 H         1 UNK         0.0600 
    182 H182        2.4706  -11.8891  -50.1567 H         1 UNK         0.0600 
    183 H183        1.4874  -10.4464  -50.3248 H         1 UNK         0.0600 
    184 H184       -0.2132  -10.2150  -47.6195 H         1 UNK         0.3000 
    185 H185       -2.2100   -9.4957  -47.7253 H         1 UNK         0.0600 
    186 H186       -2.5485   -8.8997  -50.1335 H         1 UNK         0.0600 
    187 H187       -3.7495  -10.1761  -50.2858 H         1 UNK         0.0600 
    188 H188       -4.0453   -8.8025  -49.2193 H         1 UNK         0.0600 
    189 H189       -4.5504  -11.0106  -48.0993 H         1 UNK         0.3000 
    190 H190        0.0857  -23.0174  -43.7016 H         1 UNK         0.3000 
    191 H191       -1.0772  -24.2177  -41.4212 H         1 UNK         0.0600 
    192 H192        1.3466  -23.7587  -41.6339 H         1 UNK         0.0600 
    193 H193        1.0869  -25.4654  -41.3089 H         1 UNK         0.0600 
    194 H194        1.4870  -24.9358  -42.9383 H         1 UNK         0.0600 
    195 H195       -0.6795  -25.4583  -44.7286 H         1 UNK         0.3000 
    196 H196       -1.6099  -28.1457  -44.1529 H         1 UNK         0.0600 
    197 H197       -1.4335  -28.4209  -46.6011 H         1 UNK         0.0600 
    198 H198        0.0164  -27.6564  -45.9735 H         1 UNK         0.0600 
    199 H199       -1.1980  -26.6910  -46.8115 H         1 UNK         0.0600 
    200 H200       -3.4354  -26.6046  -43.0043 H         1 UNK         0.3000 
    201 H201       -5.5952  -26.2388  -42.6837 H         1 UNK         0.0600 
    202 H202       -7.1918  -27.8992  -43.5705 H         1 UNK         0.0600 
    203 H203       -5.6993  -28.6958  -43.1029 H         1 UNK         0.0600 
    204 H204       -6.0460  -28.4009  -44.8062 H         1 UNK         0.0600 
    205 H205       -4.5456  -24.2584  -44.1553 H         1 UNK         0.3000 
    206 H206       -5.0453  -22.4295  -45.3013 H         1 UNK         0.0600 
    207 H207       -6.9735  -22.3909  -43.7413 H         1 UNK         0.0600 
    208 H208       -7.3582  -21.6210  -45.2712 H         1 UNK         0.0600 
    209 H209       -7.9655  -23.2348  -44.9298 H         1 UNK         0.0600 
    210 H210       -4.0959  -24.2524  -47.0104 H         1 UNK         0.3000 
    211 H211       -5.8204  -24.6709  -49.3178 H         1 UNK         0.0600 
    212 H212       -2.8347  -25.2084  -48.9144 H         1 UNK         0.0600 
    213 H213       -3.8262  -25.7916  -50.2431 H         1 UNK         0.0600 
    214 H214       -4.1358  -26.3565  -48.6098 H         1 UNK         0.0600 
    215 H215       -6.0672  -22.1004  -49.0584 H         1 UNK         0.3000 
    216 H216       -4.1888  -20.3203  -50.1489 H         1 UNK         0.0600 
    217 H217       -7.2529  -20.1544  -50.2210 H         1 UNK         0.0600 
    218 H218       -6.1403  -18.8001  -50.3927 H         1 UNK         0.0600 
    219 H219       -6.2382  -19.6650  -48.8672 H         1 UNK         0.0600 
    220 H220       -6.3320  -22.5198  -51.7918 H         1 UNK         0.3000 
    221 H221       -6.3432  -21.4955  -54.4243 H         1 UNK         0.0600 
    222 H222       -6.5570  -24.3791  -53.3986 H         1 UNK         0.0600 
    223 H223       -7.8980  -23.2507  -53.6039 H         1 UNK         0.0600 
    224 H224       -7.0197  -23.8352  -55.0067 H         1 UNK         0.0600 
    225 H225       -3.6835  -22.8910  -52.6713 H         1 UNK         0.3000 
    226 H226       -2.1187  -23.8652  -54.8673 H         1 UNK         0.0600 
    227 H227       -1.6641  -24.4359  -52.4755 H         1 UNK         0.0600 
    228 H228       -0.2548  -23.7019  -53.2264 H         1 UNK         0.0600 
    229 H229       -1.2606  -22.7534  -52.1393 H         1 UNK         0.0600 
    230 H230       -2.8885  -20.6465  -53.7450 H         1 UNK         0.3000 
    231 H231       -2.3868  -18.5889  -54.3455 H         1 UNK         0.0600 
    232 H232       -1.5895  -19.8027  -57.0424 H         1 UNK         0.0600 
    233 H233       -2.0834  -18.1406  -56.7490 H         1 UNK         0.0600 
    234 H234       -3.2395  -19.4447  -56.5358 H         1 UNK         0.0600 
    235 H235       -0.3403  -19.8709  -52.8975 H         1 UNK         0.3000 
    236 H236        2.2650  -19.2203  -53.9511 H         1 UNK         0.0600 
    237 H237        1.2870  -20.0898  -51.1864 H         1 UNK         0.0600 
    238 H238        1.9800  -21.1103  -52.4397 H         1 UNK         0.0600 
    239 H239        2.9844  -19.9222  -51.6249 H         1 UNK         0.0600 
    240 H240       -0.1093  -17.2506  -52.5335 H         1 UNK         0.3000 
    241 H241        1.4217  -15.3637  -51.0596 H         1 UNK         0.0600 
    242 H242        2.8833  -13.1128  -53.3677 H         1 UNK         0.3800 
    243 H243        2.7612  -13.6594  -51.7189 H         1 UNK         0.3800 
    244 H244       -1.2831  -15.1405  -52.4854 H         1 UNK         0.0800 
    245 H245       -0.5969  -13.8319  -51.5646 H         1 UNK         0.0800 
    246 H246       -2.0563  -17.6264  -51.0741 H         1 UNK         0.0800 
    247 H247       -3.1472  -16.2944  -51.4063 H         1 UNK         0.0800 
@<TRIPOS>BOND
     1    1    2 1    
     2    1  127 1    
     3    1  128 1    
     4    1  129 1    
     5    2    3 2    
     6    2    4 am   BACKBONE|DICT|INTERRES
     7    4    5 1    
     8    4  130 1    
     9    5    6 1    
    10    5   65 1    
    11    5  131 1    
    12    6    7 1    
    13    6  132 1    
    14    6  133 1    
    15    7    8 1    
    16    8    9 1    
    17    8  134 1    
    18    8  135 1    
    19    9   10 ar   
    20    9   14 ar   
    21   10   11 ar   
    22   10  136 1    
    23   11   12 ar   
    24   11  126 1    
    25   12   13 ar   
    26   12  137 1    
    27   13   14 ar   
    28   13   15 1    
    29   14  138 1    
    30   15   16 1    
    31   15  139 1    
    32   15  140 1    
    33   16   17 1    
    34   17   18 1    
    35   17  141 1    
    36   17  142 1    
    37   18   19 1    
    38   18   67 1    
    39   18  143 1    
    40   19   20 am   BACKBONE|DICT|INTERRES
    41   19  144 1    
    42   20   21 2    
    43   20   22 1    
    44   22   23 1    
    45   22   24 1    
    46   22  145 1    
    47   23  146 1    
    48   23  147 1    
    49   23  148 1    
    50   24   25 am   BACKBONE|DICT|INTERRES
    51   24  149 1    
    52   25   26 2    
    53   25   27 1    
    54   27   28 1    
    55   27   29 1    
    56   27  150 1    
    57   28  151 1    
    58   28  152 1    
    59   28  153 1    
    60   29   30 am   BACKBONE|DICT|INTERRES
    61   29  154 1    
    62   30   31 2    
    63   30   32 1    
    64   32   33 1    
    65   32   34 1    
    66   32  155 1    
    67   33  156 1    
    68   33  157 1    
    69   33  158 1    
    70   34   35 am   BACKBONE|DICT|INTERRES
    71   34  159 1    
    72   35   36 2    
    73   35   37 1    
    74   37   38 1    
    75   37   39 1    
    76   37  160 1    
    77   38  161 1    
    78   38  162 1    
    79   38  163 1    
    80   39   40 am   BACKBONE|DICT|INTERRES
    81   39  164 1    
    82   40   41 2    
    83   40   42 1    
    84   42   43 1    
    85   42   44 1    
    86   42  165 1    
    87   43  166 1    
    88   43  167 1    
    89   43  168 1    
    90   44   45 am   BACKBONE|DICT|INTERRES
    91   44  169 1    
    92   45   46 2    
    93   45   47 1    
    94   47   48 1    
    95   47   49 1    
    96   47  170 1    
    97   48  171 1    
    98   48  172 1    
    99   48  173 1    
   100   49   50 am   BACKBONE|DICT|INTERRES
   101   49  174 1    
   102   50   51 2    
   103   50   52 1    
   104   52   53 1    
   105   52   54 1    
   106   52  175 1    
   107   53  176 1    
   108   53  177 1    
   109   53  178 1    
   110   54   55 am   BACKBONE|DICT|INTERRES
   111   54  179 1    
   112   55   56 2    
   113   55   57 1    
   114   57   58 1    
   115   57   59 1    
   116   57  180 1    
   117   58  181 1    
   118   58  182 1    
   119   58  183 1    
   120   59   60 am   BACKBONE|DICT|INTERRES
   121   59  184 1    
   122   60   61 2    
   123   60   62 1    
   124   62   63 1    
   125   62   64 1    
   126   62  185 1    
   127   63  186 1    
   128   63  187 1    
   129   63  188 1    
   130   64   65 am   BACKBONE|DICT|INTERRES
   131   64  189 1    
   132   65   66 2    
   133   67   68 2    
   134   67   69 am   BACKBONE|DICT|INTERRES
   135   69   70 1    
   136   69  190 1    
   137   70   71 1    
   138   70   72 1    
   139   70  191 1    
   140   71  192 1    
   141   71  193 1    
   142   71  194 1    
   143   72   73 2    
   144   72   74 am   BACKBONE|DICT|INTERRES
   145   74   75 1    
   146   74  195 1    
   147   75   76 1    
   148   75   77 1    
   149   75  196 1    
   150   76  197 1    
   151   76  198 1    
   152   76  199 1    
   153   77   78 2    
   154   77   79 am   BACKBONE|DICT|INTERRES
   155   79   80 1    
   156   79  200 1    
   157   80   81 1    
   158   80   82 1    
   159   80  201 1    
   160   81  202 1    
   161   81  203 1    
   162   81  204 1    
   163   82   83 2    
   164   82   84 am   BACKBONE|DICT|INTERRES
   165   84   85 1    
   166   84  205 1    
   167   85   86 1    
   168   85   87 1    
   169   85  206 1    
   170   86  207 1    
   171   86  208 1    
   172   86  209 1    
   173   87   88 2    
   174   87   89 am   BACKBONE|DICT|INTERRES
   175   89   90 1    
   176   89  210 1    
   177   90   91 1    
   178   90   92 1    
   179   90  211 1    
   180   91  212 1    
   181   91  213 1    
   182   91  214 1    
   183   92   93 2    
   184   92   94 am   BACKBONE|DICT|INTERRES
   185   94   95 1    
   186   94  215 1    
   187   95   96 1    
   188   95   97 1    
   189   95  216 1    
   190   96  217 1    
   191   96  218 1    
   192   96  219 1    
   193   97   98 2    
   194   97   99 am   BACKBONE|DICT|INTERRES
   195   99  100 1    
   196   99  220 1    
   197  100  101 1    
   198  100  102 1    
   199  100  221 1    
   200  101  222 1    
   201  101  223 1    
   202  101  224 1    
   203  102  103 2    
   204  102  104 am   BACKBONE|DICT|INTERRES
   205  104  105 1    
   206  104  225 1    
   207  105  106 1    
   208  105  107 1    
   209  105  226 1    
   210  106  227 1    
   211  106  228 1    
   212  106  229 1    
   213  107  108 2    
   214  107  109 am   BACKBONE|DICT|INTERRES
   215  109  110 1    
   216  109  230 1    
   217  110  111 1    
   218  110  112 1    
   219  110  231 1    
   220  111  232 1    
   221  111  233 1    
   222  111  234 1    
   223  112  113 2    
   224  112  114 am   BACKBONE|DICT|INTERRES
   225  114  115 1    
   226  114  235 1    
   227  115  116 1    
   228  115  117 1    
   229  115  236 1    
   230  116  237 1    
   231  116  238 1    
   232  116  239 1    
   233  117  118 2    
   234  117  119 am   BACKBONE|DICT|INTERRES
   235  119  120 1    
   236  119  240 1    
   237  120  121 1    
   238  120  124 1    
   239  120  241 1    
   240  121  122 am   BACKBONE|DICT|INTERRES
   241  121  123 2    
   242  122  242 1    
   243  122  243 1    
   244  124  125 1    
   245  124  244 1    
   246  124  245 1    
   247  125  126 1    
   248  126  246 1    
   249  126  247 1    
@<TRIPOS>SUBSTRUCTURE
     1 UNK         1 GROUP             0       ****    0 ROOT    
