@<TRIPOS>MOLECULE
3R540
247   249    1
SMALL
USER_CHARGES


@<TRIPOS>ATOM
      1 CA          6.0154  -12.1085  -45.6255 C.3       0 UNK        -0.1800 
      2 C           4.6490  -12.7647  -45.5013 C.2       0 UNK         0.5000 
      3 O           4.3838  -13.4631  -44.5200 O.2       0 UNK        -0.5000 
      4 N           3.7906  -12.5535  -46.5056 N.am      1 UNK        -0.5000 
      5 CA          2.4533  -13.1408  -46.6225 C.3       1 UNK         0.1400 
      6 C6          1.8662  -12.9145  -48.0388 C.3       23 UNK        -0.0398 
      7 S7          0.5705  -14.1263  -48.4396 S.3       23 UNK        -0.2404 
      8 C8          1.2600  -14.9855  -49.8865 C.3       23 UNK        -0.0205 
      9 C9          0.4956  -16.2685  -50.1805 C.ar      23 UNK        -0.0193 
     10 C10        -0.8782  -16.2342  -50.4404 C.ar      23 UNK        -0.1150 
     11 C11        -1.5881  -17.4127  -50.6922 C.ar      23 UNK        -0.0193 
     12 C12        -0.9111  -18.6352  -50.6711 C.ar      23 UNK        -0.1150 
     13 C13         0.4617  -18.6848  -50.4140 C.ar      23 UNK        -0.0193 
     14 C14         1.1614  -17.4965  -50.1830 C.ar      23 UNK        -0.1150 
     15 C15         1.1770  -20.0283  -50.3574 C.3       23 UNK        -0.0205 
     16 S16         2.0846  -20.2973  -48.7953 S.3       23 UNK        -0.2404 
     17 C17         0.8417  -19.8904  -47.5196 C.3       23 UNK        -0.0398 
     18 CA          0.0775  -21.1235  -46.9899 C.3       11 UNK         0.1400 
     19 N          -0.4623  -20.8755  -45.6555 N.am      11 UNK        -0.5000 
     20 C          -1.0167  -21.7968  -44.8594 C.2       10 UNK         0.5000 
     21 O          -1.0959  -22.9915  -45.1419 O.2       10 UNK        -0.5000 
     22 CA         -1.6298  -21.2809  -43.5478 C.3       10 UNK         0.1400 
     23 CB         -0.5504  -21.1045  -42.4699 C.3       10 UNK        -0.1800 
     24 N          -2.3415  -20.0174  -43.7444 N.am      10 UNK        -0.5000 
     25 C          -3.4952  -19.9021  -44.4154 C.2       9 UNK         0.5000 
     26 O          -4.0917  -20.8546  -44.9175 O.2       9 UNK        -0.5000 
     27 CA         -4.0636  -18.4814  -44.5766 C.3       9 UNK         0.1400 
     28 CB         -4.8357  -18.0600  -43.3175 C.3       9 UNK        -0.1800 
     29 N          -3.0391  -17.4796  -44.8760 N.am      9 UNK        -0.5000 
     30 C          -2.3442  -17.4309  -46.0211 C.2       8 UNK         0.5000 
     31 O          -2.4511  -18.2601  -46.9233 O.2       8 UNK        -0.5000 
     32 CA         -1.3444  -16.2692  -46.1732 C.3       8 UNK         0.1400 
     33 CB         -2.1147  -14.9441  -46.3159 C.3       8 UNK        -0.1800 
     34 N          -0.3571  -16.1294  -45.0941 N.am      8 UNK        -0.5000 
     35 C           0.2974  -17.1054  -44.4486 C.2       7 UNK         0.5000 
     36 O           0.0898  -18.3074  -44.6119 O.2       7 UNK        -0.5000 
     37 CA          1.3584  -16.6410  -43.4355 C.3       7 UNK         0.1400 
     38 CB          1.3831  -17.5233  -42.1705 C.3       7 UNK        -0.1800 
     39 N           2.6995  -16.5314  -44.0222 N.am      7 UNK        -0.5000 
     40 C           3.4487  -17.5070  -44.5675 C.2       6 UNK         0.5000 
     41 O           3.0985  -18.6805  -44.6810 O.2       6 UNK        -0.5000 
     42 CA          4.8639  -17.1118  -45.0258 C.3       6 UNK         0.1400 
     43 CB          4.8516  -16.5946  -46.4725 C.3       6 UNK        -0.1800 
     44 N           5.4338  -16.0949  -44.1419 N.am      6 UNK        -0.5000 
     45 C           6.1788  -16.3600  -43.0597 C.2       5 UNK         0.5000 
     46 O           6.5881  -17.4819  -42.7596 O.2       5 UNK        -0.5000 
     47 CA          6.4698  -15.1688  -42.1315 C.3       5 UNK         0.1400 
     48 CB          7.5120  -14.2226  -42.7464 C.3       5 UNK        -0.1800 
     49 N           5.2333  -14.4374  -41.8559 N.am      5 UNK        -0.5000 
     50 C           4.3436  -14.7987  -40.9211 C.2       4 UNK         0.5000 
     51 O           4.5430  -15.7033  -40.1089 O.2       4 UNK        -0.5000 
     52 CA          2.9902  -14.0590  -40.9211 C.3       4 UNK         0.1400 
     53 CB          2.3156  -14.0218  -39.5337 C.3       4 UNK        -0.1800 
     54 N           3.0370  -12.7301  -41.5370 N.am      4 UNK        -0.5000 
     55 C           3.6375  -11.6289  -41.0623 C.2       3 UNK         0.5000 
     56 O           4.2779  -11.5946  -40.0112 O.2       3 UNK        -0.5000 
     57 CA          3.5121  -10.3438  -41.9074 C.3       3 UNK         0.1400 
     58 CB          4.8935   -9.8710  -42.3851 C.3       3 UNK        -0.1800 
     59 N           2.6361  -10.4946  -43.0740 N.am      3 UNK        -0.5000 
     60 C           1.2961  -10.4543  -43.0428 C.2       2 UNK         0.5000 
     61 O           0.6438  -10.2814  -42.0133 O.2       2 UNK        -0.5000 
     62 CA          0.5602  -10.6457  -44.3823 C.3       2 UNK         0.1400 
     63 CB          0.1054   -9.2885  -44.9407 C.3       2 UNK        -0.1800 
     64 N           1.3855  -11.3174  -45.3892 N.am      2 UNK        -0.5000 
     65 C           1.5092  -12.6464  -45.5069 C.2       1 UNK         0.5000 
     66 O           0.9544  -13.4612  -44.7656 O.2       1 UNK        -0.5000 
     67 C          -1.0226  -21.5917  -47.9650 C.2       11 UNK         0.5000 
     68 O          -0.8191  -22.5755  -48.6749 O.2       11 UNK        -0.5000 
     69 N          -2.1857  -20.9229  -47.9468 N.am      12 UNK        -0.5000 
     70 CA         -3.3702  -21.3050  -48.7165 C.3       12 UNK         0.1400 
     71 CB         -4.4546  -20.2277  -48.5781 C.3       12 UNK        -0.1800 
     72 C          -3.9199  -22.6837  -48.3117 C.2       12 UNK         0.5000 
     73 O          -4.2546  -23.4776  -49.1900 O.2       12 UNK        -0.5000 
     74 N          -3.9702  -22.9632  -47.0007 N.am      13 UNK        -0.5000 
     75 CA         -4.3557  -24.2637  -46.4501 C.3       13 UNK         0.1400 
     76 CB         -4.4491  -24.1855  -44.9191 C.3       13 UNK        -0.1800 
     77 C          -3.4087  -25.3927  -46.8953 C.2       13 UNK         0.5000 
     78 O          -3.8846  -26.4282  -47.3645 O.2       13 UNK        -0.5000 
     79 N          -2.0938  -25.1456  -46.7901 N.am      14 UNK        -0.5000 
     80 CA         -1.0265  -26.0404  -47.2431 C.3       14 UNK         0.1400 
     81 CB          0.3375  -25.4744  -46.8210 C.3       14 UNK        -0.1800 
     82 C          -1.0628  -26.3048  -48.7596 C.2       14 UNK         0.5000 
     83 O          -0.8355  -27.4393  -49.1818 O.2       14 UNK        -0.5000 
     84 N          -1.4181  -25.2821  -49.5488 N.am      15 UNK        -0.5000 
     85 CA         -1.6801  -25.3503  -50.9887 C.3       15 UNK         0.1400 
     86 CB         -1.5309  -23.9412  -51.5901 C.3       15 UNK        -0.1800 
     87 C          -3.0501  -25.9910  -51.3141 C.2       15 UNK         0.5000 
     88 O          -3.8146  -25.4435  -52.1103 O.2       15 UNK        -0.5000 
     89 N          -3.3275  -27.1420  -50.6837 N.am      16 UNK        -0.5000 
     90 CA         -4.4966  -28.0127  -50.8347 C.3       16 UNK         0.1400 
     91 CB         -4.3640  -28.8428  -52.1265 C.3       16 UNK        -0.1800 
     92 C          -5.8484  -27.2775  -50.7144 C.2       16 UNK         0.5000 
     93 O          -6.7475  -27.5049  -51.5258 O.2       16 UNK        -0.5000 
     94 N          -5.9549  -26.4097  -49.6965 N.am      17 UNK        -0.5000 
     95 CA         -7.1038  -25.5499  -49.3921 C.3       17 UNK         0.1400 
     96 CB         -8.3144  -26.3911  -48.9358 C.3       17 UNK        -0.1800 
     97 C          -7.4316  -24.5782  -50.5454 C.2       17 UNK         0.5000 
     98 O          -8.5461  -24.5839  -51.0723 O.2       17 UNK        -0.5000 
     99 N          -6.4321  -23.7602  -50.8999 N.am      18 UNK        -0.5000 
    100 CA        -6.4417  -22.7225  -51.9328 C.3       18 UNK         0.1400 
    101 CB        -7.4151  -21.5853  -51.5547 C.3       18 UNK        -0.1800 
    102 C         -6.6849  -23.2849  -53.3476 C.2       18 UNK         0.5000 
    103 O         -7.4912  -22.7392  -54.1047 O.2       18 UNK        -0.5000 
    104 N         -5.9807  -24.3731  -53.6884 N.am      19 UNK        -0.5000 
    105 CA        -5.9672  -24.9587  -55.0267 C.3       19 UNK         0.1400 
    106 CB        -5.4320  -26.3965  -54.9545 C.3       19 UNK        -0.1800 
    107 C         -5.1133  -24.0752  -55.9503 C.2       19 UNK         0.5000 
    108 O         -3.8836  -24.1403  -55.8964 O.2       19 UNK        -0.5000 
    109 N         -5.7853  -23.2034  -56.7133 N.am      20 UNK        -0.5000 
    110 CA        -5.2609  -22.1366  -57.5778 C.3       20 UNK         0.1400 
    111 CB        -4.3180  -22.6845  -58.6661 C.3       20 UNK        -0.1800 
    112 C         -4.6150  -20.9664  -56.8077 C.2       20 UNK         0.5000 
    113 O         -4.8746  -19.8120  -57.1511 O.2       20 UNK        -0.5000 
    114 N         -3.8188  -21.2733  -55.7746 N.am      21 UNK        -0.5000 
    115 CA        -3.1778  -20.3405  -54.8474 C.3       21 UNK         0.1400 
    116 CB        -2.3438  -21.1433  -53.8349 C.3       21 UNK        -0.1800 
    117 C         -4.2108  -19.4483  -54.1345 C.2       21 UNK         0.5000 
    118 O         -4.8865  -19.9120  -53.2151 O.2       21 UNK        -0.5000 
    119 N         -4.3301  -18.2024  -54.6081 N.am      22 UNK        -0.5000 
    120 CA        -5.3342  -17.2059  -54.1934 C.3       22 UNK         0.1400 
    121 C         -6.7936  -17.5617  -54.6156 C.2       22 UNK         0.5000 
    122 N         -6.9988  -18.4093  -55.6173 N.am      22 UNK        -0.7600 
    123 O         -7.7555  -17.0425  -54.0553 O.2       22 UNK        -0.5000 
    124 C124       -5.2195  -16.7817  -52.7009 C.3       23 UNK        -0.0398 
    125 S125       -3.5402  -16.2057  -52.2727 S.3       23 UNK        -0.2404 
    126 C126       -3.0878  -17.3801  -50.9556 C.3       23 UNK        -0.0205 
    127 H127        5.9827  -11.2360  -46.2784 H         1 UNK         0.0600 
    128 H128        6.7311  -12.8194  -46.0381 H         1 UNK         0.0600 
    129 H129        6.3817  -11.7874  -44.6523 H         1 UNK         0.0600 
    130 H130        4.0820  -11.9690  -47.2763 H         1 UNK         0.3000 
    131 H131        2.5699  -14.2158  -46.4776 H         1 UNK         0.0600 
    132 H132        1.4607  -11.9080  -48.1543 H         1 UNK         0.0800 
    133 H133        2.6551  -12.9996  -48.7874 H         1 UNK         0.0800 
    134 H134        1.2162  -14.3284  -50.7560 H         1 UNK         0.0800 
    135 H135        2.3140  -15.2036  -49.7069 H         1 UNK         0.0800 
    136 H136       -1.3979  -15.2863  -50.4374 H         1 UNK         0.1150 
    137 H137       -1.4568  -19.5525  -50.8413 H         1 UNK         0.1150 
    138 H138        2.2222  -17.5352  -49.9789 H         1 UNK         0.1150 
    139 H139        0.4723  -20.8491  -50.4989 H         1 UNK         0.0800 
    140 H140        1.8818  -20.0867  -51.1876 H         1 UNK         0.0800 
    141 H141        0.1570  -19.1084  -47.8491 H         1 UNK         0.0800 
    142 H142        1.4064  -19.4404  -46.7023 H         1 UNK         0.0800 
    143 H143        0.7903  -21.9441  -46.8838 H         1 UNK         0.0600 
    144 H144       -0.4013  -19.9175  -45.3142 H         1 UNK         0.3000 
    145 H145       -2.3451  -22.0261  -43.1937 H         1 UNK         0.0600 
    146 H146       -0.9825  -20.7646  -41.5287 H         1 UNK         0.0600 
    147 H147       -0.0407  -22.0484  -42.2730 H         1 UNK         0.0600 
    148 H148        0.2067  -20.3816  -42.7735 H         1 UNK         0.0600 
    149 H149       -1.8728  -19.1777  -43.4361 H         1 UNK         0.3000 
    150 H150       -4.7662  -18.5022  -45.4125 H         1 UNK         0.0600 
    151 H151       -5.6186  -18.7817  -43.0803 H         1 UNK         0.0600 
    152 H152       -5.3189  -17.0927  -43.4567 H         1 UNK         0.0600 
    153 H153       -4.1817  -17.9872  -42.4477 H         1 UNK         0.0600 
    154 H154       -2.8733  -16.7697  -44.1781 H         1 UNK         0.3000 
    155 H155       -0.7820  -16.4443  -47.0921 H         1 UNK         0.0600 
    156 H156       -2.7594  -14.9624  -47.1956 H         1 UNK         0.0600 
    157 H157       -1.4424  -14.0943  -46.4232 H         1 UNK         0.0600 
    158 H158       -2.7452  -14.7447  -45.4488 H         1 UNK         0.0600 
    159 H159       -0.0731  -15.1746  -44.8959 H         1 UNK         0.3000 
    160 H160        1.0715  -15.6379  -43.1206 H         1 UNK         0.0600 
    161 H161        1.6952  -18.5441  -42.3899 H         1 UNK         0.0600 
    162 H162        0.3947  -17.5766  -41.7129 H         1 UNK         0.0600 
    163 H163        2.0675  -17.1244  -41.4224 H         1 UNK         0.0600 
    164 H164        3.0876  -15.5991  -44.0277 H         1 UNK         0.3000 
    165 H165        5.4836  -18.0108  -45.0021 H         1 UNK         0.0600 
    166 H166        5.8632  -16.3918  -46.8239 H         1 UNK         0.0600 
    167 H167        4.4138  -17.3319  -47.1470 H         1 UNK         0.0600 
    168 H168        4.2761  -15.6770  -46.5720 H         1 UNK         0.0600 
    169 H169        5.1382  -15.1359  -44.3005 H         1 UNK         0.3000 
    170 H170        6.8803  -15.5538  -41.1954 H         1 UNK         0.0600 
    171 H171        7.1991  -13.8513  -43.7207 H         1 UNK         0.0600 
    172 H172        7.6943  -13.3629  -42.1013 H         1 UNK         0.0600 
    173 H173        8.4648  -14.7348  -42.8846 H         1 UNK         0.0600 
    174 H174        4.9684  -13.7221  -42.5223 H         1 UNK         0.3000 
    175 H175        2.3419  -14.6464  -41.5660 H         1 UNK         0.0600 
    176 H176        1.3629  -13.4936  -39.5722 H         1 UNK         0.0600 
    177 H177        2.9426  -13.5320  -38.7885 H         1 UNK         0.0600 
    178 H178        2.1106  -15.0302  -39.1724 H         1 UNK         0.0600 
    179 H179        2.5638  -12.6455  -42.4257 H         1 UNK         0.3000 
    180 H180        3.0974   -9.5699  -41.2582 H         1 UNK         0.0600 
    181 H181        4.8189   -8.9599  -42.9791 H         1 UNK         0.0600 
    182 H182        5.3874  -10.6299  -42.9889 H         1 UNK         0.0600 
    183 H183        5.5463   -9.6526  -41.5391 H         1 UNK         0.0600 
    184 H184        3.0882  -10.6487  -43.9622 H         1 UNK         0.3000 
    185 H185       -0.3301  -11.2479  -44.1874 H         1 UNK         0.0600 
    186 H186       -0.5373   -8.7684  -44.2291 H         1 UNK         0.0600 
    187 H187        0.9525   -8.6358  -45.1558 H         1 UNK         0.0600 
    188 H188       -0.4656   -9.4127  -45.8610 H         1 UNK         0.0600 
    189 H189        1.8872  -10.7214  -46.0316 H         1 UNK         0.3000 
    190 H190       -2.2685  -20.0835  -47.3781 H         1 UNK         0.3000 
    191 H191       -3.0797  -21.3578  -49.7676 H         1 UNK         0.0600 
    192 H192       -5.3304  -20.4762  -49.1777 H         1 UNK         0.0600 
    193 H193       -4.7823  -20.1154  -47.5443 H         1 UNK         0.0600 
    194 H194       -4.0923  -19.2589  -48.9184 H         1 UNK         0.0600 
    195 H195       -3.7306  -22.2380  -46.3320 H         1 UNK         0.3000 
    196 H196       -5.3514  -24.4987  -46.8269 H         1 UNK         0.0600 
    197 H197       -4.7602  -25.1425  -44.4986 H         1 UNK         0.0600 
    198 H198       -5.1814  -23.4406  -44.6075 H         1 UNK         0.0600 
    199 H199       -3.4938  -23.9240  -44.4655 H         1 UNK         0.0600 
    200 H200       -1.7955  -24.2741  -46.3588 H         1 UNK         0.3000 
    201 H201       -1.1668  -26.9987  -46.7390 H         1 UNK         0.0600 
    202 H202        0.3992  -25.3614  -45.7386 H         1 UNK         0.0600 
    203 H203        0.5251  -24.4987  -47.2697 H         1 UNK         0.0600 
    204 H204        1.1477  -26.1378  -47.1258 H         1 UNK         0.0600 
    205 H205       -1.5420  -24.3696  -49.1208 H         1 UNK         0.3000 
    206 H206       -0.9187  -25.9845  -51.4465 H         1 UNK         0.0600 
    207 H207       -0.5484  -23.5207  -51.3754 H         1 UNK         0.0600 
    208 H208       -1.6436  -23.9643  -52.6747 H         1 UNK         0.0600 
    209 H209       -2.2811  -23.2564  -51.1944 H         1 UNK         0.0600 
    210 H210       -2.6178  -27.4783  -50.0410 H         1 UNK         0.3000 
    211 H211       -4.4652  -28.7097  -49.9961 H         1 UNK         0.0600 
    212 H212       -4.3460  -28.2090  -53.0111 H         1 UNK         0.0600 
    213 H213       -5.1937  -29.5421  -52.2362 H         1 UNK         0.0600 
    214 H214       -3.4462  -29.4307  -52.1215 H         1 UNK         0.0600 
    215 H215       -5.1483  -26.2962  -49.0919 H         1 UNK         0.3000 
    216 H216       -6.8091  -24.9270  -48.5482 H         1 UNK         0.0600 
    217 H217       -9.1346  -25.7481  -48.6145 H         1 UNK         0.0600 
    218 H218       -8.0536  -27.0301  -48.0922 H         1 UNK         0.0600 
    219 H219       -8.6946  -27.0286  -49.7344 H         1 UNK         0.0600 
    220 H220       -5.5547  -23.8420  -50.3875 H         1 UNK         0.3000 
    221 H221       -5.4349  -22.3023  -51.9432 H         1 UNK         0.0600 
    222 H222       -8.4536  -21.9165  -51.5709 H         1 UNK         0.0600 
    223 H223       -7.2022  -21.1970  -50.5594 H         1 UNK         0.0600 
    224 H224       -7.3288  -20.7514  -52.2524 H         1 UNK         0.0600 
    225 H225       -5.3034  -24.7515  -53.0284 H         1 UNK         0.3000 
    226 H226       -6.9889  -25.0021  -55.4100 H         1 UNK         0.0600 
    227 H227       -6.0479  -27.0104  -54.2972 H         1 UNK         0.0600 
    228 H228       -5.4383  -26.8638  -55.9397 H         1 UNK         0.0600 
    229 H229       -4.4072  -26.4280  -54.5836 H         1 UNK         0.0600 
    230 H230       -6.7906  -23.1885  -56.6028 H         1 UNK         0.3000 
    231 H231       -6.1337  -21.7249  -58.0871 H         1 UNK         0.0600 
    232 H232       -3.3899  -23.0753  -58.2485 H         1 UNK         0.0600 
    233 H233       -4.0474  -21.8991  -59.3728 H         1 UNK         0.0600 
    234 H234       -4.7937  -23.4834  -59.2347 H         1 UNK         0.0600 
    235 H235       -3.6736  -22.2619  -55.5932 H         1 UNK         0.3000 
    236 H236       -2.4979  -19.7081  -55.4215 H         1 UNK         0.0600 
    237 H237       -1.5699  -21.7267  -54.3337 H         1 UNK         0.0600 
    238 H238       -1.8462  -20.4808  -53.1260 H         1 UNK         0.0600 
    239 H239       -2.9645  -21.8332  -53.2616 H         1 UNK         0.0600 
    240 H240       -3.7566  -17.9315  -55.3938 H         1 UNK         0.3000 
    241 H241       -5.1037  -16.3180  -54.7829 H         1 UNK         0.0600 
    242 H242       -6.2168  -18.8279  -56.1110 H         1 UNK         0.3800 
    243 H243       -7.9421  -18.6288  -55.8946 H         1 UNK         0.3800 
    244 H244       -5.9049  -15.9599  -52.4882 H         1 UNK         0.0800 
    245 H245       -5.5220  -17.5986  -52.0445 H         1 UNK         0.0800 
    246 H246       -3.6056  -17.1056  -50.0357 H         1 UNK         0.0800 
    247 H247       -3.4402  -18.3755  -51.2307 H         1 UNK         0.0800 
@<TRIPOS>BOND
     1    1    2 1    
     2    1  127 1    
     3    1  128 1    
     4    1  129 1    
     5    2    3 2    
     6    2    4 am   BACKBONE|DICT|INTERRES
     7    4    5 1    
     8    4  130 1    
     9    5    6 1    
    10    5   65 1    
    11    5  131 1    
    12    6    7 1    
    13    6  132 1    
    14    6  133 1    
    15    7    8 1    
    16    8    9 1    
    17    8  134 1    
    18    8  135 1    
    19    9   10 ar   
    20    9   14 ar   
    21   10   11 ar   
    22   10  136 1    
    23   11   12 ar   
    24   11  126 1    
    25   12   13 ar   
    26   12  137 1    
    27   13   14 ar   
    28   13   15 1    
    29   14  138 1    
    30   15   16 1    
    31   15  139 1    
    32   15  140 1    
    33   16   17 1    
    34   17   18 1    
    35   17  141 1    
    36   17  142 1    
    37   18   19 1    
    38   18   67 1    
    39   18  143 1    
    40   19   20 am   BACKBONE|DICT|INTERRES
    41   19  144 1    
    42   20   21 2    
    43   20   22 1    
    44   22   23 1    
    45   22   24 1    
    46   22  145 1    
    47   23  146 1    
    48   23  147 1    
    49   23  148 1    
    50   24   25 am   BACKBONE|DICT|INTERRES
    51   24  149 1    
    52   25   26 2    
    53   25   27 1    
    54   27   28 1    
    55   27   29 1    
    56   27  150 1    
    57   28  151 1    
    58   28  152 1    
    59   28  153 1    
    60   29   30 am   BACKBONE|DICT|INTERRES
    61   29  154 1    
    62   30   31 2    
    63   30   32 1    
    64   32   33 1    
    65   32   34 1    
    66   32  155 1    
    67   33  156 1    
    68   33  157 1    
    69   33  158 1    
    70   34   35 am   BACKBONE|DICT|INTERRES
    71   34  159 1    
    72   35   36 2    
    73   35   37 1    
    74   37   38 1    
    75   37   39 1    
    76   37  160 1    
    77   38  161 1    
    78   38  162 1    
    79   38  163 1    
    80   39   40 am   BACKBONE|DICT|INTERRES
    81   39  164 1    
    82   40   41 2    
    83   40   42 1    
    84   42   43 1    
    85   42   44 1    
    86   42  165 1    
    87   43  166 1    
    88   43  167 1    
    89   43  168 1    
    90   44   45 am   BACKBONE|DICT|INTERRES
    91   44  169 1    
    92   45   46 2    
    93   45   47 1    
    94   47   48 1    
    95   47   49 1    
    96   47  170 1    
    97   48  171 1    
    98   48  172 1    
    99   48  173 1    
   100   49   50 am   BACKBONE|DICT|INTERRES
   101   49  174 1    
   102   50   51 2    
   103   50   52 1    
   104   52   53 1    
   105   52   54 1    
   106   52  175 1    
   107   53  176 1    
   108   53  177 1    
   109   53  178 1    
   110   54   55 am   BACKBONE|DICT|INTERRES
   111   54  179 1    
   112   55   56 2    
   113   55   57 1    
   114   57   58 1    
   115   57   59 1    
   116   57  180 1    
   117   58  181 1    
   118   58  182 1    
   119   58  183 1    
   120   59   60 am   BACKBONE|DICT|INTERRES
   121   59  184 1    
   122   60   61 2    
   123   60   62 1    
   124   62   63 1    
   125   62   64 1    
   126   62  185 1    
   127   63  186 1    
   128   63  187 1    
   129   63  188 1    
   130   64   65 am   BACKBONE|DICT|INTERRES
   131   64  189 1    
   132   65   66 2    
   133   67   68 2    
   134   67   69 am   BACKBONE|DICT|INTERRES
   135   69   70 1    
   136   69  190 1    
   137   70   71 1    
   138   70   72 1    
   139   70  191 1    
   140   71  192 1    
   141   71  193 1    
   142   71  194 1    
   143   72   73 2    
   144   72   74 am   BACKBONE|DICT|INTERRES
   145   74   75 1    
   146   74  195 1    
   147   75   76 1    
   148   75   77 1    
   149   75  196 1    
   150   76  197 1    
   151   76  198 1    
   152   76  199 1    
   153   77   78 2    
   154   77   79 am   BACKBONE|DICT|INTERRES
   155   79   80 1    
   156   79  200 1    
   157   80   81 1    
   158   80   82 1    
   159   80  201 1    
   160   81  202 1    
   161   81  203 1    
   162   81  204 1    
   163   82   83 2    
   164   82   84 am   BACKBONE|DICT|INTERRES
   165   84   85 1    
   166   84  205 1    
   167   85   86 1    
   168   85   87 1    
   169   85  206 1    
   170   86  207 1    
   171   86  208 1    
   172   86  209 1    
   173   87   88 2    
   174   87   89 am   BACKBONE|DICT|INTERRES
   175   89   90 1    
   176   89  210 1    
   177   90   91 1    
   178   90   92 1    
   179   90  211 1    
   180   91  212 1    
   181   91  213 1    
   182   91  214 1    
   183   92   93 2    
   184   92   94 am   BACKBONE|DICT|INTERRES
   185   94   95 1    
   186   94  215 1    
   187   95   96 1    
   188   95   97 1    
   189   95  216 1    
   190   96  217 1    
   191   96  218 1    
   192   96  219 1    
   193   97   98 2    
   194   97   99 am   BACKBONE|DICT|INTERRES
   195   99  100 1    
   196   99  220 1    
   197  100  101 1    
   198  100  102 1    
   199  100  221 1    
   200  101  222 1    
   201  101  223 1    
   202  101  224 1    
   203  102  103 2    
   204  102  104 am   BACKBONE|DICT|INTERRES
   205  104  105 1    
   206  104  225 1    
   207  105  106 1    
   208  105  107 1    
   209  105  226 1    
   210  106  227 1    
   211  106  228 1    
   212  106  229 1    
   213  107  108 2    
   214  107  109 am   BACKBONE|DICT|INTERRES
   215  109  110 1    
   216  109  230 1    
   217  110  111 1    
   218  110  112 1    
   219  110  231 1    
   220  111  232 1    
   221  111  233 1    
   222  111  234 1    
   223  112  113 2    
   224  112  114 am   BACKBONE|DICT|INTERRES
   225  114  115 1    
   226  114  235 1    
   227  115  116 1    
   228  115  117 1    
   229  115  236 1    
   230  116  237 1    
   231  116  238 1    
   232  116  239 1    
   233  117  118 2    
   234  117  119 am   BACKBONE|DICT|INTERRES
   235  119  120 1    
   236  119  240 1    
   237  120  121 1    
   238  120  124 1    
   239  120  241 1    
   240  121  122 am   BACKBONE|DICT|INTERRES
   241  121  123 2    
   242  122  242 1    
   243  122  243 1    
   244  124  125 1    
   245  124  244 1    
   246  124  245 1    
   247  125  126 1    
   248  126  246 1    
   249  126  247 1    
@<TRIPOS>SUBSTRUCTURE
     1 UNK         1 GROUP             0       ****    0 ROOT    
