@<TRIPOS>MOLECULE
3R540
247   249    1
SMALL
USER_CHARGES


@<TRIPOS>ATOM
      1 CA          0.6380   -8.3681  -48.5634 C.3       0 UNK        -0.1800 
      2 C           0.5950   -9.7787  -47.9936 C.2       0 UNK         0.5000 
      3 O           1.6223  -10.4569  -47.9542 O.2       0 UNK        -0.5000 
      4 N          -0.5842  -10.2221  -47.5394 N.am      1 UNK        -0.5000 
      5 CA         -0.8339  -11.5425  -46.9486 C.3       1 UNK         0.1400 
      6 C6         -2.3090  -11.9741  -47.1558 C.3       23 UNK        -0.0398 
      7 S7         -2.5447  -13.7773  -46.9981 S.3       23 UNK        -0.2404 
      8 C8         -2.6342  -14.2805  -48.7428 C.3       23 UNK        -0.0205 
      9 C9         -2.8644  -15.7776  -48.8513 C.ar      23 UNK        -0.0193 
     10 C10        -1.7795  -16.6561  -48.8536 C.ar      23 UNK        -0.1150 
     11 C11        -1.9844  -18.0375  -48.8959 C.ar      23 UNK        -0.0193 
     12 C12        -3.2885  -18.5381  -48.9668 C.ar      23 UNK        -0.1150 
     13 C13        -4.3822  -17.6674  -48.9697 C.ar      23 UNK        -0.0193 
     14 C14        -4.1629  -16.2882  -48.9144 C.ar      23 UNK        -0.1150 
     15 C15        -5.8047  -18.2009  -49.0087 C.3       23 UNK        -0.0205 
     16 S16        -6.4858  -18.3824  -47.3282 S.3       23 UNK        -0.2404 
     17 C17        -6.1880  -20.1481  -46.9697 C.3       23 UNK        -0.0398 
     18 CA         -4.8695  -20.4359  -46.1942 C.3       11 UNK         0.1400 
     19 N          -4.7102  -19.6865  -44.9416 N.am      11 UNK        -0.5000 
     20 C          -5.5849  -19.5850  -43.9287 C.2       10 UNK         0.5000 
     21 O          -6.6613  -20.1815  -43.8958 O.2       10 UNK        -0.5000 
     22 CA         -5.1951  -18.6815  -42.7343 C.3       10 UNK         0.1400 
     23 CB         -5.1377  -19.4992  -41.4331 C.3       10 UNK        -0.1800 
     24 N          -3.9089  -18.0027  -42.9052 N.am      10 UNK        -0.5000 
     25 C          -3.6554  -16.9830  -43.7378 C.2       9 UNK         0.5000 
     26 O          -4.5318  -16.3745  -44.3501 O.2       9 UNK        -0.5000 
     27 CA         -2.1702  -16.6126  -43.9547 C.3       9 UNK         0.1400 
     28 CB         -1.8553  -15.2283  -43.3648 C.3       9 UNK        -0.1800 
     29 N          -1.2139  -17.5891  -43.4098 N.am      9 UNK        -0.5000 
     30 C          -1.0663  -18.8565  -43.8215 C.2       8 UNK         0.5000 
     31 O          -1.7216  -19.3635  -44.7346 O.2       8 UNK        -0.5000 
     32 CA         -0.0094  -19.6873  -43.0844 C.3       8 UNK         0.1400 
     33 CB         -0.4470  -21.1457  -42.8678 C.3       8 UNK        -0.1800 
     34 N           1.2059  -19.6286  -43.8771 N.am      8 UNK        -0.5000 
     35 C           2.4571  -19.6931  -43.4141 C.2       7 UNK         0.5000 
     36 O           2.7384  -19.9671  -42.2469 O.2       7 UNK        -0.5000 
     37 CA          3.5855  -19.3438  -44.4071 C.3       7 UNK         0.1400 
     38 CB          4.0205  -20.5704  -45.2320 C.3       7 UNK        -0.1800 
     39 N           3.2718  -18.1828  -45.2553 N.am      7 UNK        -0.5000 
     40 C           2.3694  -18.0816  -46.2419 C.2       6 UNK         0.5000 
     41 O           1.6997  -19.0296  -46.6483 O.2       6 UNK        -0.5000 
     42 CA          2.0941  -16.6800  -46.8151 C.3       6 UNK         0.1400 
     43 CB          0.7464  -16.1614  -46.2873 C.3       6 UNK        -0.1800 
     44 N           3.1231  -15.6933  -46.4913 N.am      6 UNK        -0.5000 
     45 C           4.3215  -15.6037  -47.0818 C.2       5 UNK         0.5000 
     46 O           4.7194  -16.3825  -47.9482 O.2       5 UNK        -0.5000 
     47 CA          5.2248  -14.4496  -46.6183 C.3       5 UNK         0.1400 
     48 CB          4.7769  -13.1227  -47.2536 C.3       5 UNK        -0.1800 
     49 N           5.2043  -14.3144  -45.1622 N.am      5 UNK        -0.5000 
     50 C           6.0864  -14.8862  -44.3310 C.2       4 UNK         0.5000 
     51 O           7.0320  -15.5785  -44.7089 O.2       4 UNK        -0.5000 
     52 CA          5.8867  -14.6457  -42.8201 C.3       4 UNK         0.1400 
     53 CB          6.7262  -13.4463  -42.3542 C.3       4 UNK        -0.1800 
     54 N           4.4892  -14.4191  -42.4481 N.am      4 UNK        -0.5000 
     55 C           3.5325  -15.3562  -42.4858 C.2       3 UNK         0.5000 
     56 O           3.7430  -16.5300  -42.7834 O.2       3 UNK        -0.5000 
     57 CA          2.0900  -14.8978  -42.1933 C.3       3 UNK         0.1400 
     58 CB          1.7332  -15.1314  -40.7186 C.3       3 UNK        -0.1800 
     59 N           1.8249  -13.4969  -42.5433 N.am      3 UNK        -0.5000 
     60 C           1.9215  -12.9982  -43.7819 C.2       2 UNK         0.5000 
     61 O           2.3033  -13.6579  -44.7508 O.2       2 UNK        -0.5000 
     62 CA          1.5980  -11.5094  -43.9707 C.3       2 UNK         0.1400 
     63 CB          2.8915  -10.6808  -43.9669 C.3       2 UNK        -0.1800 
     64 N           0.9187  -11.3199  -45.2482 N.am      2 UNK        -0.5000 
     65 C          -0.3715  -11.5919  -45.4717 C.2       1 UNK         0.5000 
     66 O          -1.1697  -11.8488  -44.5686 O.2       1 UNK        -0.5000 
     67 C          -4.6061  -21.9480  -46.0192 C.2       11 UNK         0.5000 
     68 O          -5.0013  -22.7423  -46.8729 O.2       11 UNK        -0.5000 
     69 N          -3.9259  -22.3314  -44.9303 N.am      12 UNK        -0.5000 
     70 CA         -3.6032  -23.7240  -44.6162 C.3       12 UNK         0.1400 
     71 CB         -3.3620  -23.8533  -43.1048 C.3       12 UNK        -0.1800 
     72 C          -2.3917  -24.2598  -45.4026 C.2       12 UNK         0.5000 
     73 O          -2.2987  -25.4724  -45.5971 O.2       12 UNK        -0.5000 
     74 N          -1.4898  -23.3595  -45.8258 N.am      13 UNK        -0.5000 
     75 CA         -0.2093  -23.6464  -46.4808 C.3       13 UNK         0.1400 
     76 CB          0.5374  -22.3242  -46.7192 C.3       13 UNK        -0.1800 
     77 C          -0.3804  -24.4344  -47.7920 C.2       13 UNK         0.5000 
     78 O          -0.7223  -23.8464  -48.8195 O.2       13 UNK        -0.5000 
     79 N          -0.2065  -25.7621  -47.7095 N.am      14 UNK        -0.5000 
     80 CA         -0.4304  -26.7496  -48.7733 C.3       14 UNK         0.1400 
     81 CB          0.6701  -26.6345  -49.8485 C.3       14 UNK        -0.1800 
     82 C          -1.8582  -26.6852  -49.3615 C.2       14 UNK         0.5000 
     83 O          -2.0348  -26.8544  -50.5690 O.2       14 UNK        -0.5000 
     84 N          -2.8433  -26.3820  -48.4994 N.am      15 UNK        -0.5000 
     85 CA         -4.2428  -26.0904  -48.8344 C.3       15 UNK         0.1400 
     86 CB         -4.9654  -27.3640  -49.3208 C.3       15 UNK        -0.1800 
     87 C          -4.3672  -24.9111  -49.8238 C.2       15 UNK         0.5000 
     88 O          -5.0775  -25.0109  -50.8247 O.2       15 UNK        -0.5000 
     89 N          -3.6221  -23.8339  -49.5406 N.am      16 UNK        -0.5000 
     90 CA         -3.4613  -22.6210  -50.3463 C.3       16 UNK         0.1400 
     91 CB         -4.8040  -21.8852  -50.5067 C.3       16 UNK        -0.1800 
     92 C          -2.7747  -22.9048  -51.6962 C.2       16 UNK         0.5000 
     93 O          -3.1941  -22.3698  -52.7256 O.2       16 UNK        -0.5000 
     94 N          -1.7515  -23.7704  -51.6609 N.am      17 UNK        -0.5000 
     95 CA         -1.0426  -24.3490  -52.8073 C.3       17 UNK         0.1400 
     96 CB         -0.1824  -23.2812  -53.5113 C.3       17 UNK        -0.1800 
     97 C          -2.0022  -25.0874  -53.7652 C.2       17 UNK         0.5000 
     98 O          -1.9988  -24.8308  -54.9697 O.2       17 UNK        -0.5000 
     99 N          -2.8222  -25.9764  -53.1866 N.am      18 UNK        -0.5000 
    100 CA        -3.8986  -26.7419  -53.8209 C.3       18 UNK         0.1400 
    101 CB        -3.3271  -27.7671  -54.8227 C.3       18 UNK        -0.1800 
    102 C         -4.9886  -25.8325  -54.4284 C.2       18 UNK         0.5000 
    103 O         -5.3027  -25.9420  -55.6154 O.2       18 UNK        -0.5000 
    104 N         -5.5461  -24.9552  -53.5811 N.am      19 UNK        -0.5000 
    105 CA        -6.6372  -24.0142  -53.8549 C.3       19 UNK         0.1400 
    106 CB        -7.9531  -24.7737  -54.1248 C.3       19 UNK        -0.1800 
    107 C         -6.3034  -22.9734  -54.9455 C.2       19 UNK         0.5000 
    108 O         -7.1710  -22.6148  -55.7442 O.2       19 UNK        -0.5000 
    109 N         -5.0542  -22.4937  -54.9484 N.am      20 UNK        -0.5000 
    110 CA        -4.5329  -21.4991  -55.8886 C.3       20 UNK         0.1400 
    111 CB        -3.2013  -22.0214  -56.4523 C.3       20 UNK        -0.1800 
    112 C         -4.3394  -20.1198  -55.2277 C.2       20 UNK         0.5000 
    113 O         -3.7513  -19.2336  -55.8505 O.2       20 UNK        -0.5000 
    114 N         -4.7804  -19.9694  -53.9669 N.am      21 UNK        -0.5000 
    115 CA        -4.5942  -18.7985  -53.0948 C.3       21 UNK         0.1400 
    116 CB        -5.4089  -17.5965  -53.6151 C.3       21 UNK        -0.1800 
    117 C         -3.1044  -18.4572  -52.8610 C.2       21 UNK         0.5000 
    118 O         -2.7608  -17.2894  -52.6735 O.2       21 UNK        -0.5000 
    119 N         -2.2491  -19.4880  -52.9261 N.am      22 UNK        -0.5000 
    120 CA        -0.7791  -19.4055  -52.9244 C.3       22 UNK         0.1400 
    121 C         -0.1660  -18.6478  -54.1445 C.2       22 UNK         0.5000 
    122 N         -0.8936  -18.4405  -55.2372 N.am      22 UNK        -0.7600 
    123 O          1.0026  -18.2709  -54.1223 O.2       22 UNK        -0.5000 
    124 C124       -0.1937  -18.9484  -51.5606 C.3       23 UNK        -0.0398 
    125 S125       -0.6431  -20.1024  -50.2204 S.3       23 UNK        -0.2404 
    126 C126       -0.7950  -18.9806  -48.7986 C.3       23 UNK        -0.0205 
    127 H127        1.3351   -7.7546  -47.9927 H         1 UNK         0.0600 
    128 H128       -0.3407   -7.8885  -48.5340 H         1 UNK         0.0600 
    129 H129        0.9737   -8.3929  -49.6001 H         1 UNK         0.0600 
    130 H130       -1.3806   -9.6010  -47.5656 H         1 UNK         0.3000 
    131 H131       -0.2128  -12.2617  -47.4880 H         1 UNK         0.0600 
    132 H132       -2.9731  -11.4653  -46.4551 H         1 UNK         0.0800 
    133 H133       -2.6490  -11.6735  -48.1478 H         1 UNK         0.0800 
    134 H134       -3.4410  -13.7409  -49.2412 H         1 UNK         0.0800 
    135 H135       -1.7099  -14.0037  -49.2524 H         1 UNK         0.0800 
    136 H136       -0.7760  -16.2604  -48.7929 H         1 UNK         0.1150 
    137 H137       -3.4479  -19.6055  -49.0014 H         1 UNK         0.1150 
    138 H138       -5.0057  -15.6116  -48.8980 H         1 UNK         0.1150 
    139 H139       -6.4363  -17.5066  -49.5650 H         1 UNK         0.0800 
    140 H140       -5.8504  -19.1438  -49.5533 H         1 UNK         0.0800 
    141 H141       -6.2142  -20.6941  -47.9096 H         1 UNK         0.0800 
    142 H142       -7.0459  -20.5213  -46.4100 H         1 UNK         0.0800 
    143 H143       -4.0479  -20.0924  -46.8200 H         1 UNK         0.0600 
    144 H144       -3.8251  -19.2010  -44.8533 H         1 UNK         0.3000 
    145 H145       -5.9747  -17.9239  -42.6326 H         1 UNK         0.0600 
    146 H146       -4.9088  -18.8640  -40.5771 H         1 UNK         0.0600 
    147 H147       -6.0948  -19.9809  -41.2284 H         1 UNK         0.0600 
    148 H148       -4.3806  -20.2829  -41.4831 H         1 UNK         0.0600 
    149 H149       -3.1223  -18.4203  -42.4321 H         1 UNK         0.3000 
    150 H150       -2.0182  -16.5626  -45.0349 H         1 UNK         0.0600 
    151 H151       -2.5409  -14.4725  -43.7511 H         1 UNK         0.0600 
    152 H152       -0.8490  -14.9039  -43.6289 H         1 UNK         0.0600 
    153 H153       -1.9391  -15.2233  -42.2776 H         1 UNK         0.0600 
    154 H154       -0.6367  -17.2598  -42.6502 H         1 UNK         0.3000 
    155 H155        0.1705  -19.2330  -42.1076 H         1 UNK         0.0600 
    156 H156       -1.3682  -21.1889  -42.2862 H         1 UNK         0.0600 
    157 H157        0.3098  -21.7076  -42.3205 H         1 UNK         0.0600 
    158 H158       -0.6248  -21.6602  -43.8102 H         1 UNK         0.0600 
    159 H159        1.0819  -19.4229  -44.8656 H         1 UNK         0.3000 
    160 H160        4.4439  -19.0386  -43.8066 H         1 UNK         0.0600 
    161 H161        3.2029  -20.9813  -45.8237 H         1 UNK         0.0600 
    162 H162        4.3765  -21.3675  -44.5784 H         1 UNK         0.0600 
    163 H163        4.8340  -20.3189  -45.9123 H         1 UNK         0.0600 
    164 H164        3.6999  -17.3210  -44.9428 H         1 UNK         0.3000 
    165 H165        2.0274  -16.7748  -47.9008 H         1 UNK         0.0600 
    166 H166        0.4788  -15.2091  -46.7458 H         1 UNK         0.0600 
    167 H167       -0.0587  -16.8651  -46.5006 H         1 UNK         0.0600 
    168 H168        0.7706  -16.0156  -45.2073 H         1 UNK         0.0600 
    169 H169        2.8593  -14.9793  -45.8144 H         1 UNK         0.3000 
    170 H170        6.2413  -14.6574  -46.9596 H         1 UNK         0.0600 
    171 H171        4.7945  -13.1864  -48.3423 H         1 UNK         0.0600 
    172 H172        3.7629  -12.8496  -46.9584 H         1 UNK         0.0600 
    173 H173        5.4388  -12.3060  -46.9653 H         1 UNK         0.0600 
    174 H174        4.4170  -13.8141  -44.7702 H         1 UNK         0.3000 
    175 H175        6.2402  -15.5354  -42.2945 H         1 UNK         0.0600 
    176 H176        6.4059  -12.5201  -42.8333 H         1 UNK         0.0600 
    177 H177        6.6542  -13.3094  -41.2750 H         1 UNK         0.0600 
    178 H178        7.7808  -13.5914  -42.5923 H         1 UNK         0.0600 
    179 H179        4.2320  -13.4789  -42.1870 H         1 UNK         0.3000 
    180 H180        1.4308  -15.5196  -42.8021 H         1 UNK         0.0600 
    181 H181        2.3375  -14.5112  -40.0556 H         1 UNK         0.0600 
    182 H182        1.8988  -16.1722  -40.4365 H         1 UNK         0.0600 
    183 H183        0.6837  -14.9074  -40.5263 H         1 UNK         0.0600 
    184 H184        1.5231  -12.8939  -41.7913 H         1 UNK         0.3000 
    185 H185        0.9529  -11.1678  -43.1586 H         1 UNK         0.0600 
    186 H186        3.4212  -10.7849  -43.0192 H         1 UNK         0.0600 
    187 H187        3.5727  -10.9913  -44.7608 H         1 UNK         0.0600 
    188 H188        2.6793   -9.6205  -44.1053 H         1 UNK         0.0600 
    189 H189        1.5025  -11.1222  -46.0542 H         1 UNK         0.3000 
    190 H190       -3.6288  -21.6246  -44.2739 H         1 UNK         0.3000 
    191 H191       -4.4618  -24.3492  -44.8711 H         1 UNK         0.0600 
    192 H192       -4.2281  -23.5144  -42.5359 H         1 UNK         0.0600 
    193 H193       -3.1790  -24.8923  -42.8276 H         1 UNK         0.0600 
    194 H194       -2.4985  -23.2731  -42.7809 H         1 UNK         0.0600 
    195 H195       -1.6855  -22.3851  -45.6519 H         1 UNK         0.3000 
    196 H196        0.3895  -24.2461  -45.7924 H         1 UNK         0.0600 
    197 H197        1.4951  -22.4981  -47.2110 H         1 UNK         0.0600 
    198 H198        0.7455  -21.8074  -45.7833 H         1 UNK         0.0600 
    199 H199       -0.0347  -21.6489  -47.3544 H         1 UNK         0.0600 
    200 H200        0.0094  -26.1513  -46.8018 H         1 UNK         0.3000 
    201 H201       -0.3406  -27.7335  -48.3111 H         1 UNK         0.0600 
    202 H202        1.6595  -26.7628  -49.4097 H         1 UNK         0.0600 
    203 H203        0.6517  -25.6646  -50.3448 H         1 UNK         0.0600 
    204 H204        0.5566  -27.4011  -50.6159 H         1 UNK         0.0600 
    205 H205       -2.5886  -26.2399  -47.5270 H         1 UNK         0.3000 
    206 H206       -4.7233  -25.7666  -47.9098 H         1 UNK         0.0600 
    207 H207       -4.8746  -28.1703  -48.5931 H         1 UNK         0.0600 
    208 H208       -6.0299  -27.1762  -49.4656 H         1 UNK         0.0600 
    209 H209       -4.5661  -27.7225  -50.2700 H         1 UNK         0.0600 
    210 H210       -3.0211  -23.8814  -48.7295 H         1 UNK         0.3000 
    211 H211       -2.7933  -21.9755  -49.7775 H         1 UNK         0.0600 
    212 H212       -5.4630  -22.3827  -51.2175 H         1 UNK         0.0600 
    213 H213       -4.6400  -20.8702  -50.8599 H         1 UNK         0.0600 
    214 H214       -5.3309  -21.8255  -49.5585 H         1 UNK         0.0600 
    215 H215       -1.4621  -24.1030  -50.7470 H         1 UNK         0.3000 
    216 H216       -0.3673  -25.1054  -52.4073 H         1 UNK         0.0600 
    217 H217        0.4481  -23.7337  -54.2774 H         1 UNK         0.0600 
    218 H218        0.4754  -22.7759  -52.8041 H         1 UNK         0.0600 
    219 H219       -0.7972  -22.5273  -54.0011 H         1 UNK         0.0600 
    220 H220       -2.7027  -26.1426  -52.1897 H         1 UNK         0.3000 
    221 H221       -4.3813  -27.3040  -53.0199 H         1 UNK         0.0600 
    222 H222       -2.8498  -27.2831  -55.6751 H         1 UNK         0.0600 
    223 H223       -2.5888  -28.4123  -54.3466 H         1 UNK         0.0600 
    224 H224       -4.1165  -28.4102  -55.2132 H         1 UNK         0.0600 
    225 H225       -5.2284  -24.9631  -52.6119 H         1 UNK         0.3000 
    226 H226       -6.7780  -23.4463  -52.9349 H         1 UNK         0.0600 
    227 H227       -8.1713  -25.4796  -53.3234 H         1 UNK         0.0600 
    228 H228       -8.7971  -24.0859  -54.1870 H         1 UNK         0.0600 
    229 H229       -7.9153  -25.3303  -55.0617 H         1 UNK         0.0600 
    230 H230       -4.4012  -22.8065  -54.2351 H         1 UNK         0.3000 
    231 H231       -5.2220  -21.3607  -56.7237 H         1 UNK         0.0600 
    232 H232       -2.4460  -22.1115  -55.6715 H         1 UNK         0.0600 
    233 H233       -2.8053  -21.3541  -57.2185 H         1 UNK         0.0600 
    234 H234       -3.3253  -23.0033  -56.9097 H         1 UNK         0.0600 
    235 H235       -5.2073  -20.7764  -53.5360 H         1 UNK         0.3000 
    236 H236       -5.0035  -19.0607  -52.1204 H         1 UNK         0.0600 
    237 H237       -6.4533  -17.8661  -53.7714 H         1 UNK         0.0600 
    238 H238       -5.3912  -16.7740  -52.8989 H         1 UNK         0.0600 
    239 H239       -5.0148  -17.2168  -54.5581 H         1 UNK         0.0600 
    240 H240       -2.6315  -20.4170  -53.0646 H         1 UNK         0.3000 
    241 H241       -0.4434  -20.4301  -53.0725 H         1 UNK         0.0600 
    242 H242       -1.8626  -18.7347  -55.2931 H         1 UNK         0.3800 
    243 H243       -0.4774  -17.9609  -56.0193 H         1 UNK         0.3800 
    244 H244        0.8959  -18.9092  -51.5963 H         1 UNK         0.0800 
    245 H245       -0.5280  -17.9386  -51.3210 H         1 UNK         0.0800 
    246 H246       -0.8966  -19.5673  -47.8854 H         1 UNK         0.0800 
    247 H247        0.1361  -18.4225  -48.7006 H         1 UNK         0.0800 
@<TRIPOS>BOND
     1    1    2 1    
     2    1  127 1    
     3    1  128 1    
     4    1  129 1    
     5    2    3 2    
     6    2    4 am   BACKBONE|DICT|INTERRES
     7    4    5 1    
     8    4  130 1    
     9    5    6 1    
    10    5   65 1    
    11    5  131 1    
    12    6    7 1    
    13    6  132 1    
    14    6  133 1    
    15    7    8 1    
    16    8    9 1    
    17    8  134 1    
    18    8  135 1    
    19    9   10 ar   
    20    9   14 ar   
    21   10   11 ar   
    22   10  136 1    
    23   11   12 ar   
    24   11  126 1    
    25   12   13 ar   
    26   12  137 1    
    27   13   14 ar   
    28   13   15 1    
    29   14  138 1    
    30   15   16 1    
    31   15  139 1    
    32   15  140 1    
    33   16   17 1    
    34   17   18 1    
    35   17  141 1    
    36   17  142 1    
    37   18   19 1    
    38   18   67 1    
    39   18  143 1    
    40   19   20 am   BACKBONE|DICT|INTERRES
    41   19  144 1    
    42   20   21 2    
    43   20   22 1    
    44   22   23 1    
    45   22   24 1    
    46   22  145 1    
    47   23  146 1    
    48   23  147 1    
    49   23  148 1    
    50   24   25 am   BACKBONE|DICT|INTERRES
    51   24  149 1    
    52   25   26 2    
    53   25   27 1    
    54   27   28 1    
    55   27   29 1    
    56   27  150 1    
    57   28  151 1    
    58   28  152 1    
    59   28  153 1    
    60   29   30 am   BACKBONE|DICT|INTERRES
    61   29  154 1    
    62   30   31 2    
    63   30   32 1    
    64   32   33 1    
    65   32   34 1    
    66   32  155 1    
    67   33  156 1    
    68   33  157 1    
    69   33  158 1    
    70   34   35 am   BACKBONE|DICT|INTERRES
    71   34  159 1    
    72   35   36 2    
    73   35   37 1    
    74   37   38 1    
    75   37   39 1    
    76   37  160 1    
    77   38  161 1    
    78   38  162 1    
    79   38  163 1    
    80   39   40 am   BACKBONE|DICT|INTERRES
    81   39  164 1    
    82   40   41 2    
    83   40   42 1    
    84   42   43 1    
    85   42   44 1    
    86   42  165 1    
    87   43  166 1    
    88   43  167 1    
    89   43  168 1    
    90   44   45 am   BACKBONE|DICT|INTERRES
    91   44  169 1    
    92   45   46 2    
    93   45   47 1    
    94   47   48 1    
    95   47   49 1    
    96   47  170 1    
    97   48  171 1    
    98   48  172 1    
    99   48  173 1    
   100   49   50 am   BACKBONE|DICT|INTERRES
   101   49  174 1    
   102   50   51 2    
   103   50   52 1    
   104   52   53 1    
   105   52   54 1    
   106   52  175 1    
   107   53  176 1    
   108   53  177 1    
   109   53  178 1    
   110   54   55 am   BACKBONE|DICT|INTERRES
   111   54  179 1    
   112   55   56 2    
   113   55   57 1    
   114   57   58 1    
   115   57   59 1    
   116   57  180 1    
   117   58  181 1    
   118   58  182 1    
   119   58  183 1    
   120   59   60 am   BACKBONE|DICT|INTERRES
   121   59  184 1    
   122   60   61 2    
   123   60   62 1    
   124   62   63 1    
   125   62   64 1    
   126   62  185 1    
   127   63  186 1    
   128   63  187 1    
   129   63  188 1    
   130   64   65 am   BACKBONE|DICT|INTERRES
   131   64  189 1    
   132   65   66 2    
   133   67   68 2    
   134   67   69 am   BACKBONE|DICT|INTERRES
   135   69   70 1    
   136   69  190 1    
   137   70   71 1    
   138   70   72 1    
   139   70  191 1    
   140   71  192 1    
   141   71  193 1    
   142   71  194 1    
   143   72   73 2    
   144   72   74 am   BACKBONE|DICT|INTERRES
   145   74   75 1    
   146   74  195 1    
   147   75   76 1    
   148   75   77 1    
   149   75  196 1    
   150   76  197 1    
   151   76  198 1    
   152   76  199 1    
   153   77   78 2    
   154   77   79 am   BACKBONE|DICT|INTERRES
   155   79   80 1    
   156   79  200 1    
   157   80   81 1    
   158   80   82 1    
   159   80  201 1    
   160   81  202 1    
   161   81  203 1    
   162   81  204 1    
   163   82   83 2    
   164   82   84 am   BACKBONE|DICT|INTERRES
   165   84   85 1    
   166   84  205 1    
   167   85   86 1    
   168   85   87 1    
   169   85  206 1    
   170   86  207 1    
   171   86  208 1    
   172   86  209 1    
   173   87   88 2    
   174   87   89 am   BACKBONE|DICT|INTERRES
   175   89   90 1    
   176   89  210 1    
   177   90   91 1    
   178   90   92 1    
   179   90  211 1    
   180   91  212 1    
   181   91  213 1    
   182   91  214 1    
   183   92   93 2    
   184   92   94 am   BACKBONE|DICT|INTERRES
   185   94   95 1    
   186   94  215 1    
   187   95   96 1    
   188   95   97 1    
   189   95  216 1    
   190   96  217 1    
   191   96  218 1    
   192   96  219 1    
   193   97   98 2    
   194   97   99 am   BACKBONE|DICT|INTERRES
   195   99  100 1    
   196   99  220 1    
   197  100  101 1    
   198  100  102 1    
   199  100  221 1    
   200  101  222 1    
   201  101  223 1    
   202  101  224 1    
   203  102  103 2    
   204  102  104 am   BACKBONE|DICT|INTERRES
   205  104  105 1    
   206  104  225 1    
   207  105  106 1    
   208  105  107 1    
   209  105  226 1    
   210  106  227 1    
   211  106  228 1    
   212  106  229 1    
   213  107  108 2    
   214  107  109 am   BACKBONE|DICT|INTERRES
   215  109  110 1    
   216  109  230 1    
   217  110  111 1    
   218  110  112 1    
   219  110  231 1    
   220  111  232 1    
   221  111  233 1    
   222  111  234 1    
   223  112  113 2    
   224  112  114 am   BACKBONE|DICT|INTERRES
   225  114  115 1    
   226  114  235 1    
   227  115  116 1    
   228  115  117 1    
   229  115  236 1    
   230  116  237 1    
   231  116  238 1    
   232  116  239 1    
   233  117  118 2    
   234  117  119 am   BACKBONE|DICT|INTERRES
   235  119  120 1    
   236  119  240 1    
   237  120  121 1    
   238  120  124 1    
   239  120  241 1    
   240  121  122 am   BACKBONE|DICT|INTERRES
   241  121  123 2    
   242  122  242 1    
   243  122  243 1    
   244  124  125 1    
   245  124  244 1    
   246  124  245 1    
   247  125  126 1    
   248  126  246 1    
   249  126  247 1    
@<TRIPOS>SUBSTRUCTURE
     1 UNK         1 GROUP             0       ****    0 ROOT    
