@<TRIPOS>MOLECULE
3R540
247   249    1
SMALL
USER_CHARGES


@<TRIPOS>ATOM
      1 CA          5.7413  -14.1097  -45.3306 C.3       0 UNK        -0.1800 
      2 C           4.6523  -13.7291  -46.3232 C.2       0 UNK         0.5000 
      3 O           4.9576  -13.3600  -47.4571 O.2       0 UNK        -0.5000 
      4 N           3.3881  -13.8222  -45.8969 N.am      1 UNK        -0.5000 
      5 CA          2.1812  -13.4843  -46.6554 C.3       1 UNK         0.1400 
      6 C6          1.9450  -14.4087  -47.8806 C.3       23 UNK        -0.0398 
      7 S7          0.1740  -14.7870  -48.0834 S.3       23 UNK        -0.2404 
      8 C8          0.2401  -16.1561  -49.2755 C.3       23 UNK        -0.0205 
      9 C9         -1.0286  -16.9873  -49.1982 C.ar      23 UNK        -0.0193 
     10 C10        -2.1933  -16.5686  -49.8473 C.ar      23 UNK        -0.1150 
     11 C11        -3.3691  -17.3201  -49.7513 C.ar      23 UNK        -0.0193 
     12 C12        -3.3723  -18.4989  -48.9985 C.ar      23 UNK        -0.1150 
     13 C13        -2.2144  -18.9216  -48.3389 C.ar      23 UNK        -0.0193 
     14 C14        -1.0447  -18.1666  -48.4506 C.ar      23 UNK        -0.1150 
     15 C15        -2.2243  -20.1784  -47.4860 C.3       23 UNK        -0.0205 
     16 S16        -2.1152  -19.7539  -45.7170 S.3       23 UNK        -0.2404 
     17 C17        -2.3131  -21.3296  -44.8036 C.3       23 UNK        -0.0398 
     18 CA         -2.0590  -22.6426  -45.5840 C.3       11 UNK         0.1400 
     19 N          -0.6852  -22.7477  -46.0942 N.am      11 UNK        -0.5000 
     20 C          -0.2637  -23.6827  -46.9614 C.2       10 UNK         0.5000 
     21 O          -1.0034  -24.5549  -47.4178 O.2       10 UNK        -0.5000 
     22 CA          1.2145  -23.6658  -47.3943 C.3       10 UNK         0.1400 
     23 CB          1.3514  -22.9678  -48.7556 C.3       10 UNK        -0.1800 
     24 N           2.1077  -23.0157  -46.4367 N.am      10 UNK        -0.5000 
     25 C           2.3221  -23.4115  -45.1738 C.2       9 UNK         0.5000 
     26 O           1.8339  -24.4306  -44.6855 O.2       9 UNK        -0.5000 
     27 CA          3.1785  -22.4779  -44.2928 C.3       9 UNK         0.1400 
     28 CB          4.6335  -22.9681  -44.2494 C.3       9 UNK        -0.1800 
     29 N           3.1583  -21.0679  -44.7085 N.am      9 UNK        -0.5000 
     30 C           2.0579  -20.3097  -44.8092 C.2       8 UNK         0.5000 
     31 O           0.9195  -20.7313  -44.5897 O.2       8 UNK        -0.5000 
     32 CA          2.2602  -18.8633  -45.2809 C.3       8 UNK         0.1400 
     33 CB          2.6536  -18.8133  -46.7677 C.3       8 UNK        -0.1800 
     34 N           1.0145  -18.1290  -45.0870 N.am      8 UNK        -0.5000 
     35 C           0.9251  -16.8641  -44.6721 C.2       7 UNK         0.5000 
     36 O           1.9024  -16.1396  -44.4633 O.2       7 UNK        -0.5000 
     37 CA         -0.4931  -16.3291  -44.4247 C.3       7 UNK         0.1400 
     38 CB         -1.1292  -16.9867  -43.1852 C.3       7 UNK        -0.1800 
     39 N          -0.4153  -14.8866  -44.2314 N.am      7 UNK        -0.5000 
     40 C          -1.4049  -14.0044  -44.3877 C.2       6 UNK         0.5000 
     41 O          -2.5577  -14.3246  -44.6819 O.2       6 UNK        -0.5000 
     42 CA         -1.0406  -12.5191  -44.1630 C.3       6 UNK         0.1400 
     43 CB         -2.2654  -11.5894  -44.2213 C.3       6 UNK        -0.1800 
     44 N          -0.3468  -12.2953  -42.8925 N.am      6 UNK        -0.5000 
     45 C           0.9505  -12.5206  -42.6528 C.2       5 UNK         0.5000 
     46 O           1.7208  -12.9794  -43.4971 O.2       5 UNK        -0.5000 
     47 CA          1.4645  -12.1569  -41.2474 C.3       5 UNK         0.1400 
     48 CB          2.9817  -12.3724  -41.0987 C.3       5 UNK        -0.1800 
     49 N           1.1563  -10.7630  -40.9348 N.am      5 UNK        -0.5000 
     50 C           0.0304  -10.3235  -40.3579 C.2       4 UNK         0.5000 
     51 O          -0.8870  -11.0672  -40.0088 O.2       4 UNK        -0.5000 
     52 CA         -0.1076   -8.8008  -40.1585 C.3       4 UNK         0.1400 
     53 CB          0.3186   -8.4052  -38.7365 C.3       4 UNK        -0.1800 
     54 N           0.6741   -8.0245  -41.1239 N.am      4 UNK        -0.5000 
     55 C           0.3738   -7.9090  -42.4243 C.2       3 UNK         0.5000 
     56 O          -0.6428   -8.3887  -42.9299 O.2       3 UNK        -0.5000 
     57 CA          1.3664   -7.1387  -43.3230 C.3       3 UNK         0.1400 
     58 CB          2.6634   -6.6932  -42.6086 C.3       3 UNK        -0.1800 
     59 N           1.6831   -7.8927  -44.5409 N.am      3 UNK        -0.5000 
     60 C           2.2251   -9.1168  -44.6081 C.2       2 UNK         0.5000 
     61 O           2.5936   -9.7687  -43.6276 O.2       2 UNK        -0.5000 
     62 CA          2.4084   -9.6936  -46.0174 C.3       2 UNK         0.1400 
     63 CB          3.7293   -9.2081  -46.6410 C.3       2 UNK        -0.1800 
     64 N           2.3998  -11.1505  -45.9498 N.am      2 UNK        -0.5000 
     65 C           2.0930  -11.9715  -46.9610 C.2       1 UNK         0.5000 
     66 O           1.7663  -11.5733  -48.0807 O.2       1 UNK        -0.5000 
     67 C          -2.4627  -23.8637  -44.7308 C.2       11 UNK         0.5000 
     68 O          -3.6338  -24.2437  -44.7455 O.2       11 UNK        -0.5000 
     69 N          -1.4871  -24.5043  -44.0685 N.am      12 UNK        -0.5000 
     70 CA         -1.6669  -25.7612  -43.3342 C.3       12 UNK         0.1400 
     71 CB         -0.4131  -26.0319  -42.4893 C.3       12 UNK        -0.1800 
     72 C          -1.9714  -26.9646  -44.2524 C.2       12 UNK         0.5000 
     73 O          -2.5187  -27.9619  -43.7817 O.2       12 UNK        -0.5000 
     74 N          -1.6346  -26.8378  -45.5422 N.am      13 UNK        -0.5000 
     75 CA         -1.9104  -27.7991  -46.6061 C.3       13 UNK         0.1400 
     76 CB         -0.5977  -28.0733  -47.3623 C.3       13 UNK        -0.1800 
     77 C          -3.0189  -27.2865  -47.5493 C.2       13 UNK         0.5000 
     78 O          -3.0815  -27.7286  -48.6959 O.2       13 UNK        -0.5000 
     79 N          -3.8608  -26.3538  -47.0733 N.am      14 UNK        -0.5000 
     80 CA         -4.9767  -25.7226  -47.7905 C.3       14 UNK         0.1400 
     81 CB         -6.0862  -26.7522  -48.0917 C.3       14 UNK        -0.1800 
     82 C          -4.5117  -24.9539  -49.0447 C.2       14 UNK         0.5000 
     83 O          -5.0322  -25.1702  -50.1403 O.2       14 UNK        -0.5000 
     84 N          -3.4972  -24.0988  -48.8538 N.am      15 UNK        -0.5000 
     85 CA         -2.7848  -23.3253  -49.8777 C.3       15 UNK         0.1400 
     86 CB         -3.7115  -22.2889  -50.5454 C.3       15 UNK        -0.1800 
     87 C          -2.0663  -24.2474  -50.8821 C.2       15 UNK         0.5000 
     88 O          -2.1429  -24.0269  -52.0919 O.2       15 UNK        -0.5000 
     89 N          -1.4137  -25.2870  -50.3377 N.am      16 UNK        -0.5000 
     90 CA         -0.7404  -26.3859  -51.0385 C.3       16 UNK         0.1400 
     91 CB          0.5591  -25.8869  -51.7012 C.3       16 UNK        -0.1800 
     92 C          -1.6851  -27.1241  -52.0110 C.2       16 UNK         0.5000 
     93 O          -1.3697  -27.2766  -53.1914 O.2       16 UNK        -0.5000 
     94 N          -2.8450  -27.5395  -51.4821 N.am      17 UNK        -0.5000 
     95 CA         -3.9775  -28.1551  -52.1790 C.3       17 UNK         0.1400 
     96 CB         -3.6058  -29.5608  -52.6953 C.3       17 UNK        -0.1800 
     97 C          -4.5611  -27.2339  -53.2710 C.2       17 UNK         0.5000 
     98 O          -4.7690  -27.6686  -54.4057 O.2       17 UNK        -0.5000 
     99 N          -4.8047  -25.9704  -52.8921 N.am      18 UNK        -0.5000 
    100 CA        -5.3191  -24.8740  -53.7172 C.3       18 UNK         0.1400 
    101 CB        -6.7999  -25.1163  -54.0754 C.3       18 UNK        -0.1800 
    102 C         -4.4365  -24.5712  -54.9470 C.2       18 UNK         0.5000 
    103 O         -4.9512  -24.3984  -56.0541 O.2       18 UNK        -0.5000 
    104 N         -3.1148  -24.5119  -54.7315 N.am      19 UNK        -0.5000 
    105 CA        -2.1359  -24.1093  -55.7423 C.3       19 UNK         0.1400 
    106 CB        -0.7257  -24.5190  -55.2951 C.3       19 UNK        -0.1800 
    107 C         -2.1954  -22.5961  -56.0105 C.2       19 UNK         0.5000 
    108 O         -2.0493  -22.1734  -57.1584 O.2       19 UNK        -0.5000 
    109 N         -2.4366  -21.8132  -54.9503 N.am      20 UNK        -0.5000 
    110 CA        -2.7473  -20.3905  -55.0376 C.3       20 UNK         0.1400 
    111 CB        -2.4379  -19.7173  -53.6916 C.3       20 UNK        -0.1800 
    112 C         -4.2302  -20.2161  -55.4025 C.2       20 UNK         0.5000 
    113 O         -5.0828  -20.8961  -54.8242 O.2       20 UNK        -0.5000 
    114 N         -4.5180  -19.2860  -56.3226 N.am      21 UNK        -0.5000 
    115 CA        -5.8667  -18.9847  -56.8209 C.3       21 UNK         0.1400 
    116 CB        -5.7588  -17.9795  -57.9778 C.3       21 UNK        -0.1800 
    117 C         -6.8351  -18.4620  -55.7399 C.2       21 UNK         0.5000 
    118 O         -8.0488  -18.6145  -55.8829 O.2       21 UNK        -0.5000 
    119 N         -6.2768  -17.8772  -54.6747 N.am      22 UNK        -0.5000 
    120 CA        -6.9816  -17.4728  -53.4522 C.3       22 UNK         0.1400 
    121 C         -7.3775  -18.6472  -52.5049 C.2       22 UNK         0.5000 
    122 N         -6.9492  -19.8828  -52.7414 N.am      22 UNK        -0.7600 
    123 O         -8.1027  -18.4318  -51.5376 O.2       22 UNK        -0.5000 
    124 C124       -6.2023  -16.3577  -52.7090 C.3       23 UNK        -0.0398 
    125 S125       -4.5030  -16.8425  -52.2366 S.3       23 UNK        -0.2404 
    126 C126       -4.6448  -16.8365  -50.4239 C.3       23 UNK        -0.0205 
    127 H127        6.3379  -14.9325  -45.7246 H         1 UNK         0.0600 
    128 H128        5.3238  -14.4207  -44.3723 H         1 UNK         0.0600 
    129 H129        6.4016  -13.2607  -45.1543 H         1 UNK         0.0600 
    130 H130        3.2033  -14.1336  -44.9502 H         1 UNK         0.3000 
    131 H131        1.3761  -13.6745  -45.9491 H         1 UNK         0.0600 
    132 H132        2.4606  -15.3574  -47.7275 H         1 UNK         0.0800 
    133 H133        2.3548  -13.9927  -48.8025 H         1 UNK         0.0800 
    134 H134        1.1088  -16.7854  -49.0761 H         1 UNK         0.0800 
    135 H135        0.3697  -15.7571  -50.2826 H         1 UNK         0.0800 
    136 H136       -2.1893  -15.6498  -50.4170 H         1 UNK         0.1150 
    137 H137       -4.2813  -19.0771  -48.9104 H         1 UNK         0.1150 
    138 H138       -0.1535  -18.4856  -47.9309 H         1 UNK         0.1150 
    139 H139       -3.1341  -20.7508  -47.6698 H         1 UNK         0.0800 
    140 H140       -1.3820  -20.8045  -47.7782 H         1 UNK         0.0800 
    141 H141       -3.3319  -21.3253  -44.4113 H         1 UNK         0.0800 
    142 H142       -1.6627  -21.2847  -43.9283 H         1 UNK         0.0800 
    143 H143       -2.7290  -22.6562  -46.4437 H         1 UNK         0.0600 
    144 H144       -0.0248  -22.0685  -45.7275 H         1 UNK         0.3000 
    145 H145        1.5344  -24.7041  -47.5022 H         1 UNK         0.0600 
    146 H146        1.0656  -21.9164  -48.7001 H         1 UNK         0.0600 
    147 H147        2.3762  -23.0185  -49.1235 H         1 UNK         0.0600 
    148 H148        0.7173  -23.4403  -49.5062 H         1 UNK         0.0600 
    149 H149        2.5556  -22.1658  -46.7445 H         1 UNK         0.3000 
    150 H150        2.7702  -22.5273  -43.2813 H         1 UNK         0.0600 
    151 H151        4.6867  -24.0066  -43.9194 H         1 UNK         0.0600 
    152 H152        5.2290  -22.3774  -43.5531 H         1 UNK         0.0600 
    153 H153        5.1067  -22.9107  -45.2305 H         1 UNK         0.0600 
    154 H154        4.0557  -20.6537  -44.9166 H         1 UNK         0.3000 
    155 H155        3.0557  -18.4224  -44.6763 H         1 UNK         0.0600 
    156 H156        3.6289  -19.2722  -46.9324 H         1 UNK         0.0600 
    157 H157        2.7180  -17.7853  -47.1239 H         1 UNK         0.0600 
    158 H158        1.9343  -19.3414  -47.3941 H         1 UNK         0.0600 
    159 H159        0.1793  -18.6997  -45.1514 H         1 UNK         0.3000 
    160 H160       -1.0957  -16.5429  -45.3104 H         1 UNK         0.0600 
    161 H161       -2.1492  -16.6354  -43.0300 H         1 UNK         0.0600 
    162 H162       -0.5590  -16.7694  -42.2812 H         1 UNK         0.0600 
    163 H163       -1.1768  -18.0710  -43.2902 H         1 UNK         0.0600 
    164 H164        0.5185  -14.5464  -44.0158 H         1 UNK         0.3000 
    165 H165       -0.3756  -12.2278  -44.9778 H         1 UNK         0.0600 
    166 H166       -2.9822  -11.8182  -43.4318 H         1 UNK         0.0600 
    167 H167       -1.9715  -10.5450  -44.1147 H         1 UNK         0.0600 
    168 H168       -2.7840  -11.6814  -45.1764 H         1 UNK         0.0600 
    169 H169       -0.9084  -11.9356  -42.1316 H         1 UNK         0.3000 
    170 H170        0.9635  -12.8162  -40.5357 H         1 UNK         0.0600 
    171 H171        3.5464  -11.7510  -41.7951 H         1 UNK         0.0600 
    172 H172        3.3164  -12.1338  -40.0892 H         1 UNK         0.0600 
    173 H173        3.2505  -13.4116  -41.2925 H         1 UNK         0.0600 
    174 H174        1.8150  -10.0805  -41.2846 H         1 UNK         0.3000 
    175 H175       -1.1622   -8.5453  -40.2822 H         1 UNK         0.0600 
    176 H176        1.3713   -8.6258  -38.5551 H         1 UNK         0.0600 
    177 H177        0.1621   -7.3410  -38.5591 H         1 UNK         0.0600 
    178 H178       -0.2637   -8.9468  -37.9897 H         1 UNK         0.0600 
    179 H179        1.5241   -7.5990  -40.7831 H         1 UNK         0.3000 
    180 H180        0.8428   -6.2378  -43.6457 H         1 UNK         0.0600 
    181 H181        3.2308   -7.5381  -42.2169 H         1 UNK         0.0600 
    182 H182        2.4476   -6.0197  -41.7784 H         1 UNK         0.0600 
    183 H183        3.3156   -6.1508  -43.2934 H         1 UNK         0.0600 
    184 H184        1.3982   -7.4499  -45.4032 H         1 UNK         0.3000 
    185 H185        1.5704   -9.3601  -46.6333 H         1 UNK         0.0600 
    186 H186        3.8480   -9.5790  -47.6591 H         1 UNK         0.0600 
    187 H187        3.7658   -8.1191  -46.6870 H         1 UNK         0.0600 
    188 H188        4.5906   -9.5426  -46.0613 H         1 UNK         0.0600 
    189 H189        2.6009  -11.5382  -45.0331 H         1 UNK         0.3000 
    190 H190       -0.5397  -24.1561  -44.1381 H         1 UNK         0.3000 
    191 H191       -2.5158  -25.6406  -42.6580 H         1 UNK         0.0600 
    192 H192        0.4674  -26.1852  -43.1141 H         1 UNK         0.0600 
    193 H193       -0.2050  -25.2033  -41.8122 H         1 UNK         0.0600 
    194 H194       -0.5401  -26.9265  -41.8783 H         1 UNK         0.0600 
    195 H195       -1.2188  -25.9672  -45.8495 H         1 UNK         0.3000 
    196 H196       -2.2641  -28.7428  -46.1869 H         1 UNK         0.0600 
    197 H197        0.1681  -28.4585  -46.6888 H         1 UNK         0.0600 
    198 H198       -0.2053  -27.1692  -47.8282 H         1 UNK         0.0600 
    199 H199       -0.7387  -28.8175  -48.1471 H         1 UNK         0.0600 
    200 H200       -3.7174  -26.0265  -46.1262 H         1 UNK         0.3000 
    201 H201       -5.3961  -24.9773  -47.1130 H         1 UNK         0.0600 
    202 H202       -6.9617  -26.2655  -48.5231 H         1 UNK         0.0600 
    203 H203       -6.4115  -27.2577  -47.1826 H         1 UNK         0.0600 
    204 H204       -5.7565  -27.5136  -48.7991 H         1 UNK         0.0600 
    205 H205       -3.0609  -24.1000  -47.9420 H         1 UNK         0.3000 
    206 H206       -2.0009  -22.7713  -49.3608 H         1 UNK         0.0600 
    207 H207       -4.4854  -22.7592  -51.1512 H         1 UNK         0.0600 
    208 H208       -3.1410  -21.6292  -51.1982 H         1 UNK         0.0600 
    209 H209       -4.2040  -21.6614  -49.8030 H         1 UNK         0.0600 
    210 H210       -1.4217  -25.3526  -49.3265 H         1 UNK         0.3000 
    211 H211       -0.4597  -27.1160  -50.2789 H         1 UNK         0.0600 
    212 H212        1.2335  -25.4520  -50.9639 H         1 UNK         0.0600 
    213 H213        1.0927  -26.7065  -52.1836 H         1 UNK         0.0600 
    214 H214        0.3630  -25.1314  -52.4606 H         1 UNK         0.0600 
    215 H215       -2.9807  -27.4114  -50.4804 H         1 UNK         0.3000 
    216 H216       -4.7625  -28.2771  -51.4311 H         1 UNK         0.0600 
    217 H217       -4.4786  -30.0668  -53.1094 H         1 UNK         0.0600 
    218 H218       -2.8496  -29.5199  -53.4797 H         1 UNK         0.0600 
    219 H219       -3.2204  -30.1861  -51.8900 H         1 UNK         0.0600 
    220 H220       -4.6394  -25.7266  -51.9183 H         1 UNK         0.3000 
    221 H221       -5.2779  -23.9807  -53.0931 H         1 UNK         0.0600 
    222 H222       -6.9227  -25.9775  -54.7327 H         1 UNK         0.0600 
    223 H223       -7.3975  -25.2886  -53.1803 H         1 UNK         0.0600 
    224 H224       -7.2240  -24.2507  -54.5857 H         1 UNK         0.0600 
    225 H225       -2.7663  -24.6264  -53.7827 H         1 UNK         0.3000 
    226 H226       -2.3627  -24.6301  -56.6750 H         1 UNK         0.0600 
    227 H227       -0.6562  -25.5956  -55.1434 H         1 UNK         0.0600 
    228 H228        0.0159  -24.2491  -56.0478 H         1 UNK         0.0600 
    229 H229       -0.4426  -24.0265  -54.3647 H         1 UNK         0.0600 
    230 H230       -2.5804  -22.2557  -54.0533 H         1 UNK         0.3000 
    231 H231       -2.1208  -19.9318  -55.8057 H         1 UNK         0.0600 
    232 H232       -2.5329  -18.6342  -53.7719 H         1 UNK         0.0600 
    233 H233       -1.4199  -19.9291  -53.3642 H         1 UNK         0.0600 
    234 H234       -3.1198  -20.0449  -52.9066 H         1 UNK         0.0600 
    235 H235       -3.7622  -18.7632  -56.7418 H         1 UNK         0.3000 
    236 H236       -6.2895  -19.9126  -57.2118 H         1 UNK         0.0600 
    237 H237       -5.1494  -18.3757  -58.7903 H         1 UNK         0.0600 
    238 H238       -6.7421  -17.7532  -58.3924 H         1 UNK         0.0600 
    239 H239       -5.3155  -17.0377  -57.6519 H         1 UNK         0.0600 
    240 H240       -5.2709  -17.8035  -54.6404 H         1 UNK         0.3000 
    241 H241       -7.9301  -17.0319  -53.7645 H         1 UNK         0.0600 
    242 H242       -7.2267  -20.6226  -52.1176 H         1 UNK         0.3800 
    243 H243       -6.3466  -20.0963  -53.5294 H         1 UNK         0.3800 
    244 H244       -6.1261  -15.4818  -53.3544 H         1 UNK         0.0800 
    245 H245       -6.7571  -16.0201  -51.8319 H         1 UNK         0.0800 
    246 H246       -5.4920  -17.4588  -50.1306 H         1 UNK         0.0800 
    247 H247       -4.8680  -15.8249  -50.0817 H         1 UNK         0.0800 
@<TRIPOS>BOND
     1    1    2 1    
     2    1  127 1    
     3    1  128 1    
     4    1  129 1    
     5    2    3 2    
     6    2    4 am   BACKBONE|DICT|INTERRES
     7    4    5 1    
     8    4  130 1    
     9    5    6 1    
    10    5   65 1    
    11    5  131 1    
    12    6    7 1    
    13    6  132 1    
    14    6  133 1    
    15    7    8 1    
    16    8    9 1    
    17    8  134 1    
    18    8  135 1    
    19    9   10 ar   
    20    9   14 ar   
    21   10   11 ar   
    22   10  136 1    
    23   11   12 ar   
    24   11  126 1    
    25   12   13 ar   
    26   12  137 1    
    27   13   14 ar   
    28   13   15 1    
    29   14  138 1    
    30   15   16 1    
    31   15  139 1    
    32   15  140 1    
    33   16   17 1    
    34   17   18 1    
    35   17  141 1    
    36   17  142 1    
    37   18   19 1    
    38   18   67 1    
    39   18  143 1    
    40   19   20 am   BACKBONE|DICT|INTERRES
    41   19  144 1    
    42   20   21 2    
    43   20   22 1    
    44   22   23 1    
    45   22   24 1    
    46   22  145 1    
    47   23  146 1    
    48   23  147 1    
    49   23  148 1    
    50   24   25 am   BACKBONE|DICT|INTERRES
    51   24  149 1    
    52   25   26 2    
    53   25   27 1    
    54   27   28 1    
    55   27   29 1    
    56   27  150 1    
    57   28  151 1    
    58   28  152 1    
    59   28  153 1    
    60   29   30 am   BACKBONE|DICT|INTERRES
    61   29  154 1    
    62   30   31 2    
    63   30   32 1    
    64   32   33 1    
    65   32   34 1    
    66   32  155 1    
    67   33  156 1    
    68   33  157 1    
    69   33  158 1    
    70   34   35 am   BACKBONE|DICT|INTERRES
    71   34  159 1    
    72   35   36 2    
    73   35   37 1    
    74   37   38 1    
    75   37   39 1    
    76   37  160 1    
    77   38  161 1    
    78   38  162 1    
    79   38  163 1    
    80   39   40 am   BACKBONE|DICT|INTERRES
    81   39  164 1    
    82   40   41 2    
    83   40   42 1    
    84   42   43 1    
    85   42   44 1    
    86   42  165 1    
    87   43  166 1    
    88   43  167 1    
    89   43  168 1    
    90   44   45 am   BACKBONE|DICT|INTERRES
    91   44  169 1    
    92   45   46 2    
    93   45   47 1    
    94   47   48 1    
    95   47   49 1    
    96   47  170 1    
    97   48  171 1    
    98   48  172 1    
    99   48  173 1    
   100   49   50 am   BACKBONE|DICT|INTERRES
   101   49  174 1    
   102   50   51 2    
   103   50   52 1    
   104   52   53 1    
   105   52   54 1    
   106   52  175 1    
   107   53  176 1    
   108   53  177 1    
   109   53  178 1    
   110   54   55 am   BACKBONE|DICT|INTERRES
   111   54  179 1    
   112   55   56 2    
   113   55   57 1    
   114   57   58 1    
   115   57   59 1    
   116   57  180 1    
   117   58  181 1    
   118   58  182 1    
   119   58  183 1    
   120   59   60 am   BACKBONE|DICT|INTERRES
   121   59  184 1    
   122   60   61 2    
   123   60   62 1    
   124   62   63 1    
   125   62   64 1    
   126   62  185 1    
   127   63  186 1    
   128   63  187 1    
   129   63  188 1    
   130   64   65 am   BACKBONE|DICT|INTERRES
   131   64  189 1    
   132   65   66 2    
   133   67   68 2    
   134   67   69 am   BACKBONE|DICT|INTERRES
   135   69   70 1    
   136   69  190 1    
   137   70   71 1    
   138   70   72 1    
   139   70  191 1    
   140   71  192 1    
   141   71  193 1    
   142   71  194 1    
   143   72   73 2    
   144   72   74 am   BACKBONE|DICT|INTERRES
   145   74   75 1    
   146   74  195 1    
   147   75   76 1    
   148   75   77 1    
   149   75  196 1    
   150   76  197 1    
   151   76  198 1    
   152   76  199 1    
   153   77   78 2    
   154   77   79 am   BACKBONE|DICT|INTERRES
   155   79   80 1    
   156   79  200 1    
   157   80   81 1    
   158   80   82 1    
   159   80  201 1    
   160   81  202 1    
   161   81  203 1    
   162   81  204 1    
   163   82   83 2    
   164   82   84 am   BACKBONE|DICT|INTERRES
   165   84   85 1    
   166   84  205 1    
   167   85   86 1    
   168   85   87 1    
   169   85  206 1    
   170   86  207 1    
   171   86  208 1    
   172   86  209 1    
   173   87   88 2    
   174   87   89 am   BACKBONE|DICT|INTERRES
   175   89   90 1    
   176   89  210 1    
   177   90   91 1    
   178   90   92 1    
   179   90  211 1    
   180   91  212 1    
   181   91  213 1    
   182   91  214 1    
   183   92   93 2    
   184   92   94 am   BACKBONE|DICT|INTERRES
   185   94   95 1    
   186   94  215 1    
   187   95   96 1    
   188   95   97 1    
   189   95  216 1    
   190   96  217 1    
   191   96  218 1    
   192   96  219 1    
   193   97   98 2    
   194   97   99 am   BACKBONE|DICT|INTERRES
   195   99  100 1    
   196   99  220 1    
   197  100  101 1    
   198  100  102 1    
   199  100  221 1    
   200  101  222 1    
   201  101  223 1    
   202  101  224 1    
   203  102  103 2    
   204  102  104 am   BACKBONE|DICT|INTERRES
   205  104  105 1    
   206  104  225 1    
   207  105  106 1    
   208  105  107 1    
   209  105  226 1    
   210  106  227 1    
   211  106  228 1    
   212  106  229 1    
   213  107  108 2    
   214  107  109 am   BACKBONE|DICT|INTERRES
   215  109  110 1    
   216  109  230 1    
   217  110  111 1    
   218  110  112 1    
   219  110  231 1    
   220  111  232 1    
   221  111  233 1    
   222  111  234 1    
   223  112  113 2    
   224  112  114 am   BACKBONE|DICT|INTERRES
   225  114  115 1    
   226  114  235 1    
   227  115  116 1    
   228  115  117 1    
   229  115  236 1    
   230  116  237 1    
   231  116  238 1    
   232  116  239 1    
   233  117  118 2    
   234  117  119 am   BACKBONE|DICT|INTERRES
   235  119  120 1    
   236  119  240 1    
   237  120  121 1    
   238  120  124 1    
   239  120  241 1    
   240  121  122 am   BACKBONE|DICT|INTERRES
   241  121  123 2    
   242  122  242 1    
   243  122  243 1    
   244  124  125 1    
   245  124  244 1    
   246  124  245 1    
   247  125  126 1    
   248  126  246 1    
   249  126  247 1    
@<TRIPOS>SUBSTRUCTURE
     1 UNK         1 GROUP             0       ****    0 ROOT    
