@<TRIPOS>MOLECULE
3R540
247   249    1
SMALL
USER_CHARGES


@<TRIPOS>ATOM
      1 CA          4.0262   -9.6958  -47.9607 C.3       0 UNK        -0.1800 
      2 C           2.6198  -10.2376  -48.2148 C.2       0 UNK         0.5000 
      3 O           1.6515   -9.5047  -48.0224 O.2       0 UNK        -0.5000 
      4 N           2.4458  -11.4909  -48.6579 N.am      1 UNK        -0.5000 
      5 CA          3.4702  -12.5220  -48.8697 C.3       1 UNK         0.1400 
      6 C6          2.8878  -13.7636  -49.5902 C.3       23 UNK        -0.0398 
      7 S7          2.2453  -13.3793  -51.2592 S.3       23 UNK        -0.2404 
      8 C8          0.4370  -13.4828  -51.0409 C.3       23 UNK        -0.0205 
      9 C9         -0.0577  -14.9221  -50.9980 C.ar      23 UNK        -0.0193 
     10 C10        -0.4117  -15.5897  -52.1757 C.ar      23 UNK        -0.1150 
     11 C11        -0.8679  -16.9127  -52.1363 C.ar      23 UNK        -0.0193 
     12 C12        -0.9281  -17.5753  -50.9065 C.ar      23 UNK        -0.1150 
     13 C13        -0.6153  -16.9080  -49.7216 C.ar      23 UNK        -0.0193 
     14 C14        -0.1879  -15.5807  -49.7739 C.ar      23 UNK        -0.1150 
     15 C15        -0.7830  -17.6074  -48.3853 C.3       23 UNK        -0.0205 
     16 S16         0.7999  -18.2427  -47.7596 S.3       23 UNK        -0.2404 
     17 C17         0.2676  -18.8963  -46.1439 C.3       23 UNK        -0.0398 
     18 CA          0.0540  -20.4283  -46.1275 C.3       11 UNK         0.1400 
     19 N          -0.0625  -20.9273  -44.7570 N.am      11 UNK        -0.5000 
     20 C          -0.1650  -22.2155  -44.4026 C.2       10 UNK         0.5000 
     21 O          -0.1133  -23.1540  -45.1950 O.2       10 UNK        -0.5000 
     22 CA         -0.4240  -22.4976  -42.9144 C.3       10 UNK         0.1400 
     23 CB          0.8862  -22.4561  -42.1155 C.3       10 UNK        -0.1800 
     24 N          -1.3851  -21.5536  -42.3432 N.am      10 UNK        -0.5000 
     25 C          -2.6856  -21.5137  -42.6675 C.2       9 UNK         0.5000 
     26 O          -3.2188  -22.2874  -43.4630 O.2       9 UNK        -0.5000 
     27 CA         -3.5174  -20.3886  -42.0266 C.3       9 UNK         0.1400 
     28 CB         -3.9078  -20.7512  -40.5860 C.3       9 UNK        -0.1800 
     29 N          -2.8199  -19.1013  -42.0347 N.am      9 UNK        -0.5000 
     30 C          -2.5086  -18.4220  -43.1472 C.2       8 UNK         0.5000 
     31 O          -2.7846  -18.8055  -44.2836 O.2       8 UNK        -0.5000 
     32 CA         -1.7163  -17.1155  -42.9660 C.3       8 UNK         0.1400 
     33 CB         -2.6622  -15.9410  -42.6782 C.3       8 UNK        -0.1800 
     34 N          -0.6839  -17.1768  -41.9251 N.am      8 UNK        -0.5000 
     35 C           0.3377  -18.0428  -41.8947 C.2       7 UNK         0.5000 
     36 O           0.5153  -18.9154  -42.7464 O.2       7 UNK        -0.5000 
     37 CA          1.3032  -17.9251  -40.7062 C.3       7 UNK         0.1400 
     38 CB          1.6941  -19.3113  -40.1557 C.3       7 UNK        -0.1800 
     39 N           2.4965  -17.1789  -41.1008 N.am      7 UNK        -0.5000 
     40 C           3.3563  -16.6165  -40.2391 C.2       6 UNK         0.5000 
     41 O           3.2123  -16.6472  -39.0158 O.2       6 UNK        -0.5000 
     42 CA          4.5765  -15.8839  -40.8293 C.3       6 UNK         0.1400 
     43 CB          5.5601  -16.8628  -41.4906 C.3       6 UNK        -0.1800 
     44 N           4.1863  -14.8483  -41.7824 N.am      6 UNK        -0.5000 
     45 C           3.6113  -13.6834  -41.4485 C.2       5 UNK         0.5000 
     46 O           3.4395  -13.3111  -40.2871 O.2       5 UNK        -0.5000 
     47 CA          3.1135  -12.7962  -42.6076 C.3       5 UNK         0.1400 
     48 CB          4.2228  -11.8571  -43.1049 C.3       5 UNK        -0.1800 
     49 N           2.6021  -13.5854  -43.7278 N.am      5 UNK        -0.5000 
     50 C           1.5213  -14.3747  -43.6619 C.2       4 UNK         0.5000 
     51 O           0.7722  -14.4331  -42.6872 O.2       4 UNK        -0.5000 
     52 CA          1.2563  -15.2817  -44.8716 C.3       4 UNK         0.1400 
     53 CB          0.3574  -14.5793  -45.8955 C.3       4 UNK        -0.1800 
     54 N           2.4900  -15.7403  -45.5097 N.am      4 UNK        -0.5000 
     55 C           3.2860  -16.6874  -44.9939 C.2       3 UNK         0.5000 
     56 O           3.0445  -17.2764  -43.9413 O.2       3 UNK        -0.5000 
     57 CA          4.5896  -16.9990  -45.7521 C.3       3 UNK         0.1400 
     58 CB          4.3474  -18.0307  -46.8627 C.3       3 UNK        -0.1800 
     59 N           5.2070  -15.8037  -46.3264 N.am      3 UNK        -0.5000 
     60 C           5.7347  -14.8093  -45.6003 C.2       2 UNK         0.5000 
     61 O           5.7973  -14.8228  -44.3712 O.2       2 UNK        -0.5000 
     62 CA          6.2288  -13.5725  -46.3751 C.3       2 UNK         0.1400 
     63 CB          7.6953  -13.7508  -46.7946 C.3       2 UNK        -0.1800 
     64 N           5.4225  -13.2421  -47.5573 N.am      2 UNK        -0.5000 
     65 C           4.1173  -12.9389  -47.5313 C.2       1 UNK         0.5000 
     66 O           3.4283  -12.9925  -46.5102 O.2       1 UNK        -0.5000 
     67 C          -1.1484  -20.8624  -46.9935 C.2       11 UNK         0.5000 
     68 O          -0.9466  -21.4377  -48.0627 O.2       11 UNK        -0.5000 
     69 N          -2.3723  -20.6240  -46.4995 N.am      12 UNK        -0.5000 
     70 CA         -3.6181  -21.0058  -47.1668 C.3       12 UNK         0.1400 
     71 CB         -4.8131  -20.4167  -46.4041 C.3       12 UNK        -0.1800 
     72 C          -3.7708  -22.5291  -47.3302 C.2       12 UNK         0.5000 
     73 O          -4.2093  -22.9816  -48.3885 O.2       12 UNK        -0.5000 
     74 N          -3.3757  -23.2923  -46.3006 N.am      13 UNK        -0.5000 
     75 CA         -3.3577  -24.7557  -46.3160 C.3       13 UNK         0.1400 
     76 CB         -3.0978  -25.2842  -44.8975 C.3       13 UNK        -0.1800 
     77 C          -2.3329  -25.3333  -47.3102 C.2       13 UNK         0.5000 
     78 O          -2.6380  -26.3164  -47.9852 O.2       13 UNK        -0.5000 
     79 N          -1.1489  -24.7099  -47.3945 N.am      14 UNK        -0.5000 
     80 CA         -0.0921  -25.0594  -48.3443 C.3       14 UNK         0.1400 
     81 CB          1.2163  -24.3609  -47.9432 C.3       14 UNK        -0.1800 
     82 C          -0.4693  -24.7209  -49.7977 C.2       14 UNK         0.5000 
     83 O          -0.1637  -25.5043  -50.6977 O.2       14 UNK        -0.5000 
     84 N          -1.1337  -23.5735  -49.9968 N.am      15 UNK        -0.5000 
     85 CA         -1.6821  -23.1334  -51.2794 C.3       15 UNK         0.1400 
     86 CB         -2.1758  -21.6840  -51.1505 C.3       15 UNK        -0.1800 
     87 C          -2.8040  -24.0632  -51.7762 C.2       15 UNK         0.5000 
     88 O          -2.7453  -24.5315  -52.9143 O.2       15 UNK        -0.5000 
     89 N          -3.7698  -24.3397  -50.8866 N.am      16 UNK        -0.5000 
     90 CA         -4.9153  -25.2379  -51.0513 C.3       16 UNK         0.1400 
     91 CB         -4.4297  -26.6892  -51.2575 C.3       16 UNK        -0.1800 
     92 C          -5.9011  -24.7982  -52.1545 C.2       16 UNK         0.5000 
     93 O          -5.7204  -23.7602  -52.7979 O.2       16 UNK        -0.5000 
     94 N          -6.9483  -25.6094  -52.3599 N.am      17 UNK        -0.5000 
     95 CA         -8.0082  -25.3954  -53.3516 C.3       17 UNK         0.1400 
     96 CB         -9.0767  -26.4862  -53.1885 C.3       17 UNK        -0.1800 
     97 C          -7.5055  -25.3457  -54.8084 C.2       17 UNK         0.5000 
     98 O          -8.1370  -24.6959  -55.6413 O.2       17 UNK        -0.5000 
     99 N          -6.3515  -25.9738  -55.0766 N.am      18 UNK        -0.5000 
    100 CA        -5.6302  -25.9243  -56.3511 C.3       18 UNK         0.1400 
    101 CB        -4.4266  -26.8760  -56.2756 C.3       18 UNK        -0.1800 
    102 C         -5.1691  -24.5058  -56.7488 C.2       18 UNK         0.5000 
    103 O         -5.0599  -24.2215  -57.9420 O.2       18 UNK        -0.5000 
    104 N         -4.9373  -23.6421  -55.7514 N.am      19 UNK        -0.5000 
    105 CA        -4.6108  -22.2246  -55.9116 C.3       19 UNK         0.1400 
    106 CB        -3.3035  -21.9391  -55.1569 C.3       19 UNK        -0.1800 
    107 C         -5.7616  -21.3270  -55.4101 C.2       19 UNK         0.5000 
    108 O         -5.5389  -20.1450  -55.1467 O.2       19 UNK        -0.5000 
    109 N         -6.9661  -21.9035  -55.2638 N.am      20 UNK        -0.5000 
    110 CA        -8.2019  -21.2866  -54.7666 C.3       20 UNK         0.1400 
    111 CB        -8.7046  -20.2094  -55.7504 C.3       20 UNK        -0.1800 
    112 C         -8.1075  -20.7696  -53.3130 C.2       20 UNK         0.5000 
    113 O         -8.8651  -19.8730  -52.9380 O.2       20 UNK        -0.5000 
    114 N         -7.1917  -21.3525  -52.5224 N.am      21 UNK        -0.5000 
    115 CA        -6.8696  -21.0274  -51.1302 C.3       21 UNK         0.1400 
    116 CB        -7.9971  -21.5037  -50.1923 C.3       21 UNK        -0.1800 
    117 C         -6.4924  -19.5437  -50.9358 C.2       21 UNK         0.5000 
    118 O         -7.0403  -18.8736  -50.0576 O.2       21 UNK        -0.5000 
    119 N         -5.5791  -19.0575  -51.7879 N.am      22 UNK        -0.5000 
    120 CA        -5.0016  -17.7046  -51.7414 C.3       22 UNK         0.1400 
    121 C         -4.2968  -17.3490  -50.3981 C.2       22 UNK         0.5000 
    122 N         -4.1206  -16.0654  -50.1111 N.am      22 UNK        -0.7600 
    123 O         -3.9022  -18.2139  -49.6196 O.2       22 UNK        -0.5000 
    124 C124       -4.1044  -17.4188  -52.9802 C.3       23 UNK        -0.0398 
    125 S125       -2.7808  -18.6486  -53.2696 S.3       23 UNK        -0.2404 
    126 C126       -1.2786  -17.6175  -53.4259 C.3       23 UNK        -0.0205 
    127 H127        4.4005  -10.0428  -46.9975 H         1 UNK         0.0600 
    128 H128        4.0125   -8.6059  -47.9389 H         1 UNK         0.0600 
    129 H129        4.7252   -9.9955  -48.7404 H         1 UNK         0.0600 
    130 H130        1.4995  -11.8044  -48.8073 H         1 UNK         0.3000 
    131 H131        4.2467  -12.0993  -49.5095 H         1 UNK         0.0600 
    132 H132        3.6583  -14.5264  -49.7163 H         1 UNK         0.0800 
    133 H133        2.1106  -14.2248  -48.9828 H         1 UNK         0.0800 
    134 H134        0.1395  -12.9489  -50.1375 H         1 UNK         0.0800 
    135 H135       -0.0427  -12.9595  -51.8694 H         1 UNK         0.0800 
    136 H136       -0.3347  -15.0751  -53.1232 H         1 UNK         0.1150 
    137 H137       -1.2675  -18.6001  -50.8622 H         1 UNK         0.1150 
    138 H138        0.0429  -15.0585  -48.8599 H         1 UNK         0.1150 
    139 H139       -1.2260  -16.9200  -47.6646 H         1 UNK         0.0800 
    140 H140       -1.4884  -18.4326  -48.4864 H         1 UNK         0.0800 
    141 H141        1.0496  -18.6367  -45.4300 H         1 UNK         0.0800 
    142 H142       -0.6244  -18.3699  -45.8047 H         1 UNK         0.0800 
    143 H143        0.9453  -20.8953  -46.5520 H         1 UNK         0.0600 
    144 H144       -0.0575  -20.2262  -44.0207 H         1 UNK         0.3000 
    145 H145       -0.8432  -23.5022  -42.8283 H         1 UNK         0.0600 
    146 H146        0.7126  -22.6421  -41.0556 H         1 UNK         0.0600 
    147 H147        1.5802  -23.2185  -42.4712 H         1 UNK         0.0600 
    148 H148        1.3850  -21.4924  -42.2134 H         1 UNK         0.0600 
    149 H149       -1.0171  -20.8479  -41.7235 H         1 UNK         0.3000 
    150 H150       -4.4338  -20.2802  -42.6109 H         1 UNK         0.0600 
    151 H151       -4.4407  -21.7025  -40.5545 H         1 UNK         0.0600 
    152 H152       -4.5663  -19.9970  -40.1548 H         1 UNK         0.0600 
    153 H153       -3.0337  -20.8429  -39.9400 H         1 UNK         0.0600 
    154 H154       -2.5527  -18.7161  -41.1409 H         1 UNK         0.3000 
    155 H155       -1.2251  -16.9169  -43.9169 H         1 UNK         0.0600 
    156 H156       -2.1209  -14.9946  -42.6665 H         1 UNK         0.0600 
    157 H157       -3.1646  -16.0534  -41.7167 H         1 UNK         0.0600 
    158 H158       -3.4335  -15.8626  -43.4456 H         1 UNK         0.0600 
    159 H159       -0.7351  -16.4659  -41.2095 H         1 UNK         0.3000 
    160 H160        0.7904  -17.3772  -39.9128 H         1 UNK         0.0600 
    161 H161        2.3489  -19.8435  -40.8460 H         1 UNK         0.0600 
    162 H162        0.8138  -19.9322  -39.9851 H         1 UNK         0.0600 
    163 H163        2.2171  -19.2278  -39.2033 H         1 UNK         0.0600 
    164 H164        2.6769  -17.1332  -42.1028 H         1 UNK         0.3000 
    165 H165        5.1037  -15.4004  -40.0039 H         1 UNK         0.0600 
    166 H166        5.1164  -17.3805  -42.3400 H         1 UNK         0.0600 
    167 H167        6.4502  -16.3437  -41.8469 H         1 UNK         0.0600 
    168 H168        5.8884  -17.6225  -40.7804 H         1 UNK         0.0600 
    169 H169        4.3473  -15.0451  -42.7625 H         1 UNK         0.3000 
    170 H170        2.2932  -12.1824  -42.2298 H         1 UNK         0.0600 
    171 H171        3.8709  -11.2263  -43.9217 H         1 UNK         0.0600 
    172 H172        4.5599  -11.1975  -42.3044 H         1 UNK         0.0600 
    173 H173        5.0921  -12.4100  -43.4590 H         1 UNK         0.0600 
    174 H174        3.1159  -13.5392  -44.6016 H         1 UNK         0.3000 
    175 H175        0.7293  -16.1622  -44.5078 H         1 UNK         0.0600 
    176 H176        0.0627  -15.2728  -46.6775 H         1 UNK         0.0600 
    177 H177       -0.5577  -14.2139  -45.4277 H         1 UNK         0.0600 
    178 H178        0.8531  -13.7275  -46.3614 H         1 UNK         0.0600 
    179 H179        2.7878  -15.2434  -46.3361 H         1 UNK         0.3000 
    180 H180        5.2893  -17.4331  -45.0346 H         1 UNK         0.0600 
    181 H181        3.7309  -17.6222  -47.6637 H         1 UNK         0.0600 
    182 H182        3.8398  -18.9148  -46.4739 H         1 UNK         0.0600 
    183 H183        5.2879  -18.3631  -47.3020 H         1 UNK         0.0600 
    184 H184        5.2030  -15.7202  -47.3319 H         1 UNK         0.3000 
    185 H185        6.1736  -12.7207  -45.6943 H         1 UNK         0.0600 
    186 H186        8.0888  -12.8424  -47.2512 H         1 UNK         0.0600 
    187 H187        8.3237  -13.9768  -45.9319 H         1 UNK         0.0600 
    188 H188        7.8140  -14.5659  -47.5096 H         1 UNK         0.0600 
    189 H189        5.9234  -13.1875  -48.4329 H         1 UNK         0.3000 
    190 H190       -2.4665  -20.1207  -45.6209 H         1 UNK         0.3000 
    191 H191       -3.6056  -20.5666  -48.1664 H         1 UNK         0.0600 
    192 H192       -5.7541  -20.6785  -46.8898 H         1 UNK         0.0600 
    193 H193       -4.7573  -19.3284  -46.3706 H         1 UNK         0.0600 
    194 H194       -4.8555  -20.7823  -45.3774 H         1 UNK         0.0600 
    195 H195       -3.0707  -22.8427  -45.4437 H         1 UNK         0.3000 
    196 H196       -4.3472  -25.0974  -46.6270 H         1 UNK         0.0600 
    197 H197       -3.0982  -26.3747  -44.8804 H         1 UNK         0.0600 
    198 H198       -3.8691  -24.9478  -44.2045 H         1 UNK         0.0600 
    199 H199       -2.1340  -24.9496  -44.5133 H         1 UNK         0.0600 
    200 H200       -0.9471  -23.9480  -46.7531 H         1 UNK         0.3000 
    201 H201        0.0704  -26.1377  -48.2860 H         1 UNK         0.0600 
    202 H202        1.5341  -24.6642  -46.9456 H         1 UNK         0.0600 
    203 H203        1.1111  -23.2756  -47.9444 H         1 UNK         0.0600 
    204 H204        2.0224  -24.6144  -48.6327 H         1 UNK         0.0600 
    205 H205       -1.2699  -22.9485  -49.2068 H         1 UNK         0.3000 
    206 H206       -0.8770  -23.1539  -52.0167 H         1 UNK         0.0600 
    207 H207       -1.3599  -21.0142  -50.8795 H         1 UNK         0.0600 
    208 H208       -2.5889  -21.3275  -52.0919 H         1 UNK         0.0600 
    209 H209       -2.9543  -21.5814  -50.3947 H         1 UNK         0.0600 
    210 H210       -3.7401  -23.8587  -49.9908 H         1 UNK         0.3000 
    211 H211       -5.4614  -25.1933  -50.1080 H         1 UNK         0.0600 
    212 H212       -3.9800  -26.8320  -52.2406 H         1 UNK         0.0600 
    213 H213       -5.2481  -27.4034  -51.1646 H         1 UNK         0.0600 
    214 H214       -3.6847  -26.9629  -50.5101 H         1 UNK         0.0600 
    215 H215       -7.0366  -26.4392  -51.7913 H         1 UNK         0.3000 
    216 H216       -8.4697  -24.4294  -53.1359 H         1 UNK         0.0600 
    217 H217       -8.6654  -27.4814  -53.3623 H         1 UNK         0.0600 
    218 H218       -9.5081  -26.4701  -52.1874 H         1 UNK         0.0600 
    219 H219       -9.8951  -26.3411  -53.8951 H         1 UNK         0.0600 
    220 H220       -5.9013  -26.4756  -54.3257 H         1 UNK         0.3000 
    221 H221       -6.3055  -26.2820  -57.1310 H         1 UNK         0.0600 
    222 H222       -4.7436  -27.8996  -56.0756 H         1 UNK         0.0600 
    223 H223       -3.8759  -26.8856  -57.2173 H         1 UNK         0.0600 
    224 H224       -3.7295  -26.5793  -55.4904 H         1 UNK         0.0600 
    225 H225       -5.0558  -23.9537  -54.7928 H         1 UNK         0.3000 
    226 H226       -4.4551  -21.9812  -56.9641 H         1 UNK         0.0600 
    227 H227       -3.4358  -22.0707  -54.0840 H         1 UNK         0.0600 
    228 H228       -2.5040  -22.6058  -55.4803 H         1 UNK         0.0600 
    229 H229       -2.9637  -20.9173  -55.3276 H         1 UNK         0.0600 
    230 H230       -7.0524  -22.8809  -55.5161 H         1 UNK         0.3000 
    231 H231       -8.9464  -22.0836  -54.7484 H         1 UNK         0.0600 
    232 H232       -9.7005  -19.8602  -55.4753 H         1 UNK         0.0600 
    233 H233       -8.7704  -20.6022  -56.7650 H         1 UNK         0.0600 
    234 H234       -8.0475  -19.3395  -55.7687 H         1 UNK         0.0600 
    235 H235       -6.6321  -22.1048  -52.9156 H         1 UNK         0.3000 
    236 H236       -5.9752  -21.6012  -50.8806 H         1 UNK         0.0600 
    237 H237       -8.1984  -22.5662  -50.3294 H         1 UNK         0.0600 
    238 H238       -7.7216  -21.3583  -49.1470 H         1 UNK         0.0600 
    239 H239       -8.9260  -20.9600  -50.3670 H         1 UNK         0.0600 
    240 H240       -5.2010  -19.6658  -52.5003 H         1 UNK         0.3000 
    241 H241       -5.8552  -17.0275  -51.8085 H         1 UNK         0.0600 
    242 H242       -3.6553  -15.8244  -49.2517 H         1 UNK         0.3800 
    243 H243       -4.4342  -15.3323  -50.7267 H         1 UNK         0.3800 
    244 H244       -4.7295  -17.4097  -53.8742 H         1 UNK         0.0800 
    245 H245       -3.6717  -16.4189  -52.9212 H         1 UNK         0.0800 
    246 H246       -1.4365  -16.8936  -54.2267 H         1 UNK         0.0800 
    247 H247       -0.4534  -18.2552  -53.7446 H         1 UNK         0.0800 
@<TRIPOS>BOND
     1    1    2 1    
     2    1  127 1    
     3    1  128 1    
     4    1  129 1    
     5    2    3 2    
     6    2    4 am   BACKBONE|DICT|INTERRES
     7    4    5 1    
     8    4  130 1    
     9    5    6 1    
    10    5   65 1    
    11    5  131 1    
    12    6    7 1    
    13    6  132 1    
    14    6  133 1    
    15    7    8 1    
    16    8    9 1    
    17    8  134 1    
    18    8  135 1    
    19    9   10 ar   
    20    9   14 ar   
    21   10   11 ar   
    22   10  136 1    
    23   11   12 ar   
    24   11  126 1    
    25   12   13 ar   
    26   12  137 1    
    27   13   14 ar   
    28   13   15 1    
    29   14  138 1    
    30   15   16 1    
    31   15  139 1    
    32   15  140 1    
    33   16   17 1    
    34   17   18 1    
    35   17  141 1    
    36   17  142 1    
    37   18   19 1    
    38   18   67 1    
    39   18  143 1    
    40   19   20 am   BACKBONE|DICT|INTERRES
    41   19  144 1    
    42   20   21 2    
    43   20   22 1    
    44   22   23 1    
    45   22   24 1    
    46   22  145 1    
    47   23  146 1    
    48   23  147 1    
    49   23  148 1    
    50   24   25 am   BACKBONE|DICT|INTERRES
    51   24  149 1    
    52   25   26 2    
    53   25   27 1    
    54   27   28 1    
    55   27   29 1    
    56   27  150 1    
    57   28  151 1    
    58   28  152 1    
    59   28  153 1    
    60   29   30 am   BACKBONE|DICT|INTERRES
    61   29  154 1    
    62   30   31 2    
    63   30   32 1    
    64   32   33 1    
    65   32   34 1    
    66   32  155 1    
    67   33  156 1    
    68   33  157 1    
    69   33  158 1    
    70   34   35 am   BACKBONE|DICT|INTERRES
    71   34  159 1    
    72   35   36 2    
    73   35   37 1    
    74   37   38 1    
    75   37   39 1    
    76   37  160 1    
    77   38  161 1    
    78   38  162 1    
    79   38  163 1    
    80   39   40 am   BACKBONE|DICT|INTERRES
    81   39  164 1    
    82   40   41 2    
    83   40   42 1    
    84   42   43 1    
    85   42   44 1    
    86   42  165 1    
    87   43  166 1    
    88   43  167 1    
    89   43  168 1    
    90   44   45 am   BACKBONE|DICT|INTERRES
    91   44  169 1    
    92   45   46 2    
    93   45   47 1    
    94   47   48 1    
    95   47   49 1    
    96   47  170 1    
    97   48  171 1    
    98   48  172 1    
    99   48  173 1    
   100   49   50 am   BACKBONE|DICT|INTERRES
   101   49  174 1    
   102   50   51 2    
   103   50   52 1    
   104   52   53 1    
   105   52   54 1    
   106   52  175 1    
   107   53  176 1    
   108   53  177 1    
   109   53  178 1    
   110   54   55 am   BACKBONE|DICT|INTERRES
   111   54  179 1    
   112   55   56 2    
   113   55   57 1    
   114   57   58 1    
   115   57   59 1    
   116   57  180 1    
   117   58  181 1    
   118   58  182 1    
   119   58  183 1    
   120   59   60 am   BACKBONE|DICT|INTERRES
   121   59  184 1    
   122   60   61 2    
   123   60   62 1    
   124   62   63 1    
   125   62   64 1    
   126   62  185 1    
   127   63  186 1    
   128   63  187 1    
   129   63  188 1    
   130   64   65 am   BACKBONE|DICT|INTERRES
   131   64  189 1    
   132   65   66 2    
   133   67   68 2    
   134   67   69 am   BACKBONE|DICT|INTERRES
   135   69   70 1    
   136   69  190 1    
   137   70   71 1    
   138   70   72 1    
   139   70  191 1    
   140   71  192 1    
   141   71  193 1    
   142   71  194 1    
   143   72   73 2    
   144   72   74 am   BACKBONE|DICT|INTERRES
   145   74   75 1    
   146   74  195 1    
   147   75   76 1    
   148   75   77 1    
   149   75  196 1    
   150   76  197 1    
   151   76  198 1    
   152   76  199 1    
   153   77   78 2    
   154   77   79 am   BACKBONE|DICT|INTERRES
   155   79   80 1    
   156   79  200 1    
   157   80   81 1    
   158   80   82 1    
   159   80  201 1    
   160   81  202 1    
   161   81  203 1    
   162   81  204 1    
   163   82   83 2    
   164   82   84 am   BACKBONE|DICT|INTERRES
   165   84   85 1    
   166   84  205 1    
   167   85   86 1    
   168   85   87 1    
   169   85  206 1    
   170   86  207 1    
   171   86  208 1    
   172   86  209 1    
   173   87   88 2    
   174   87   89 am   BACKBONE|DICT|INTERRES
   175   89   90 1    
   176   89  210 1    
   177   90   91 1    
   178   90   92 1    
   179   90  211 1    
   180   91  212 1    
   181   91  213 1    
   182   91  214 1    
   183   92   93 2    
   184   92   94 am   BACKBONE|DICT|INTERRES
   185   94   95 1    
   186   94  215 1    
   187   95   96 1    
   188   95   97 1    
   189   95  216 1    
   190   96  217 1    
   191   96  218 1    
   192   96  219 1    
   193   97   98 2    
   194   97   99 am   BACKBONE|DICT|INTERRES
   195   99  100 1    
   196   99  220 1    
   197  100  101 1    
   198  100  102 1    
   199  100  221 1    
   200  101  222 1    
   201  101  223 1    
   202  101  224 1    
   203  102  103 2    
   204  102  104 am   BACKBONE|DICT|INTERRES
   205  104  105 1    
   206  104  225 1    
   207  105  106 1    
   208  105  107 1    
   209  105  226 1    
   210  106  227 1    
   211  106  228 1    
   212  106  229 1    
   213  107  108 2    
   214  107  109 am   BACKBONE|DICT|INTERRES
   215  109  110 1    
   216  109  230 1    
   217  110  111 1    
   218  110  112 1    
   219  110  231 1    
   220  111  232 1    
   221  111  233 1    
   222  111  234 1    
   223  112  113 2    
   224  112  114 am   BACKBONE|DICT|INTERRES
   225  114  115 1    
   226  114  235 1    
   227  115  116 1    
   228  115  117 1    
   229  115  236 1    
   230  116  237 1    
   231  116  238 1    
   232  116  239 1    
   233  117  118 2    
   234  117  119 am   BACKBONE|DICT|INTERRES
   235  119  120 1    
   236  119  240 1    
   237  120  121 1    
   238  120  124 1    
   239  120  241 1    
   240  121  122 am   BACKBONE|DICT|INTERRES
   241  121  123 2    
   242  122  242 1    
   243  122  243 1    
   244  124  125 1    
   245  124  244 1    
   246  124  245 1    
   247  125  126 1    
   248  126  246 1    
   249  126  247 1    
@<TRIPOS>SUBSTRUCTURE
     1 UNK         1 GROUP             0       ****    0 ROOT    
