@<TRIPOS>MOLECULE
3R540
247   249    1
SMALL
USER_CHARGES


@<TRIPOS>ATOM
      1 CA          4.1280  -15.8990  -46.5502 C.3       0 UNK        -0.1800 
      2 C           2.6653  -15.8354  -46.1421 C.2       0 UNK         0.5000 
      3 O           2.2318  -16.5824  -45.2638 O.2       0 UNK        -0.5000 
      4 N           1.9120  -14.9275  -46.7709 N.am      1 UNK        -0.5000 
      5 CA          0.5594  -14.5528  -46.3524 C.3       1 UNK         0.1400 
      6 C6         -0.3033  -14.0308  -47.5284 C.3       23 UNK        -0.0398 
      7 S7         -0.7967  -15.3857  -48.6416 S.3       23 UNK        -0.2404 
      8 C8          0.3709  -15.2255  -50.0328 C.3       23 UNK        -0.0205 
      9 C9          0.7651  -16.6064  -50.5298 C.ar      23 UNK        -0.0193 
     10 C10        -0.1437  -17.3745  -51.2622 C.ar      23 UNK        -0.1150 
     11 C11         0.1425  -18.7052  -51.5815 C.ar      23 UNK        -0.0193 
     12 C12         1.3699  -19.2511  -51.1950 C.ar      23 UNK        -0.1150 
     13 C13         2.3084  -18.4780  -50.5042 C.ar      23 UNK        -0.0193 
     14 C14         2.0051  -17.1503  -50.1873 C.ar      23 UNK        -0.1150 
     15 C15         3.6277  -19.1003  -50.0623 C.3       23 UNK        -0.0205 
     16 S16         3.9617  -18.9369  -48.2726 S.3       23 UNK        -0.2404 
     17 C17         2.3414  -19.2766  -47.4950 C.3       23 UNK        -0.0398 
     18 CA          1.8856  -20.7388  -47.6865 C.3       11 UNK         0.1400 
     19 N           2.7962  -21.6742  -47.0239 N.am      11 UNK        -0.5000 
     20 C           3.1656  -22.8658  -47.5089 C.2       10 UNK         0.5000 
     21 O           2.7393  -23.3349  -48.5639 O.2       10 UNK        -0.5000 
     22 CA          4.1807  -23.6733  -46.6746 C.3       10 UNK         0.1400 
     23 CB          5.5974  -23.4921  -47.2407 C.3       10 UNK        -0.1800 
     24 N           4.1886  -23.3044  -45.2568 N.am      10 UNK        -0.5000 
     25 C           3.1939  -23.5630  -44.3970 C.2       9 UNK         0.5000 
     26 O           2.1774  -24.1860  -44.7003 O.2       9 UNK        -0.5000 
     27 CA          3.3387  -22.9876  -42.9753 C.3       9 UNK         0.1400 
     28 CB          4.0126  -24.0091  -42.0471 C.3       9 UNK        -0.1800 
     29 N           4.0813  -21.7228  -42.9232 N.am      9 UNK        -0.5000 
     30 C           3.6777  -20.5812  -43.4952 C.2       8 UNK         0.5000 
     31 O           2.6608  -20.4851  -44.1880 O.2       8 UNK        -0.5000 
     32 CA          4.5745  -19.3514  -43.2945 C.3       8 UNK         0.1400 
     33 CB          5.4452  -19.1201  -44.5372 C.3       8 UNK        -0.1800 
     34 N           3.7071  -18.1974  -43.0866 N.am      8 UNK        -0.5000 
     35 C           3.4962  -17.6051  -41.9048 C.2       7 UNK         0.5000 
     36 O           4.1935  -17.7897  -40.9064 O.2       7 UNK        -0.5000 
     37 CA          2.2502  -16.7050  -41.8033 C.3       7 UNK         0.1400 
     38 CB          2.5743  -15.2476  -42.1596 C.3       7 UNK        -0.1800 
     39 N           1.1543  -17.2021  -42.6431 N.am      7 UNK        -0.5000 
     40 C           0.4313  -18.2895  -42.3339 C.2       6 UNK         0.5000 
     41 O           0.5585  -18.8958  -41.2683 O.2       6 UNK        -0.5000 
     42 CA         -0.6182  -18.7571  -43.3589 C.3       6 UNK         0.1400 
     43 CB         -1.5943  -19.7921  -42.7510 C.3       6 UNK        -0.1800 
     44 N          -1.3507  -17.6049  -43.8848 N.am      6 UNK        -0.5000 
     45 C          -2.1657  -17.6274  -44.9489 C.2       5 UNK         0.5000 
     46 O          -2.3505  -18.6309  -45.6363 O.2       5 UNK        -0.5000 
     47 CA         -2.9307  -16.3281  -45.2728 C.3       5 UNK         0.1400 
     48 CB         -4.3282  -16.5859  -45.8660 C.3       5 UNK        -0.1800 
     49 N          -3.0588  -15.4857  -44.0834 N.am      5 UNK        -0.5000 
     50 C          -3.0229  -14.1491  -44.0727 C.2       4 UNK         0.5000 
     51 O          -2.9224  -13.4628  -45.0915 O.2       4 UNK        -0.5000 
     52 CA         -3.1151  -13.4573  -42.7004 C.3       4 UNK         0.1400 
     53 CB         -2.9007  -14.4007  -41.4972 C.3       4 UNK        -0.1800 
     54 N          -2.1273  -12.3839  -42.6391 N.am      4 UNK        -0.5000 
     55 C          -2.3604  -11.1434  -42.1924 C.2       3 UNK         0.5000 
     56 O          -3.4620  -10.7641  -41.7910 O.2       3 UNK        -0.5000 
     57 CA         -1.1757  -10.1540  -42.1531 C.3       3 UNK         0.1400 
     58 CB         -0.8332   -9.7812  -40.7010 C.3       3 UNK        -0.1800 
     59 N           0.0381  -10.6601  -42.7953 N.am      3 UNK        -0.5000 
     60 C           0.2734  -10.6530  -44.1125 C.2       2 UNK         0.5000 
     61 O          -0.5114  -10.1931  -44.9435 O.2       2 UNK        -0.5000 
     62 CA          1.6030  -11.2719  -44.5967 C.3       2 UNK         0.1400 
     63 CB          2.5759  -11.6655  -43.4622 C.3       2 UNK        -0.1800 
     64 N           1.3723  -12.4112  -45.4888 N.am      2 UNK        -0.5000 
     65 C           0.6606  -13.5173  -45.2174 C.2       1 UNK         0.5000 
     66 O           0.1402  -13.7536  -44.1260 O.2       1 UNK        -0.5000 
     67 C           0.4247  -20.9270  -47.2346 C.2       11 UNK         0.5000 
     68 O          -0.4592  -20.2769  -47.7931 O.2       11 UNK        -0.5000 
     69 N           0.1727  -21.8450  -46.2864 N.am      12 UNK        -0.5000 
     70 CA         -1.1499  -22.1733  -45.7404 C.3       12 UNK         0.1400 
     71 CB         -0.9850  -23.1496  -44.5675 C.3       12 UNK        -0.1800 
     72 C          -2.1660  -22.7133  -46.7694 C.2       12 UNK         0.5000 
     73 O          -3.3555  -22.7860  -46.4627 O.2       12 UNK        -0.5000 
     74 N          -1.7023  -23.0235  -47.9884 N.am      13 UNK        -0.5000 
     75 CA         -2.5217  -23.2605  -49.1755 C.3       13 UNK         0.1400 
     76 CB         -1.6009  -23.5636  -50.3664 C.3       13 UNK        -0.1800 
     77 C          -3.4630  -22.0846  -49.5116 C.2       13 UNK         0.5000 
     78 O          -4.5559  -22.3229  -50.0240 O.2       13 UNK        -0.5000 
     79 N          -3.0561  -20.8466  -49.1875 N.am      14 UNK        -0.5000 
     80 CA         -3.9003  -19.6594  -49.3153 C.3       14 UNK         0.1400 
     81 CB         -3.0581  -18.3909  -49.1385 C.3       14 UNK        -0.1800 
     82 C          -5.0910  -19.6846  -48.3406 C.2       14 UNK         0.5000 
     83 O          -6.2255  -19.4781  -48.7715 O.2       14 UNK        -0.5000 
     84 N          -4.8267  -19.9990  -47.0633 N.am      15 UNK        -0.5000 
     85 CA         -5.8445  -20.1843  -46.0225 C.3       15 UNK         0.1400 
     86 CB         -5.1678  -20.3394  -44.6517 C.3       15 UNK        -0.1800 
     87 C          -6.7842  -21.3743  -46.3006 C.2       15 UNK         0.5000 
     88 O          -7.9688  -21.3042  -45.9724 O.2       15 UNK        -0.5000 
     89 N          -6.2504  -22.4237  -46.9401 N.am      16 UNK        -0.5000 
     90 CA         -6.9923  -23.5913  -47.4225 C.3       16 UNK         0.1400 
     91 CB         -6.0005  -24.7373  -47.6765 C.3       16 UNK        -0.1800 
     92 C          -7.8390  -23.3184  -48.6869 C.2       16 UNK         0.5000 
     93 O          -8.5646  -24.2151  -49.1187 O.2       16 UNK        -0.5000 
     94 N          -7.7332  -22.1083  -49.2582 N.am      17 UNK        -0.5000 
     95 CA         -8.4217  -21.6189  -50.4567 C.3       17 UNK         0.1400 
     96 CB         -9.9525  -21.6036  -50.2606 C.3       17 UNK        -0.1800 
     97 C          -7.9796  -22.3282  -51.7543 C.2       17 UNK         0.5000 
     98 O          -8.7626  -22.4284  -52.7001 O.2       17 UNK        -0.5000 
     99 N          -6.7141  -22.7638  -51.7967 N.am      18 UNK        -0.5000 
    100 CA        -6.0463  -23.3430  -52.9639 C.3       18 UNK         0.1400 
    101 CB        -5.2587  -24.5879  -52.5200 C.3       18 UNK        -0.1800 
    102 C         -5.1345  -22.3078  -53.6553 C.2       18 UNK         0.5000 
    103 O         -4.2351  -22.6882  -54.4069 O.2       18 UNK        -0.5000 
    104 N         -5.3808  -21.0127  -53.4040 N.am      19 UNK        -0.5000 
    105 CA        -4.6018  -19.8572  -53.8649 C.3       19 UNK         0.1400 
    106 CB        -5.2001  -18.5827  -53.2485 C.3       19 UNK        -0.1800 
    107 C         -4.4794  -19.7011  -55.3952 C.2       19 UNK         0.5000 
    108 O         -3.6142  -18.9587  -55.8589 O.2       19 UNK        -0.5000 
    109 N         -5.3294  -20.4042  -56.1545 N.am      20 UNK        -0.5000 
    110 CA        -5.2532  -20.5116  -57.6113 C.3       20 UNK         0.1400 
    111 CB        -6.5509  -21.1517  -58.1282 C.3       20 UNK        -0.1800 
    112 C         -4.0265  -21.3106  -58.1015 C.2       20 UNK         0.5000 
    113 O         -3.6079  -21.1156  -59.2437 O.2       20 UNK        -0.5000 
    114 N         -3.4826  -22.1899  -57.2477 N.am      21 UNK        -0.5000 
    115 CA        -2.3235  -23.0337  -57.5412 C.3       21 UNK         0.1400 
    116 CB        -2.7793  -24.5003  -57.6090 C.3       21 UNK        -0.1800 
    117 C         -1.2032  -22.8697  -56.5002 C.2       21 UNK         0.5000 
    118 O         -0.0309  -22.9393  -56.8707 O.2       21 UNK        -0.5000 
    119 N         -1.5728  -22.6757  -55.2260 N.am      22 UNK        -0.5000 
    120 CA        -0.6754  -22.6086  -54.0572 C.3       22 UNK         0.1400 
    121 C          0.0588  -23.9468  -53.7290 C.2       22 UNK         0.5000 
    122 N         -0.4250  -25.0940  -54.1903 N.am      22 UNK        -0.7600 
    123 O          1.0610  -23.9576  -53.0202 O.2       22 UNK        -0.5000 
    124 C124        0.2808  -21.3798  -54.0676 C.3       23 UNK        -0.0398 
    125 S125       -0.6141  -19.7898  -54.0444 S.3       23 UNK        -0.2404 
    126 C126       -0.9134  -19.5662  -52.2613 C.3       23 UNK        -0.0205 
    127 H127        4.2355  -15.8469  -47.6336 H         1 UNK         0.0600 
    128 H128        4.5832  -16.8262  -46.2075 H         1 UNK         0.0600 
    129 H129        4.6776  -15.0698  -46.1053 H         1 UNK         0.0600 
    130 H130        2.3306  -14.3616  -47.4937 H         1 UNK         0.3000 
    131 H131        0.0600  -15.4299  -45.9355 H         1 UNK         0.0600 
    132 H132        0.2088  -13.2477  -48.0892 H         1 UNK         0.0800 
    133 H133       -1.2244  -13.5793  -47.1562 H         1 UNK         0.0800 
    134 H134       -0.0944  -14.6541  -50.8371 H         1 UNK         0.0800 
    135 H135        1.2568  -14.6691  -49.7249 H         1 UNK         0.0800 
    136 H136       -1.1042  -16.9525  -51.5231 H         1 UNK         0.1150 
    137 H137        1.5881  -20.2864  -51.4087 H         1 UNK         0.1150 
    138 H138        2.7125  -16.5628  -49.6197 H         1 UNK         0.1150 
    139 H139        3.6583  -20.1602  -50.3197 H         1 UNK         0.0800 
    140 H140        4.4416  -18.6301  -50.6151 H         1 UNK         0.0800 
    141 H141        2.4213  -19.0442  -46.4326 H         1 UNK         0.0800 
    142 H142        1.6042  -18.5744  -47.8864 H         1 UNK         0.0800 
    143 H143        1.8819  -20.9453  -48.7579 H         1 UNK         0.0600 
    144 H144        3.1508  -21.3760  -46.1242 H         1 UNK         0.3000 
    145 H145        3.9099  -24.7283  -46.7542 H         1 UNK         0.0600 
    146 H146        6.3196  -24.1069  -46.7033 H         1 UNK         0.0600 
    147 H147        5.6393  -23.7864  -48.2903 H         1 UNK         0.0600 
    148 H148        5.9256  -22.4536  -47.1782 H         1 UNK         0.0600 
    149 H149        4.9902  -22.7893  -44.9239 H         1 UNK         0.3000 
    150 H150        2.3315  -22.7967  -42.5983 H         1 UNK         0.0600 
    151 H151        4.0380  -23.6508  -41.0178 H         1 UNK         0.0600 
    152 H152        5.0372  -24.2199  -42.3559 H         1 UNK         0.0600 
    153 H153        3.4687  -24.9547  -42.0467 H         1 UNK         0.0600 
    154 H154        4.9330  -21.7260  -42.3802 H         1 UNK         0.3000 
    155 H155        5.2262  -19.5114  -42.4332 H         1 UNK         0.0600 
    156 H156        6.1426  -19.9455  -44.6848 H         1 UNK         0.0600 
    157 H157        6.0341  -18.2077  -44.4428 H         1 UNK         0.0600 
    158 H158        4.8414  -19.0383  -45.4401 H         1 UNK         0.0600 
    159 H159        3.0658  -17.9869  -43.8432 H         1 UNK         0.3000 
    160 H160        1.9195  -16.7188  -40.7624 H         1 UNK         0.0600 
    161 H161        1.6954  -14.6163  -42.0330 H         1 UNK         0.0600 
    162 H162        2.9220  -15.1405  -43.1862 H         1 UNK         0.0600 
    163 H163        3.3548  -14.8523  -41.5086 H         1 UNK         0.0600 
    164 H164        1.0897  -16.8026  -43.5736 H         1 UNK         0.3000 
    165 H165       -0.0735  -19.2280  -44.1805 H         1 UNK         0.0600 
    166 H166       -2.1372  -19.3756  -41.9020 H         1 UNK         0.0600 
    167 H167       -2.3321  -20.1385  -43.4719 H         1 UNK         0.0600 
    168 H168       -1.0588  -20.6747  -42.3994 H         1 UNK         0.0600 
    169 H169       -1.2103  -16.7351  -43.3901 H         1 UNK         0.3000 
    170 H170       -2.3349  -15.8090  -46.0243 H         1 UNK         0.0600 
    171 H171       -4.2667  -17.1695  -46.7829 H         1 UNK         0.0600 
    172 H172       -4.9662  -17.1291  -45.1689 H         1 UNK         0.0600 
    173 H173       -4.8280  -15.6505  -46.1176 H         1 UNK         0.0600 
    174 H174       -3.1807  -15.9743  -43.2074 H         1 UNK         0.3000 
    175 H175       -4.1250  -13.0474  -42.6391 H         1 UNK         0.0600 
    176 H176       -1.9235  -14.8847  -41.5319 H         1 UNK         0.0600 
    177 H177       -2.9598  -13.8500  -40.5580 H         1 UNK         0.0600 
    178 H178       -3.6651  -15.1773  -41.4538 H         1 UNK         0.0600 
    179 H179       -1.2179  -12.6113  -43.0285 H         1 UNK         0.3000 
    180 H180       -1.4954   -9.2460  -42.6689 H         1 UNK         0.0600 
    181 H181       -0.5134  -10.6520  -40.1273 H         1 UNK         0.0600 
    182 H182       -1.6965   -9.3515  -40.1912 H         1 UNK         0.0600 
    183 H183       -0.0346   -9.0401  -40.6614 H         1 UNK         0.0600 
    184 H184        0.7268  -11.0783  -42.1868 H         1 UNK         0.3000 
    185 H185        2.0936  -10.5038  -45.1963 H         1 UNK         0.0600 
    186 H186        3.5029  -12.0704  -43.8683 H         1 UNK         0.0600 
    187 H187        2.8446  -10.7995  -42.8560 H         1 UNK         0.0600 
    188 H188        2.1537  -12.4189  -42.7985 H         1 UNK         0.0600 
    189 H189        1.7561  -12.3066  -46.4162 H         1 UNK         0.3000 
    190 H190        0.9542  -22.3547  -45.8976 H         1 UNK         0.3000 
    191 H191       -1.5715  -21.2452  -45.3546 H         1 UNK         0.0600 
    192 H192       -0.3144  -22.7463  -43.8084 H         1 UNK         0.0600 
    193 H193       -0.5819  -24.1073  -44.8983 H         1 UNK         0.0600 
    194 H194       -1.9428  -23.3451  -44.0835 H         1 UNK         0.0600 
    195 H195       -0.7084  -22.9415  -48.1400 H         1 UNK         0.3000 
    196 H196       -3.1363  -24.1407  -48.9843 H         1 UNK         0.0600 
    197 H197       -2.1796  -23.7567  -51.2700 H         1 UNK         0.0600 
    198 H198       -0.9916  -24.4481  -50.1797 H         1 UNK         0.0600 
    199 H199       -0.9264  -22.7328  -50.5766 H         1 UNK         0.0600 
    200 H200       -2.1515  -20.7156  -48.7424 H         1 UNK         0.3000 
    201 H201       -4.3048  -19.6516  -50.3281 H         1 UNK         0.0600 
    202 H202       -3.6704  -17.4924  -49.2227 H         1 UNK         0.0600 
    203 H203       -2.2866  -18.3296  -49.9001 H         1 UNK         0.0600 
    204 H204       -2.5576  -18.3643  -48.1722 H         1 UNK         0.0600 
    205 H205       -3.8631  -20.1223  -46.7808 H         1 UNK         0.3000 
    206 H206       -6.4593  -19.2824  -45.9959 H         1 UNK         0.0600 
    207 H207       -4.6108  -19.4437  -44.3816 H         1 UNK         0.0600 
    208 H208       -5.9071  -20.5047  -43.8671 H         1 UNK         0.0600 
    209 H209       -4.4771  -21.1825  -44.6334 H         1 UNK         0.0600 
    210 H210       -5.2470  -22.4267  -47.0933 H         1 UNK         0.3000 
    211 H211       -7.6786  -23.9064  -46.6340 H         1 UNK         0.0600 
    212 H212       -5.3594  -24.5258  -48.5309 H         1 UNK         0.0600 
    213 H213       -6.5269  -25.6684  -47.8892 H         1 UNK         0.0600 
    214 H214       -5.3635  -24.9146  -46.8096 H         1 UNK         0.0600 
    215 H215       -7.0938  -21.4443  -48.8380 H         1 UNK         0.3000 
    216 H216       -8.1051  -20.5813  -50.5700 H         1 UNK         0.0600 
    217 H217      -10.4455  -21.0762  -51.0780 H         1 UNK         0.0600 
    218 H218      -10.2262  -21.0941  -49.3366 H         1 UNK         0.0600 
    219 H219      -10.3695  -22.6102  -50.2262 H         1 UNK         0.0600 
    220 H220       -6.1113  -22.6096  -50.9898 H         1 UNK         0.3000 
    221 H221       -6.7839  -23.6605  -53.7031 H         1 UNK         0.0600 
    222 H222       -4.7987  -25.0892  -53.3725 H         1 UNK         0.0600 
    223 H223       -4.4636  -24.3345  -51.8197 H         1 UNK         0.0600 
    224 H224       -5.9122  -25.3121  -52.0334 H         1 UNK         0.0600 
    225 H225       -6.1504  -20.8067  -52.7858 H         1 UNK         0.3000 
    226 H226       -3.5908  -19.9864  -53.4799 H         1 UNK         0.0600 
    227 H227       -5.2372  -18.6390  -52.1618 H         1 UNK         0.0600 
    228 H228       -4.6025  -17.7067  -53.5046 H         1 UNK         0.0600 
    229 H229       -6.2144  -18.4039  -53.6074 H         1 UNK         0.0600 
    230 H230       -6.0197  -20.9761  -55.6914 H         1 UNK         0.3000 
    231 H231       -5.1786  -19.5040  -58.0257 H         1 UNK         0.0600 
    232 H232       -6.5452  -21.2220  -59.2167 H         1 UNK         0.0600 
    233 H233       -7.4225  -20.5602  -57.8470 H         1 UNK         0.0600 
    234 H234       -6.6866  -22.1600  -57.7349 H         1 UNK         0.0600 
    235 H235       -3.8817  -22.2760  -56.3194 H         1 UNK         0.3000 
    236 H236       -1.8929  -22.7692  -58.5092 H         1 UNK         0.0600 
    237 H237       -3.5077  -24.6474  -58.4066 H         1 UNK         0.0600 
    238 H238       -1.9378  -25.1642  -57.8111 H         1 UNK         0.0600 
    239 H239       -3.2388  -24.8229  -56.6737 H         1 UNK         0.0600 
    240 H240       -2.5639  -22.6655  -54.9968 H         1 UNK         0.3000 
    241 H241       -1.3465  -22.4742  -53.2093 H         1 UNK         0.0600 
    242 H242       -1.2551  -25.1114  -54.7596 H         1 UNK         0.3800 
    243 H243        0.0486  -25.9550  -53.9666 H         1 UNK         0.3800 
    244 H244        0.9546  -21.4024  -53.2127 H         1 UNK         0.0800 
    245 H245        0.9253  -21.4019  -54.9466 H         1 UNK         0.0800 
    246 H246       -1.8930  -19.1034  -52.1402 H         1 UNK         0.0800 
    247 H247       -0.9816  -20.5318  -51.7596 H         1 UNK         0.0800 
@<TRIPOS>BOND
     1    1    2 1    
     2    1  127 1    
     3    1  128 1    
     4    1  129 1    
     5    2    3 2    
     6    2    4 am   BACKBONE|DICT|INTERRES
     7    4    5 1    
     8    4  130 1    
     9    5    6 1    
    10    5   65 1    
    11    5  131 1    
    12    6    7 1    
    13    6  132 1    
    14    6  133 1    
    15    7    8 1    
    16    8    9 1    
    17    8  134 1    
    18    8  135 1    
    19    9   10 ar   
    20    9   14 ar   
    21   10   11 ar   
    22   10  136 1    
    23   11   12 ar   
    24   11  126 1    
    25   12   13 ar   
    26   12  137 1    
    27   13   14 ar   
    28   13   15 1    
    29   14  138 1    
    30   15   16 1    
    31   15  139 1    
    32   15  140 1    
    33   16   17 1    
    34   17   18 1    
    35   17  141 1    
    36   17  142 1    
    37   18   19 1    
    38   18   67 1    
    39   18  143 1    
    40   19   20 am   BACKBONE|DICT|INTERRES
    41   19  144 1    
    42   20   21 2    
    43   20   22 1    
    44   22   23 1    
    45   22   24 1    
    46   22  145 1    
    47   23  146 1    
    48   23  147 1    
    49   23  148 1    
    50   24   25 am   BACKBONE|DICT|INTERRES
    51   24  149 1    
    52   25   26 2    
    53   25   27 1    
    54   27   28 1    
    55   27   29 1    
    56   27  150 1    
    57   28  151 1    
    58   28  152 1    
    59   28  153 1    
    60   29   30 am   BACKBONE|DICT|INTERRES
    61   29  154 1    
    62   30   31 2    
    63   30   32 1    
    64   32   33 1    
    65   32   34 1    
    66   32  155 1    
    67   33  156 1    
    68   33  157 1    
    69   33  158 1    
    70   34   35 am   BACKBONE|DICT|INTERRES
    71   34  159 1    
    72   35   36 2    
    73   35   37 1    
    74   37   38 1    
    75   37   39 1    
    76   37  160 1    
    77   38  161 1    
    78   38  162 1    
    79   38  163 1    
    80   39   40 am   BACKBONE|DICT|INTERRES
    81   39  164 1    
    82   40   41 2    
    83   40   42 1    
    84   42   43 1    
    85   42   44 1    
    86   42  165 1    
    87   43  166 1    
    88   43  167 1    
    89   43  168 1    
    90   44   45 am   BACKBONE|DICT|INTERRES
    91   44  169 1    
    92   45   46 2    
    93   45   47 1    
    94   47   48 1    
    95   47   49 1    
    96   47  170 1    
    97   48  171 1    
    98   48  172 1    
    99   48  173 1    
   100   49   50 am   BACKBONE|DICT|INTERRES
   101   49  174 1    
   102   50   51 2    
   103   50   52 1    
   104   52   53 1    
   105   52   54 1    
   106   52  175 1    
   107   53  176 1    
   108   53  177 1    
   109   53  178 1    
   110   54   55 am   BACKBONE|DICT|INTERRES
   111   54  179 1    
   112   55   56 2    
   113   55   57 1    
   114   57   58 1    
   115   57   59 1    
   116   57  180 1    
   117   58  181 1    
   118   58  182 1    
   119   58  183 1    
   120   59   60 am   BACKBONE|DICT|INTERRES
   121   59  184 1    
   122   60   61 2    
   123   60   62 1    
   124   62   63 1    
   125   62   64 1    
   126   62  185 1    
   127   63  186 1    
   128   63  187 1    
   129   63  188 1    
   130   64   65 am   BACKBONE|DICT|INTERRES
   131   64  189 1    
   132   65   66 2    
   133   67   68 2    
   134   67   69 am   BACKBONE|DICT|INTERRES
   135   69   70 1    
   136   69  190 1    
   137   70   71 1    
   138   70   72 1    
   139   70  191 1    
   140   71  192 1    
   141   71  193 1    
   142   71  194 1    
   143   72   73 2    
   144   72   74 am   BACKBONE|DICT|INTERRES
   145   74   75 1    
   146   74  195 1    
   147   75   76 1    
   148   75   77 1    
   149   75  196 1    
   150   76  197 1    
   151   76  198 1    
   152   76  199 1    
   153   77   78 2    
   154   77   79 am   BACKBONE|DICT|INTERRES
   155   79   80 1    
   156   79  200 1    
   157   80   81 1    
   158   80   82 1    
   159   80  201 1    
   160   81  202 1    
   161   81  203 1    
   162   81  204 1    
   163   82   83 2    
   164   82   84 am   BACKBONE|DICT|INTERRES
   165   84   85 1    
   166   84  205 1    
   167   85   86 1    
   168   85   87 1    
   169   85  206 1    
   170   86  207 1    
   171   86  208 1    
   172   86  209 1    
   173   87   88 2    
   174   87   89 am   BACKBONE|DICT|INTERRES
   175   89   90 1    
   176   89  210 1    
   177   90   91 1    
   178   90   92 1    
   179   90  211 1    
   180   91  212 1    
   181   91  213 1    
   182   91  214 1    
   183   92   93 2    
   184   92   94 am   BACKBONE|DICT|INTERRES
   185   94   95 1    
   186   94  215 1    
   187   95   96 1    
   188   95   97 1    
   189   95  216 1    
   190   96  217 1    
   191   96  218 1    
   192   96  219 1    
   193   97   98 2    
   194   97   99 am   BACKBONE|DICT|INTERRES
   195   99  100 1    
   196   99  220 1    
   197  100  101 1    
   198  100  102 1    
   199  100  221 1    
   200  101  222 1    
   201  101  223 1    
   202  101  224 1    
   203  102  103 2    
   204  102  104 am   BACKBONE|DICT|INTERRES
   205  104  105 1    
   206  104  225 1    
   207  105  106 1    
   208  105  107 1    
   209  105  226 1    
   210  106  227 1    
   211  106  228 1    
   212  106  229 1    
   213  107  108 2    
   214  107  109 am   BACKBONE|DICT|INTERRES
   215  109  110 1    
   216  109  230 1    
   217  110  111 1    
   218  110  112 1    
   219  110  231 1    
   220  111  232 1    
   221  111  233 1    
   222  111  234 1    
   223  112  113 2    
   224  112  114 am   BACKBONE|DICT|INTERRES
   225  114  115 1    
   226  114  235 1    
   227  115  116 1    
   228  115  117 1    
   229  115  236 1    
   230  116  237 1    
   231  116  238 1    
   232  116  239 1    
   233  117  118 2    
   234  117  119 am   BACKBONE|DICT|INTERRES
   235  119  120 1    
   236  119  240 1    
   237  120  121 1    
   238  120  124 1    
   239  120  241 1    
   240  121  122 am   BACKBONE|DICT|INTERRES
   241  121  123 2    
   242  122  242 1    
   243  122  243 1    
   244  124  125 1    
   245  124  244 1    
   246  124  245 1    
   247  125  126 1    
   248  126  246 1    
   249  126  247 1    
@<TRIPOS>SUBSTRUCTURE
     1 UNK         1 GROUP             0       ****    0 ROOT    
