@<TRIPOS>MOLECULE
3R540
247   249    1
SMALL
USER_CHARGES


@<TRIPOS>ATOM
      1 CA         -5.3364  -18.5359  -47.1450 C.3       0 UNK        -0.1800 
      2 C          -4.5983  -17.2690  -47.5555 C.2       0 UNK         0.5000 
      3 O          -5.0432  -16.5678  -48.4638 O.2       0 UNK        -0.5000 
      4 N          -3.4646  -16.9851  -46.9017 N.am      1 UNK        -0.5000 
      5 CA         -2.6448  -15.7881  -47.1251 C.3       1 UNK         0.1400 
      6 C6         -1.2310  -15.9276  -46.5047 C.3       23 UNK        -0.0398 
      7 S7         -0.2972  -17.3023  -47.2572 S.3       23 UNK        -0.2404 
      8 C8          0.6347  -16.4278  -48.5633 C.3       23 UNK        -0.0205 
      9 C9          1.1482  -17.3681  -49.6505 C.ar      23 UNK        -0.0193 
     10 C10         0.9133  -17.0913  -51.0012 C.ar      23 UNK        -0.1150 
     11 C11         1.3833  -17.9520  -52.0007 C.ar      23 UNK        -0.0193 
     12 C12         2.0822  -19.1090  -51.6363 C.ar      23 UNK        -0.1150 
     13 C13         2.3154  -19.4034  -50.2915 C.ar      23 UNK        -0.0193 
     14 C14         1.8643  -18.5170  -49.3121 C.ar      23 UNK        -0.1150 
     15 C15         3.0569  -20.6716  -49.8870 C.3       23 UNK        -0.0205 
     16 S16         1.9618  -22.1283  -49.7787 S.3       23 UNK        -0.2404 
     17 C17         0.6258  -21.5289  -48.6923 C.3       23 UNK        -0.0398 
     18 CA         -0.1537  -22.6714  -48.0027 C.3       11 UNK         0.1400 
     19 N           0.6176  -23.3220  -46.9371 N.am      11 UNK        -0.5000 
     20 C           0.2517  -24.4543  -46.3186 C.2       10 UNK         0.5000 
     21 O          -0.7755  -25.0790  -46.5835 O.2       10 UNK        -0.5000 
     22 CA          1.1629  -24.9428  -45.1779 C.3       10 UNK         0.1400 
     23 CB          2.4759  -25.5181  -45.7305 C.3       10 UNK        -0.1800 
     24 N           1.4598  -23.8923  -44.2024 N.am      10 UNK        -0.5000 
     25 C           0.5427  -23.2916  -43.4305 C.2       9 UNK         0.5000 
     26 O          -0.6543  -23.5673  -43.4519 O.2       9 UNK        -0.5000 
     27 CA          1.0293  -22.1624  -42.5049 C.3       9 UNK         0.1400 
     28 CB          1.4908  -22.7325  -41.1558 C.3       9 UNK        -0.1800 
     29 N           2.0978  -21.3379  -43.0704 N.am      9 UNK        -0.5000 
     30 C           2.0499  -20.6815  -44.2361 C.2       8 UNK         0.5000 
     31 O           1.1009  -20.7408  -45.0227 O.2       8 UNK        -0.5000 
     32 CA          3.2738  -19.8035  -44.5473 C.3       8 UNK         0.1400 
     33 CB          3.2421  -19.2327  -45.9688 C.3       8 UNK        -0.1800 
     34 N           3.3663  -18.6866  -43.6139 N.am      8 UNK        -0.5000 
     35 C           3.9254  -18.7162  -42.3997 C.2       7 UNK         0.5000 
     36 O           4.3737  -19.7473  -41.8944 O.2       7 UNK        -0.5000 
     37 CA          3.9730  -17.3896  -41.6076 C.3       7 UNK         0.1400 
     38 CB          5.3571  -17.1510  -40.9710 C.3       7 UNK        -0.1800 
     39 N           3.5366  -16.1984  -42.3530 N.am      7 UNK        -0.5000 
     40 C           4.0973  -15.6422  -43.4418 C.2       6 UNK         0.5000 
     41 O           5.0778  -16.1045  -44.0246 O.2       6 UNK        -0.5000 
     42 CA          3.4432  -14.3523  -43.9810 C.3       6 UNK         0.1400 
     43 CB          2.4161  -14.6941  -45.0737 C.3       6 UNK        -0.1800 
     44 N           2.7835  -13.5650  -42.9381 N.am      6 UNK        -0.5000 
     45 C           3.4105  -12.9864  -41.9017 C.2       5 UNK         0.5000 
     46 O           4.6361  -12.9336  -41.7927 O.2       5 UNK        -0.5000 
     47 CA          2.5320  -12.3902  -40.7814 C.3       5 UNK         0.1400 
     48 CB          2.5280  -10.8557  -40.8630 C.3       5 UNK        -0.1800 
     49 N           1.1438  -12.8600  -40.7797 N.am      5 UNK        -0.5000 
     50 C           0.7237  -14.1272  -40.6435 C.2       4 UNK         0.5000 
     51 O           1.4785  -15.0853  -40.4749 O.2       4 UNK        -0.5000 
     52 CA         -0.7942  -14.3667  -40.7719 C.3       4 UNK         0.1400 
     53 CB         -1.4346  -14.5127  -39.3835 C.3       4 UNK        -0.1800 
     54 N          -1.4845  -13.3029  -41.5102 N.am      4 UNK        -0.5000 
     55 C          -1.3254  -13.0559  -42.8169 C.2       3 UNK         0.5000 
     56 O          -0.6010  -13.7227  -43.5620 O.2       3 UNK        -0.5000 
     57 CA         -2.0510  -11.8229  -43.3658 C.3       3 UNK         0.1400 
     58 CB         -1.1835  -10.5620  -43.2076 C.3       3 UNK        -0.1800 
     59 N          -2.3386  -12.0510  -44.7742 N.am      3 UNK        -0.5000 
     60 C          -3.3879  -11.5599  -45.4408 C.2       2 UNK         0.5000 
     61 O          -4.1895  -10.7586  -44.9581 O.2       2 UNK        -0.5000 
     62 CA         -3.5925  -12.0534  -46.8879 C.3       2 UNK         0.1400 
     63 CB         -3.0383  -11.0250  -47.8863 C.3       2 UNK        -0.1800 
     64 N          -2.9989  -13.3640  -47.1791 N.am      2 UNK        -0.5000 
     65 C          -3.3553  -14.5210  -46.6022 C.2       1 UNK         0.5000 
     66 O          -4.1870  -14.6053  -45.6945 O.2       1 UNK        -0.5000 
     67 C          -1.5055  -22.1419  -47.4897 C.2       11 UNK         0.5000 
     68 O          -2.4941  -22.2125  -48.2219 O.2       11 UNK        -0.5000 
     69 N          -1.5270  -21.6351  -46.2493 N.am      12 UNK        -0.5000 
     70 CA         -2.7335  -21.1537  -45.5843 C.3       12 UNK         0.1400 
     71 CB         -2.3492  -20.3590  -44.3280 C.3       12 UNK        -0.1800 
     72 C          -3.7172  -22.2914  -45.2532 C.2       12 UNK         0.5000 
     73 O          -4.9024  -22.1664  -45.5596 O.2       12 UNK        -0.5000 
     74 N          -3.2120  -23.3874  -44.6672 N.am      13 UNK        -0.5000 
     75 CA         -3.9952  -24.5662  -44.2852 C.3       13 UNK         0.1400 
     76 CB         -3.1505  -25.4875  -43.3924 C.3       13 UNK        -0.1800 
     77 C          -4.5410  -25.3464  -45.4925 C.2       13 UNK         0.5000 
     78 O          -5.6818  -25.8085  -45.4490 O.2       13 UNK        -0.5000 
     79 N          -3.7336  -25.4573  -46.5569 N.am      14 UNK        -0.5000 
     80 CA         -4.1319  -26.0622  -47.8306 C.3       14 UNK         0.1400 
     81 CB         -2.8703  -26.3655  -48.6546 C.3       14 UNK        -0.1800 
     82 C          -5.0918  -25.1756  -48.6485 C.2       14 UNK         0.5000 
     83 O          -5.7241  -25.6756  -49.5791 O.2       14 UNK        -0.5000 
     84 N          -5.1455  -23.8770  -48.3129 N.am      15 UNK        -0.5000 
     85 CA         -5.8398  -22.7910  -49.0120 C.3       15 UNK         0.1400 
     86 CB         -7.3667  -23.0043  -49.0100 C.3       15 UNK        -0.1800 
     87 C          -5.2752  -22.5261  -50.4234 C.2       15 UNK         0.5000 
     88 O          -5.9523  -21.9184  -51.2526 O.2       15 UNK        -0.5000 
     89 N          -4.0253  -22.9473  -50.6627 N.am      16 UNK        -0.5000 
     90 CA         -3.2989  -22.7941  -51.9222 C.3       16 UNK         0.1400 
     91 CB         -1.9696  -23.5580  -51.8351 C.3       16 UNK        -0.1800 
     92 C          -3.0508  -21.3207  -52.2752 C.2       16 UNK         0.5000 
     93 O          -3.1316  -20.9519  -53.4457 O.2       16 UNK        -0.5000 
     94 N          -2.8084  -20.5037  -51.2433 N.am      17 UNK        -0.5000 
     95 CA         -2.6480  -19.0563  -51.3466 C.3       17 UNK         0.1400 
     96 CB         -2.1470  -18.5313  -49.9986 C.3       17 UNK        -0.1800 
     97 C          -3.9427  -18.3333  -51.7642 C.2       17 UNK         0.5000 
     98 O          -3.8771  -17.3545  -52.5076 O.2       17 UNK        -0.5000 
     99 N          -5.0929  -18.8401  -51.2979 N.am      18 UNK        -0.5000 
    100 CA        -6.4188  -18.3162  -51.6266 C.3       18 UNK         0.1400 
    101 CB        -7.4209  -18.7389  -50.5411 C.3       18 UNK        -0.1800 
    102 C         -6.8870  -18.7842  -53.0152 C.2       18 UNK         0.5000 
    103 O         -7.4687  -17.9965  -53.7615 O.2       18 UNK        -0.5000 
    104 N         -6.6075  -20.0535  -53.3413 N.am      19 UNK        -0.5000 
    105 CA        -6.9311  -20.6884  -54.6200 C.3       19 UNK         0.1400 
    106 CB        -6.8092  -22.2115  -54.4514 C.3       19 UNK        -0.1800 
    107 C         -6.0492  -20.2168  -55.7935 C.2       19 UNK         0.5000 
    108 O         -6.4091  -20.4647  -56.9449 O.2       19 UNK        -0.5000 
    109 N         -4.9086  -19.5818  -55.4824 N.am      20 UNK        -0.5000 
    110 CA        -3.8233  -19.2020  -56.3938 C.3       20 UNK         0.1400 
    111 CB        -4.2893  -18.1555  -57.4273 C.3       20 UNK        -0.1800 
    112 C         -3.1519  -20.4402  -57.0262 C.2       20 UNK         0.5000 
    113 O         -2.8241  -20.4450  -58.2137 O.2       20 UNK        -0.5000 
    114 N         -2.9564  -21.4679  -56.1931 N.am      21 UNK        -0.5000 
    115 CA        -2.3092  -22.7417  -56.5032 C.3       21 UNK         0.1400 
    116 CB        -3.2590  -23.8826  -56.0961 C.3       21 UNK        -0.1800 
    117 C         -0.9451  -22.8304  -55.7879 C.2       21 UNK         0.5000 
    118 O         -0.5211  -23.9171  -55.3922 O.2       21 UNK        -0.5000 
    119 N         -0.3087  -21.6666  -55.6106 N.am      22 UNK        -0.5000 
    120 CA         0.9780  -21.4245  -54.9458 C.3       22 UNK         0.1400 
    121 C          2.1367  -22.3130  -55.4801 C.2       22 UNK         0.5000 
    122 N          2.9458  -22.8869  -54.5999 N.am      22 UNK        -0.7600 
    123 O          2.3358  -22.4443  -56.6860 O.2       22 UNK        -0.5000 
    124 C124        1.3620  -19.9288  -55.0729 C.3       23 UNK        -0.0398 
    125 S125        0.1147  -18.8094  -54.3398 S.3       23 UNK        -0.2404 
    126 C126        1.1635  -17.6016  -53.4675 C.3       23 UNK        -0.0205 
    127 H127       -6.4102  -18.3521  -47.1098 H         1 UNK         0.0600 
    128 H128       -5.0259  -18.8810  -46.1588 H         1 UNK         0.0600 
    129 H129       -5.1488  -19.3317  -47.8659 H         1 UNK         0.0600 
    130 H130       -3.1525  -17.5896  -46.1572 H         1 UNK         0.3000 
    131 H131       -2.5282  -15.6694  -48.2046 H         1 UNK         0.0600 
    132 H132       -0.6531  -15.0088  -46.6196 H         1 UNK         0.0800 
    133 H133       -1.2990  -16.1048  -45.4297 H         1 UNK         0.0800 
    134 H134        1.4795  -15.9054  -48.1129 H         1 UNK         0.0800 
    135 H135       -0.0066  -15.6642  -49.0055 H         1 UNK         0.0800 
    136 H136        0.3692  -16.1986  -51.2758 H         1 UNK         0.1150 
    137 H137        2.4467  -19.7863  -52.3927 H         1 UNK         0.1150 
    138 H138        2.0456  -18.7336  -48.2746 H         1 UNK         0.1150 
    139 H139        3.5609  -20.5284  -48.9314 H         1 UNK         0.0800 
    140 H140        3.8459  -20.8799  -50.6110 H         1 UNK         0.0800 
    141 H141       -0.0355  -20.9325  -49.3231 H         1 UNK         0.0800 
    142 H142        1.0326  -20.8502  -47.9414 H         1 UNK         0.0800 
    143 H143       -0.3823  -23.4314  -48.7530 H         1 UNK         0.0600 
    144 H144        1.4506  -22.8442  -46.6271 H         1 UNK         0.3000 
    145 H145        0.6357  -25.7440  -44.6554 H         1 UNK         0.0600 
    146 H146        2.2800  -26.3083  -46.4567 H         1 UNK         0.0600 
    147 H147        3.0806  -25.9531  -44.9346 H         1 UNK         0.0600 
    148 H148        3.0759  -24.7557  -46.2289 H         1 UNK         0.0600 
    149 H149        2.4212  -23.5960  -44.1241 H         1 UNK         0.3000 
    150 H150        0.1787  -21.5038  -42.3204 H         1 UNK         0.0600 
    151 H151        2.3694  -23.3691  -41.2674 H         1 UNK         0.0600 
    152 H152        0.7051  -23.3334  -40.6957 H         1 UNK         0.0600 
    153 H153        1.7408  -21.9353  -40.4553 H         1 UNK         0.0600 
    154 H154        2.9109  -21.1846  -42.4847 H         1 UNK         0.3000 
    155 H155        4.1642  -20.4295  -44.4581 H         1 UNK         0.0600 
    156 H156        4.1539  -18.6798  -46.1955 H         1 UNK         0.0600 
    157 H157        2.3973  -18.5555  -46.0993 H         1 UNK         0.0600 
    158 H158        3.1538  -20.0347  -46.7005 H         1 UNK         0.0600 
    159 H159        2.9976  -17.8049  -43.9359 H         1 UNK         0.3000 
    160 H160        3.2553  -17.5058  -40.7944 H         1 UNK         0.0600 
    161 H161        6.1432  -17.0838  -41.7235 H         1 UNK         0.0600 
    162 H162        5.6233  -17.9630  -40.2934 H         1 UNK         0.0600 
    163 H163        5.3689  -16.2287  -40.3900 H         1 UNK         0.0600 
    164 H164        2.7403  -15.7229  -41.9400 H         1 UNK         0.3000 
    165 H165        4.2302  -13.7387  -44.4241 H         1 UNK         0.0600 
    166 H166        1.9906  -13.7914  -45.5124 H         1 UNK         0.0600 
    167 H167        2.8780  -15.2618  -45.8826 H         1 UNK         0.0600 
    168 H168        1.5929  -15.2931  -44.6814 H         1 UNK         0.0600 
    169 H169        1.7726  -13.5475  -42.9603 H         1 UNK         0.3000 
    170 H170        2.9802  -12.6846  -39.8304 H         1 UNK         0.0600 
    171 H171        1.9867  -10.4164  -40.0249 H         1 UNK         0.0600 
    172 H172        2.0638  -10.5039  -41.7854 H         1 UNK         0.0600 
    173 H173        3.5437  -10.4585  -40.8344 H         1 UNK         0.0600 
    174 H174        0.4390  -12.1509  -40.9132 H         1 UNK         0.3000 
    175 H175       -0.9330  -15.3040  -41.3150 H         1 UNK         0.0600 
    176 H176       -0.9607  -15.3157  -38.8171 H         1 UNK         0.0600 
    177 H177       -1.3397  -13.5976  -38.7975 H         1 UNK         0.0600 
    178 H178       -2.4948  -14.7544  -39.4613 H         1 UNK         0.0600 
    179 H179       -2.0962  -12.7082  -40.9692 H         1 UNK         0.3000 
    180 H180       -2.9861  -11.6978  -42.8152 H         1 UNK         0.0600 
    181 H181       -0.2336  -10.6592  -43.7353 H         1 UNK         0.0600 
    182 H182       -0.9596  -10.3672  -42.1582 H         1 UNK         0.0600 
    183 H183       -1.6934   -9.6810  -43.5979 H         1 UNK         0.0600 
    184 H184       -1.7417  -12.7367  -45.2174 H         1 UNK         0.3000 
    185 H185       -4.6693  -12.1376  -47.0491 H         1 UNK         0.0600 
    186 H186       -3.2627  -11.3104  -48.9142 H         1 UNK         0.0600 
    187 H187       -3.4803  -10.0414  -47.7210 H         1 UNK         0.0600 
    188 H188       -1.9567  -10.9178  -47.7941 H         1 UNK         0.0600 
    189 H189       -2.3069  -13.3767  -47.9144 H         1 UNK         0.3000 
    190 H190       -0.6562  -21.5626  -45.7331 H         1 UNK         0.3000 
    191 H191       -3.2348  -20.4707  -46.2719 H         1 UNK         0.0600 
    192 H192       -1.6880  -19.5277  -44.5749 H         1 UNK         0.0600 
    193 H193       -3.2334  -19.9421  -43.8444 H         1 UNK         0.0600 
    194 H194       -1.8387  -20.9849  -43.5964 H         1 UNK         0.0600 
    195 H195       -2.2263  -23.4068  -44.4139 H         1 UNK         0.3000 
    196 H196       -4.8510  -24.2226  -43.7004 H         1 UNK         0.0600 
    197 H197       -3.7171  -26.3695  -43.0911 H         1 UNK         0.0600 
    198 H198       -2.8392  -24.9757  -42.4817 H         1 UNK         0.0600 
    199 H199       -2.2527  -25.8324  -43.9073 H         1 UNK         0.0600 
    200 H200       -2.7817  -25.1071  -46.4972 H         1 UNK         0.3000 
    201 H201       -4.6434  -27.0049  -47.6255 H         1 UNK         0.0600 
    202 H202       -3.1238  -26.8501  -49.5983 H         1 UNK         0.0600 
    203 H203       -2.1995  -27.0354  -48.1163 H         1 UNK         0.0600 
    204 H204       -2.3164  -25.4560  -48.8910 H         1 UNK         0.0600 
    205 H205       -4.5791  -23.5796  -47.5294 H         1 UNK         0.3000 
    206 H206       -5.6342  -21.8887  -48.4347 H         1 UNK         0.0600 
    207 H207       -7.7355  -23.1964  -48.0024 H         1 UNK         0.0600 
    208 H208       -7.8855  -22.1198  -49.3810 H         1 UNK         0.0600 
    209 H209       -7.6615  -23.8419  -49.6424 H         1 UNK         0.0600 
    210 H210       -3.5147  -23.3455  -49.8862 H         1 UNK         0.3000 
    211 H211       -3.9046  -23.2347  -52.7157 H         1 UNK         0.0600 
    212 H212       -1.3297  -23.1658  -51.0439 H         1 UNK         0.0600 
    213 H213       -1.4143  -23.4831  -52.7704 H         1 UNK         0.0600 
    214 H214       -2.1350  -24.6177  -51.6400 H         1 UNK         0.0600 
    215 H215       -2.7708  -20.9055  -50.3165 H         1 UNK         0.3000 
    216 H216       -1.8887  -18.8462  -52.1019 H         1 UNK         0.0600 
    217 H217       -2.0646  -17.4439  -50.0023 H         1 UNK         0.0600 
    218 H218       -1.1615  -18.9321  -49.7705 H         1 UNK         0.0600 
    219 H219       -2.8113  -18.8142  -49.1834 H         1 UNK         0.0600 
    220 H220       -5.0627  -19.6787  -50.7388 H         1 UNK         0.3000 
    221 H221       -6.3741  -17.2249  -51.6353 H         1 UNK         0.0600 
    222 H222       -7.4997  -19.8230  -50.4586 H         1 UNK         0.0600 
    223 H223       -7.1314  -18.3474  -49.5664 H         1 UNK         0.0600 
    224 H224       -8.4175  -18.3540  -50.7607 H         1 UNK         0.0600 
    225 H225       -6.1926  -20.6563  -52.6352 H         1 UNK         0.3000 
    226 H226       -7.9672  -20.4510  -54.8697 H         1 UNK         0.0600 
    227 H227       -7.0848  -22.7326  -55.3691 H         1 UNK         0.0600 
    228 H228       -5.7891  -22.5051  -54.2011 H         1 UNK         0.0600 
    229 H229       -7.4658  -22.5757  -53.6610 H         1 UNK         0.0600 
    230 H230       -4.6990  -19.4793  -54.4985 H         1 UNK         0.3000 
    231 H231       -3.0612  -18.7296  -55.7719 H         1 UNK         0.0600 
    232 H232       -4.9990  -18.5731  -58.1417 H         1 UNK         0.0600 
    233 H233       -3.4434  -17.7707  -57.9977 H         1 UNK         0.0600 
    234 H234       -4.7649  -17.3050  -56.9388 H         1 UNK         0.0600 
    235 H235       -3.1801  -21.3225  -55.2092 H         1 UNK         0.3000 
    236 H236       -2.1172  -22.8206  -57.5749 H         1 UNK         0.0600 
    237 H237       -3.4337  -23.8945  -55.0202 H         1 UNK         0.0600 
    238 H238       -4.2258  -23.7844  -56.5904 H         1 UNK         0.0600 
    239 H239       -2.8496  -24.8541  -56.3753 H         1 UNK         0.0600 
    240 H240       -0.7662  -20.8384  -55.9594 H         1 UNK         0.3000 
    241 H241        0.8318  -21.6534  -53.8883 H         1 UNK         0.0600 
    242 H242        3.7100  -23.4522  -54.9362 H         1 UNK         0.3800 
    243 H243        2.8022  -22.7938  -53.6064 H         1 UNK         0.3800 
    244 H244        1.4788  -19.6561  -56.1234 H         1 UNK         0.0800 
    245 H245        2.3343  -19.7470  -54.6145 H         1 UNK         0.0800 
    246 H246        2.1269  -17.4999  -53.9685 H         1 UNK         0.0800 
    247 H247        0.6834  -16.6255  -53.5514 H         1 UNK         0.0800 
@<TRIPOS>BOND
     1    1    2 1    
     2    1  127 1    
     3    1  128 1    
     4    1  129 1    
     5    2    3 2    
     6    2    4 am   BACKBONE|DICT|INTERRES
     7    4    5 1    
     8    4  130 1    
     9    5    6 1    
    10    5   65 1    
    11    5  131 1    
    12    6    7 1    
    13    6  132 1    
    14    6  133 1    
    15    7    8 1    
    16    8    9 1    
    17    8  134 1    
    18    8  135 1    
    19    9   10 ar   
    20    9   14 ar   
    21   10   11 ar   
    22   10  136 1    
    23   11   12 ar   
    24   11  126 1    
    25   12   13 ar   
    26   12  137 1    
    27   13   14 ar   
    28   13   15 1    
    29   14  138 1    
    30   15   16 1    
    31   15  139 1    
    32   15  140 1    
    33   16   17 1    
    34   17   18 1    
    35   17  141 1    
    36   17  142 1    
    37   18   19 1    
    38   18   67 1    
    39   18  143 1    
    40   19   20 am   BACKBONE|DICT|INTERRES
    41   19  144 1    
    42   20   21 2    
    43   20   22 1    
    44   22   23 1    
    45   22   24 1    
    46   22  145 1    
    47   23  146 1    
    48   23  147 1    
    49   23  148 1    
    50   24   25 am   BACKBONE|DICT|INTERRES
    51   24  149 1    
    52   25   26 2    
    53   25   27 1    
    54   27   28 1    
    55   27   29 1    
    56   27  150 1    
    57   28  151 1    
    58   28  152 1    
    59   28  153 1    
    60   29   30 am   BACKBONE|DICT|INTERRES
    61   29  154 1    
    62   30   31 2    
    63   30   32 1    
    64   32   33 1    
    65   32   34 1    
    66   32  155 1    
    67   33  156 1    
    68   33  157 1    
    69   33  158 1    
    70   34   35 am   BACKBONE|DICT|INTERRES
    71   34  159 1    
    72   35   36 2    
    73   35   37 1    
    74   37   38 1    
    75   37   39 1    
    76   37  160 1    
    77   38  161 1    
    78   38  162 1    
    79   38  163 1    
    80   39   40 am   BACKBONE|DICT|INTERRES
    81   39  164 1    
    82   40   41 2    
    83   40   42 1    
    84   42   43 1    
    85   42   44 1    
    86   42  165 1    
    87   43  166 1    
    88   43  167 1    
    89   43  168 1    
    90   44   45 am   BACKBONE|DICT|INTERRES
    91   44  169 1    
    92   45   46 2    
    93   45   47 1    
    94   47   48 1    
    95   47   49 1    
    96   47  170 1    
    97   48  171 1    
    98   48  172 1    
    99   48  173 1    
   100   49   50 am   BACKBONE|DICT|INTERRES
   101   49  174 1    
   102   50   51 2    
   103   50   52 1    
   104   52   53 1    
   105   52   54 1    
   106   52  175 1    
   107   53  176 1    
   108   53  177 1    
   109   53  178 1    
   110   54   55 am   BACKBONE|DICT|INTERRES
   111   54  179 1    
   112   55   56 2    
   113   55   57 1    
   114   57   58 1    
   115   57   59 1    
   116   57  180 1    
   117   58  181 1    
   118   58  182 1    
   119   58  183 1    
   120   59   60 am   BACKBONE|DICT|INTERRES
   121   59  184 1    
   122   60   61 2    
   123   60   62 1    
   124   62   63 1    
   125   62   64 1    
   126   62  185 1    
   127   63  186 1    
   128   63  187 1    
   129   63  188 1    
   130   64   65 am   BACKBONE|DICT|INTERRES
   131   64  189 1    
   132   65   66 2    
   133   67   68 2    
   134   67   69 am   BACKBONE|DICT|INTERRES
   135   69   70 1    
   136   69  190 1    
   137   70   71 1    
   138   70   72 1    
   139   70  191 1    
   140   71  192 1    
   141   71  193 1    
   142   71  194 1    
   143   72   73 2    
   144   72   74 am   BACKBONE|DICT|INTERRES
   145   74   75 1    
   146   74  195 1    
   147   75   76 1    
   148   75   77 1    
   149   75  196 1    
   150   76  197 1    
   151   76  198 1    
   152   76  199 1    
   153   77   78 2    
   154   77   79 am   BACKBONE|DICT|INTERRES
   155   79   80 1    
   156   79  200 1    
   157   80   81 1    
   158   80   82 1    
   159   80  201 1    
   160   81  202 1    
   161   81  203 1    
   162   81  204 1    
   163   82   83 2    
   164   82   84 am   BACKBONE|DICT|INTERRES
   165   84   85 1    
   166   84  205 1    
   167   85   86 1    
   168   85   87 1    
   169   85  206 1    
   170   86  207 1    
   171   86  208 1    
   172   86  209 1    
   173   87   88 2    
   174   87   89 am   BACKBONE|DICT|INTERRES
   175   89   90 1    
   176   89  210 1    
   177   90   91 1    
   178   90   92 1    
   179   90  211 1    
   180   91  212 1    
   181   91  213 1    
   182   91  214 1    
   183   92   93 2    
   184   92   94 am   BACKBONE|DICT|INTERRES
   185   94   95 1    
   186   94  215 1    
   187   95   96 1    
   188   95   97 1    
   189   95  216 1    
   190   96  217 1    
   191   96  218 1    
   192   96  219 1    
   193   97   98 2    
   194   97   99 am   BACKBONE|DICT|INTERRES
   195   99  100 1    
   196   99  220 1    
   197  100  101 1    
   198  100  102 1    
   199  100  221 1    
   200  101  222 1    
   201  101  223 1    
   202  101  224 1    
   203  102  103 2    
   204  102  104 am   BACKBONE|DICT|INTERRES
   205  104  105 1    
   206  104  225 1    
   207  105  106 1    
   208  105  107 1    
   209  105  226 1    
   210  106  227 1    
   211  106  228 1    
   212  106  229 1    
   213  107  108 2    
   214  107  109 am   BACKBONE|DICT|INTERRES
   215  109  110 1    
   216  109  230 1    
   217  110  111 1    
   218  110  112 1    
   219  110  231 1    
   220  111  232 1    
   221  111  233 1    
   222  111  234 1    
   223  112  113 2    
   224  112  114 am   BACKBONE|DICT|INTERRES
   225  114  115 1    
   226  114  235 1    
   227  115  116 1    
   228  115  117 1    
   229  115  236 1    
   230  116  237 1    
   231  116  238 1    
   232  116  239 1    
   233  117  118 2    
   234  117  119 am   BACKBONE|DICT|INTERRES
   235  119  120 1    
   236  119  240 1    
   237  120  121 1    
   238  120  124 1    
   239  120  241 1    
   240  121  122 am   BACKBONE|DICT|INTERRES
   241  121  123 2    
   242  122  242 1    
   243  122  243 1    
   244  124  125 1    
   245  124  244 1    
   246  124  245 1    
   247  125  126 1    
   248  126  246 1    
   249  126  247 1    
@<TRIPOS>SUBSTRUCTURE
     1 UNK         1 GROUP             0       ****    0 ROOT    
