@<TRIPOS>MOLECULE
3R540
247   249    1
SMALL
USER_CHARGES


@<TRIPOS>ATOM
      1 CA          3.3824  -11.3356  -48.8006 C.3       0 UNK        -0.1800 
      2 C           2.2304  -12.3294  -48.7684 C.2       0 UNK         0.5000 
      3 O           1.9625  -12.9242  -47.7242 O.2       0 UNK        -0.5000 
      4 N           1.5402  -12.5061  -49.9019 N.am      1 UNK        -0.5000 
      5 CA          0.4034  -13.4173  -50.0804 C.3       1 UNK         0.1400 
      6 C6          0.2492  -13.8631  -51.5595 C.3       23 UNK        -0.0398 
      7 S7          1.4522  -15.1628  -51.9971 S.3       23 UNK        -0.2404 
      8 C8          0.4359  -16.6133  -51.5812 C.3       23 UNK        -0.0205 
      9 C9          1.1644  -17.9339  -51.7676 C.ar      23 UNK        -0.0193 
     10 C10         0.7586  -18.8172  -52.7707 C.ar      23 UNK        -0.1150 
     11 C11         1.3456  -20.0791  -52.8883 C.ar      23 UNK        -0.0193 
     12 C12         2.3634  -20.4481  -52.0056 C.ar      23 UNK        -0.1150 
     13 C13         2.7846  -19.5712  -51.0002 C.ar      23 UNK        -0.0193 
     14 C14         2.1845  -18.3122  -50.8896 C.ar      23 UNK        -0.1150 
     15 C15         3.8571  -20.0088  -50.0102 C.3       23 UNK        -0.0205 
     16 S16         3.2512  -20.0764  -48.2896 S.3       23 UNK        -0.2404 
     17 C17         1.7771  -21.1499  -48.4169 C.3       23 UNK        -0.0398 
     18 CA          1.9506  -22.5489  -47.7740 C.3       11 UNK         0.1400 
     19 N           2.3178  -22.4518  -46.3601 N.am      11 UNK        -0.5000 
     20 C           2.8156  -23.4541  -45.6252 C.2       10 UNK         0.5000 
     21 O           3.1921  -24.5266  -46.1034 O.2       10 UNK        -0.5000 
     22 CA          2.8639  -23.2227  -44.1015 C.3       10 UNK         0.1400 
     23 CB          3.7864  -24.2110  -43.3571 C.3       10 UNK        -0.1800 
     24 N           3.1654  -21.8354  -43.7418 N.am      10 UNK        -0.5000 
     25 C           4.3055  -21.1615  -43.9570 C.2       9 UNK         0.5000 
     26 O           5.3020  -21.6549  -44.4870 O.2       9 UNK        -0.5000 
     27 CA          4.3544  -19.6847  -43.5075 C.3       9 UNK         0.1400 
     28 CB          4.5406  -18.7563  -44.7185 C.3       9 UNK        -0.1800 
     29 N           3.1699  -19.2543  -42.7605 N.am      9 UNK        -0.5000 
     30 C           2.8867  -19.5841  -41.4933 C.2       8 UNK         0.5000 
     31 O           3.6406  -20.2399  -40.7738 O.2       8 UNK        -0.5000 
     32 CA          1.5108  -19.1455  -40.9536 C.3       8 UNK         0.1400 
     33 CB          1.5936  -17.7410  -40.3375 C.3       8 UNK        -0.1800 
     34 N           0.4524  -19.1775  -41.9691 N.am      8 UNK        -0.5000 
     35 C           0.0088  -20.2913  -42.5720 C.2       7 UNK         0.5000 
     36 O           0.4299  -21.4186  -42.3132 O.2       7 UNK        -0.5000 
     37 CA         -1.0360  -20.1188  -43.6912 C.3       7 UNK         0.1400 
     38 CB         -2.4449  -19.9274  -43.1132 C.3       7 UNK        -0.1800 
     39 N          -0.7115  -19.0183  -44.5993 N.am      7 UNK        -0.5000 
     40 C           0.3751  -18.9980  -45.3849 C.2       6 UNK         0.5000 
     41 O           1.1725  -19.9331  -45.4550 O.2       6 UNK        -0.5000 
     42 CA          0.6465  -17.7067  -46.1805 C.3       6 UNK         0.1400 
     43 CB         -0.1954  -17.6344  -47.4638 C.3       6 UNK        -0.1800 
     44 N           0.4044  -16.5063  -45.3848 N.am      6 UNK        -0.5000 
     45 C           1.0953  -16.1626  -44.2904 C.2       5 UNK         0.5000 
     46 O           2.0418  -16.8091  -43.8454 O.2       5 UNK        -0.5000 
     47 CA          0.6132  -14.9125  -43.5384 C.3       5 UNK         0.1400 
     48 CB          1.0906  -13.6326  -44.2400 C.3       5 UNK        -0.1800 
     49 N          -0.8427  -14.8884  -43.3956 N.am      5 UNK        -0.5000 
     50 C          -1.5414  -15.7410  -42.6325 C.2       4 UNK         0.5000 
     51 O          -1.0301  -16.6352  -41.9594 O.2       4 UNK        -0.5000 
     52 CA         -3.0726  -15.5887  -42.6502 C.3       4 UNK         0.1400 
     53 CB         -3.5198  -14.4859  -41.6793 C.3       4 UNK        -0.1800 
     54 N          -3.5948  -15.3018  -43.9864 N.am      4 UNK        -0.5000 
     55 C          -3.5565  -16.1660  -45.0094 C.2       3 UNK         0.5000 
     56 O          -3.0800  -17.2983  -44.9368 O.2       3 UNK        -0.5000 
     57 CA         -4.0880  -15.6524  -46.3583 C.3       3 UNK         0.1400 
     58 CB         -5.6204  -15.7268  -46.4111 C.3       3 UNK        -0.1800 
     59 N          -3.6477  -14.2933  -46.6939 N.am      3 UNK        -0.5000 
     60 C          -2.3649  -13.9343  -46.8267 C.2       2 UNK         0.5000 
     61 O          -1.4194  -14.6812  -46.5651 O.2       2 UNK        -0.5000 
     62 CA         -2.0743  -12.5124  -47.3319 C.3       2 UNK         0.1400 
     63 CB         -1.8151  -11.5575  -46.1575 C.3       2 UNK        -0.1800 
     64 N          -0.8817  -12.5830  -48.1709 N.am      2 UNK        -0.5000 
     65 C          -0.9018  -12.8430  -49.4818 C.2       1 UNK         0.5000 
     66 O          -1.8988  -12.6821  -50.1876 O.2       1 UNK        -0.5000 
     67 C           0.6436  -23.3627  -47.9312 C.2       11 UNK         0.5000 
     68 O          -0.0092  -23.6945  -46.9370 O.2       11 UNK        -0.5000 
     69 N           0.2308  -23.6003  -49.1867 N.am      12 UNK        -0.5000 
     70 CA         -1.0348  -24.2464  -49.5673 C.3       12 UNK         0.1400 
     71 CB         -1.1583  -24.2384  -51.0986 C.3       12 UNK        -0.1800 
     72 C          -2.2924  -23.6154  -48.9316 C.2       12 UNK         0.5000 
     73 O          -3.2690  -24.3229  -48.6845 O.2       12 UNK        -0.5000 
     74 N          -2.2167  -22.3155  -48.6121 N.am      13 UNK        -0.5000 
     75 CA         -3.2098  -21.5399  -47.8675 C.3       13 UNK         0.1400 
     76 CB         -2.6940  -20.1044  -47.7117 C.3       13 UNK        -0.1800 
     77 C          -3.5800  -22.1141  -46.4869 C.2       13 UNK         0.5000 
     78 O          -4.6945  -21.8769  -46.0232 O.2       13 UNK        -0.5000 
     79 N          -2.6763  -22.8916  -45.8705 N.am      14 UNK        -0.5000 
     80 CA         -2.9324  -23.6176  -44.6246 C.3       14 UNK         0.1400 
     81 CB         -1.6163  -24.2218  -44.1111 C.3       14 UNK        -0.1800 
     82 C          -4.0126  -24.7116  -44.7675 C.2       14 UNK         0.5000 
     83 O          -4.6680  -25.0383  -43.7774 O.2       14 UNK        -0.5000 
     84 N          -4.1868  -25.2426  -45.9861 N.am      15 UNK        -0.5000 
     85 CA         -5.2191  -26.2168  -46.3358 C.3       15 UNK         0.1400 
     86 CB         -4.5783  -27.3578  -47.1419 C.3       15 UNK        -0.1800 
     87 C          -6.3545  -25.5625  -47.1418 C.2       15 UNK         0.5000 
     88 O          -7.5223  -25.8687  -46.8994 O.2       15 UNK        -0.5000 
     89 N          -5.9994  -24.6828  -48.0894 N.am      16 UNK        -0.5000 
     90 CA         -6.9273  -24.0425  -49.0249 C.3       16 UNK         0.1400 
     91 CB         -6.1326  -23.5065  -50.2271 C.3       16 UNK        -0.1800 
     92 C          -7.7832  -22.9202  -48.4073 C.2       16 UNK         0.5000 
     93 O          -8.7843  -22.5378  -49.0144 O.2       16 UNK        -0.5000 
     94 N          -7.3704  -22.3888  -47.2471 N.am      17 UNK        -0.5000 
     95 CA         -7.9533  -21.2814  -46.4743 C.3       17 UNK         0.1400 
     96 CB         -9.4165  -21.5594  -46.0797 C.3       17 UNK        -0.1800 
     97 C          -7.7968  -19.8992  -47.1398 C.2       17 UNK         0.5000 
     98 O          -7.4471  -18.9375  -46.4555 O.2       17 UNK        -0.5000 
     99 N          -8.0273  -19.8214  -48.4554 N.am      18 UNK        -0.5000 
    100 CA        -7.6664  -18.6910  -49.3091 C.3       18 UNK         0.1400 
    101 CB        -8.4006  -18.8346  -50.6508 C.3       18 UNK        -0.1800 
    102 C         -6.1429  -18.6463  -49.5312 C.2       18 UNK         0.5000 
    103 O         -5.4847  -19.6825  -49.4396 O.2       18 UNK        -0.5000 
    104 N         -5.6114  -17.4573  -49.8456 N.am      19 UNK        -0.5000 
    105 CA        -4.1733  -17.2065  -50.0032 C.3       19 UNK         0.1400 
    106 CB        -3.9389  -15.6957  -50.1620 C.3       19 UNK        -0.1800 
    107 C         -3.4984  -17.9674  -51.1614 C.2       19 UNK         0.5000 
    108 O         -2.2920  -18.1948  -51.0928 O.2       19 UNK        -0.5000 
    109 N         -4.2785  -18.3336  -52.1898 N.am      20 UNK        -0.5000 
    110 CA        -3.8451  -18.9472  -53.4508 C.3       20 UNK         0.1400 
    111 CB        -3.1737  -20.3189  -53.2028 C.3       20 UNK        -0.1800 
    112 C         -2.9867  -17.9814  -54.3007 C.2       20 UNK         0.5000 
    113 O         -3.0419  -16.7663  -54.0930 O.2       20 UNK        -0.5000 
    114 N         -2.2381  -18.5243  -55.2683 N.am      21 UNK        -0.5000 
    115 CA        -1.3626  -17.7602  -56.1587 C.3       21 UNK         0.1400 
    116 CB        -2.1705  -17.1175  -57.3014 C.3       21 UNK        -0.1800 
    117 C         -0.2307  -18.6381  -56.7069 C.2       21 UNK         0.5000 
    118 O          0.9184  -18.2001  -56.6925 O.2       21 UNK        -0.5000 
    119 N         -0.5858  -19.8461  -57.1744 N.am      22 UNK        -0.5000 
    120 CA         0.2530  -20.9474  -57.7068 C.3       22 UNK         0.1400 
    121 C          1.3086  -20.6383  -58.8169 C.2       22 UNK         0.5000 
    122 N          1.6429  -19.3916  -59.1098 N.am      22 UNK        -0.7600 
    123 O          1.8035  -21.5596  -59.4613 O.2       22 UNK        -0.5000 
    124 C124        0.8102  -21.8940  -56.6040 C.3       23 UNK        -0.0398 
    125 S125        1.9282  -21.1063  -55.3928 S.3       23 UNK        -0.2404 
    126 C126        0.8427  -21.0580  -53.9357 C.3       23 UNK        -0.0205 
    127 H127        3.5024  -10.8853  -49.7862 H         1 UNK         0.0600 
    128 H128        4.3151  -11.8352  -48.5388 H         1 UNK         0.0600 
    129 H129        3.2082  -10.5367  -48.0799 H         1 UNK         0.0600 
    130 H130        1.7992  -11.9719  -50.7190 H         1 UNK         0.3000 
    131 H131        0.6013  -14.3165  -49.4920 H         1 UNK         0.0600 
    132 H132       -0.7477  -14.2575  -51.7652 H         1 UNK         0.0800 
    133 H133        0.3728  -13.0159  -52.2356 H         1 UNK         0.0800 
    134 H134       -0.4664  -16.5935  -52.1949 H         1 UNK         0.0800 
    135 H135        0.1000  -16.5429  -50.5459 H         1 UNK         0.0800 
    136 H136       -0.0419  -18.5345  -53.4382 H         1 UNK         0.1150 
    137 H137        2.8123  -21.4277  -52.0921 H         1 UNK         0.1150 
    138 H138        2.4889  -17.6397  -50.0998 H         1 UNK         0.1150 
    139 H139        4.2572  -20.9878  -50.2784 H         1 UNK         0.0800 
    140 H140        4.6939  -19.3112  -50.0622 H         1 UNK         0.0800 
    141 H141        1.4975  -21.2487  -49.4641 H         1 UNK         0.0800 
    142 H142        0.9459  -20.6231  -47.9498 H         1 UNK         0.0800 
    143 H143        2.7432  -23.0807  -48.3043 H         1 UNK         0.0600 
    144 H144        2.0238  -21.5979  -45.8928 H         1 UNK         0.3000 
    145 H145        1.8481  -23.4035  -43.7472 H         1 UNK         0.0600 
    146 H146        3.7878  -24.0167  -42.2845 H         1 UNK         0.0600 
    147 H147        3.4507  -25.2388  -43.4990 H         1 UNK         0.0600 
    148 H148        4.8159  -24.1539  -43.7111 H         1 UNK         0.0600 
    149 H149        2.3981  -21.3313  -43.3147 H         1 UNK         0.3000 
    150 H150        5.2264  -19.5747  -42.8599 H         1 UNK         0.0600 
    151 H151        5.4345  -19.0197  -45.2851 H         1 UNK         0.0600 
    152 H152        4.6491  -17.7174  -44.4069 H         1 UNK         0.0600 
    153 H153        3.6927  -18.8146  -45.4008 H         1 UNK         0.0600 
    154 H154        2.5277  -18.6426  -43.2553 H         1 UNK         0.3000 
    155 H155        1.2316  -19.8447  -40.1628 H         1 UNK         0.0600 
    156 H156        2.3661  -17.6953  -39.5689 H         1 UNK         0.0600 
    157 H157        0.6508  -17.4612  -39.8671 H         1 UNK         0.0600 
    158 H158        1.8304  -16.9859  -41.0874 H         1 UNK         0.0600 
    159 H159        0.0282  -18.2855  -42.2065 H         1 UNK         0.3000 
    160 H160       -1.0398  -21.0375  -44.2804 H         1 UNK         0.0600 
    161 H161       -2.5303  -18.9909  -42.5614 H         1 UNK         0.0600 
    162 H162       -2.7013  -20.7382  -42.4304 H         1 UNK         0.0600 
    163 H163       -3.1951  -19.9201  -43.9046 H         1 UNK         0.0600 
    164 H164       -1.3592  -18.2361  -44.6207 H         1 UNK         0.3000 
    165 H165        1.6996  -17.7111  -46.4685 H         1 UNK         0.0600 
    166 H166        0.0563  -16.7465  -48.0440 H         1 UNK         0.0600 
    167 H167       -0.0204  -18.4970  -48.1061 H         1 UNK         0.0600 
    168 H168       -1.2623  -17.5907  -47.2429 H         1 UNK         0.0600 
    169 H169       -0.3415  -15.8919  -45.7051 H         1 UNK         0.3000 
    170 H170        1.0504  -14.9333  -42.5378 H         1 UNK         0.0600 
    171 H171        2.1795  -13.6050  -44.2970 H         1 UNK         0.0600 
    172 H172        0.7128  -13.5663  -45.2604 H         1 UNK         0.0600 
    173 H173        0.7702  -12.7409  -43.7014 H         1 UNK         0.0600 
    174 H174       -1.3452  -14.2237  -43.9638 H         1 UNK         0.3000 
    175 H175       -3.5038  -16.5341  -42.3137 H         1 UNK         0.0600 
    176 H176       -3.1561  -14.6843  -40.6702 H         1 UNK         0.0600 
    177 H177       -3.1429  -13.5068  -41.9776 H         1 UNK         0.0600 
    178 H178       -4.6069  -14.4254  -41.6254 H         1 UNK         0.0600 
    179 H179       -3.9915  -14.3865  -44.1395 H         1 UNK         0.3000 
    180 H180       -3.6920  -16.3205  -47.1237 H         1 UNK         0.0600 
    181 H181       -5.9674  -16.7314  -46.1684 H         1 UNK         0.0600 
    182 H182       -6.0835  -15.0397  -45.7021 H         1 UNK         0.0600 
    183 H183       -5.9958  -15.4880  -47.4059 H         1 UNK         0.0600 
    184 H184       -4.3723  -13.6223  -46.9046 H         1 UNK         0.3000 
    185 H185       -2.9276  -12.1458  -47.9062 H         1 UNK         0.0600 
    186 H186       -2.6897  -11.4883  -45.5095 H         1 UNK         0.0600 
    187 H187       -0.9760  -11.8842  -45.5438 H         1 UNK         0.0600 
    188 H188       -1.5940  -10.5512  -46.5134 H         1 UNK         0.0600 
    189 H189       -0.0095  -12.7695  -47.6842 H         1 UNK         0.3000 
    190 H190        0.8208  -23.3160  -49.9549 H         1 UNK         0.3000 
    191 H191       -0.9878  -25.2832  -49.2287 H         1 UNK         0.0600 
    192 H192       -1.1730  -23.2226  -51.4964 H         1 UNK         0.0600 
    193 H193       -2.0786  -24.7290  -51.4191 H         1 UNK         0.0600 
    194 H194       -0.3295  -24.7708  -51.5655 H         1 UNK         0.0600 
    195 H195       -1.3754  -21.8235  -48.8682 H         1 UNK         0.3000 
    196 H196       -4.1208  -21.5291  -48.4624 H         1 UNK         0.0600 
    197 H197       -3.4329  -19.4719  -47.2171 H         1 UNK         0.0600 
    198 H198       -2.4761  -19.6556  -48.6803 H         1 UNK         0.0600 
    199 H199       -1.7843  -20.0783  -47.1135 H         1 UNK         0.0600 
    200 H200       -1.7808  -23.0672  -46.3177 H         1 UNK         0.3000 
    201 H201       -3.2885  -22.8975  -43.8852 H         1 UNK         0.0600 
    202 H202       -1.7617  -24.7126  -43.1481 H         1 UNK         0.0600 
    203 H203       -1.2205  -24.9666  -44.8027 H         1 UNK         0.0600 
    204 H204       -0.8528  -23.4565  -43.9730 H         1 UNK         0.0600 
    205 H205       -3.6207  -24.8962  -46.7520 H         1 UNK         0.3000 
    206 H206       -5.6581  -26.6497  -45.4345 H         1 UNK         0.0600 
    207 H207       -3.8105  -27.8665  -46.5588 H         1 UNK         0.0600 
    208 H208       -5.3226  -28.1046  -47.4214 H         1 UNK         0.0600 
    209 H209       -4.1147  -26.9952  -48.0603 H         1 UNK         0.0600 
    210 H210       -5.0097  -24.5189  -48.2605 H         1 UNK         0.3000 
    211 H211       -7.6160  -24.8058  -49.3932 H         1 UNK         0.0600 
    212 H212       -6.7992  -23.0885  -50.9824 H         1 UNK         0.0600 
    213 H213       -5.5561  -24.2984  -50.7056 H         1 UNK         0.0600 
    214 H214       -5.4394  -22.7183  -49.9347 H         1 UNK         0.0600 
    215 H215       -6.4887  -22.7222  -46.8757 H         1 UNK         0.3000 
    216 H216       -7.3743  -21.2441  -45.5501 H         1 UNK         0.0600 
    217 H217       -9.7832  -20.7935  -45.3953 H         1 UNK         0.0600 
    218 H218       -9.5125  -22.5205  -45.5745 H         1 UNK         0.0600 
    219 H219      -10.0817  -21.5650  -46.9433 H         1 UNK         0.0600 
    220 H220       -8.3058  -20.6779  -48.9234 H         1 UNK         0.3000 
    221 H221       -7.9828  -17.7653  -48.8241 H         1 UNK         0.0600 
    222 H222       -8.1091  -19.7476  -51.1722 H         1 UNK         0.0600 
    223 H223       -9.4810  -18.8620  -50.5074 H         1 UNK         0.0600 
    224 H224       -8.1826  -17.9943  -51.3110 H         1 UNK         0.0600 
    225 H225       -6.2195  -16.6564  -49.9366 H         1 UNK         0.3000 
    226 H226       -3.6830  -17.5326  -49.0850 H         1 UNK         0.0600 
    227 H227       -2.8721  -15.4682  -50.1850 H         1 UNK         0.0600 
    228 H228       -4.3729  -15.3178  -51.0885 H         1 UNK         0.0600 
    229 H229       -4.3714  -15.1315  -49.3372 H         1 UNK         0.0600 
    230 H230       -5.2522  -18.0729  -52.1449 H         1 UNK         0.3000 
    231 H231       -4.7566  -19.1253  -54.0227 H         1 UNK         0.0600 
    232 H232       -3.7689  -20.9280  -52.5219 H         1 UNK         0.0600 
    233 H233       -2.1793  -20.2151  -52.7674 H         1 UNK         0.0600 
    234 H234       -3.0710  -20.8865  -54.1278 H         1 UNK         0.0600 
    235 H235       -2.2108  -19.5290  -55.3598 H         1 UNK         0.3000 
    236 H236       -0.8888  -16.9624  -55.5816 H         1 UNK         0.0600 
    237 H237       -2.8947  -16.3983  -56.9187 H         1 UNK         0.0600 
    238 H238       -1.5158  -16.5804  -57.9890 H         1 UNK         0.0600 
    239 H239       -2.7156  -17.8638  -57.8802 H         1 UNK         0.0600 
    240 H240       -1.5751  -20.0389  -57.2226 H         1 UNK         0.3000 
    241 H241       -0.4767  -21.5492  -58.2503 H         1 UNK         0.0600 
    242 H242        1.3487  -18.6548  -58.4772 H         1 UNK         0.3800 
    243 H243        2.3142  -19.2037  -59.8374 H         1 UNK         0.3800 
    244 H244       -0.0246  -22.3528  -56.0732 H         1 UNK         0.0800 
    245 H245        1.3440  -22.7322  -57.0550 H         1 UNK         0.0800 
    246 H246        0.7688  -22.0580  -53.5057 H         1 UNK         0.0800 
    247 H247       -0.1663  -20.7808  -54.2429 H         1 UNK         0.0800 
@<TRIPOS>BOND
     1    1    2 1    
     2    1  127 1    
     3    1  128 1    
     4    1  129 1    
     5    2    3 2    
     6    2    4 am   BACKBONE|DICT|INTERRES
     7    4    5 1    
     8    4  130 1    
     9    5    6 1    
    10    5   65 1    
    11    5  131 1    
    12    6    7 1    
    13    6  132 1    
    14    6  133 1    
    15    7    8 1    
    16    8    9 1    
    17    8  134 1    
    18    8  135 1    
    19    9   10 ar   
    20    9   14 ar   
    21   10   11 ar   
    22   10  136 1    
    23   11   12 ar   
    24   11  126 1    
    25   12   13 ar   
    26   12  137 1    
    27   13   14 ar   
    28   13   15 1    
    29   14  138 1    
    30   15   16 1    
    31   15  139 1    
    32   15  140 1    
    33   16   17 1    
    34   17   18 1    
    35   17  141 1    
    36   17  142 1    
    37   18   19 1    
    38   18   67 1    
    39   18  143 1    
    40   19   20 am   BACKBONE|DICT|INTERRES
    41   19  144 1    
    42   20   21 2    
    43   20   22 1    
    44   22   23 1    
    45   22   24 1    
    46   22  145 1    
    47   23  146 1    
    48   23  147 1    
    49   23  148 1    
    50   24   25 am   BACKBONE|DICT|INTERRES
    51   24  149 1    
    52   25   26 2    
    53   25   27 1    
    54   27   28 1    
    55   27   29 1    
    56   27  150 1    
    57   28  151 1    
    58   28  152 1    
    59   28  153 1    
    60   29   30 am   BACKBONE|DICT|INTERRES
    61   29  154 1    
    62   30   31 2    
    63   30   32 1    
    64   32   33 1    
    65   32   34 1    
    66   32  155 1    
    67   33  156 1    
    68   33  157 1    
    69   33  158 1    
    70   34   35 am   BACKBONE|DICT|INTERRES
    71   34  159 1    
    72   35   36 2    
    73   35   37 1    
    74   37   38 1    
    75   37   39 1    
    76   37  160 1    
    77   38  161 1    
    78   38  162 1    
    79   38  163 1    
    80   39   40 am   BACKBONE|DICT|INTERRES
    81   39  164 1    
    82   40   41 2    
    83   40   42 1    
    84   42   43 1    
    85   42   44 1    
    86   42  165 1    
    87   43  166 1    
    88   43  167 1    
    89   43  168 1    
    90   44   45 am   BACKBONE|DICT|INTERRES
    91   44  169 1    
    92   45   46 2    
    93   45   47 1    
    94   47   48 1    
    95   47   49 1    
    96   47  170 1    
    97   48  171 1    
    98   48  172 1    
    99   48  173 1    
   100   49   50 am   BACKBONE|DICT|INTERRES
   101   49  174 1    
   102   50   51 2    
   103   50   52 1    
   104   52   53 1    
   105   52   54 1    
   106   52  175 1    
   107   53  176 1    
   108   53  177 1    
   109   53  178 1    
   110   54   55 am   BACKBONE|DICT|INTERRES
   111   54  179 1    
   112   55   56 2    
   113   55   57 1    
   114   57   58 1    
   115   57   59 1    
   116   57  180 1    
   117   58  181 1    
   118   58  182 1    
   119   58  183 1    
   120   59   60 am   BACKBONE|DICT|INTERRES
   121   59  184 1    
   122   60   61 2    
   123   60   62 1    
   124   62   63 1    
   125   62   64 1    
   126   62  185 1    
   127   63  186 1    
   128   63  187 1    
   129   63  188 1    
   130   64   65 am   BACKBONE|DICT|INTERRES
   131   64  189 1    
   132   65   66 2    
   133   67   68 2    
   134   67   69 am   BACKBONE|DICT|INTERRES
   135   69   70 1    
   136   69  190 1    
   137   70   71 1    
   138   70   72 1    
   139   70  191 1    
   140   71  192 1    
   141   71  193 1    
   142   71  194 1    
   143   72   73 2    
   144   72   74 am   BACKBONE|DICT|INTERRES
   145   74   75 1    
   146   74  195 1    
   147   75   76 1    
   148   75   77 1    
   149   75  196 1    
   150   76  197 1    
   151   76  198 1    
   152   76  199 1    
   153   77   78 2    
   154   77   79 am   BACKBONE|DICT|INTERRES
   155   79   80 1    
   156   79  200 1    
   157   80   81 1    
   158   80   82 1    
   159   80  201 1    
   160   81  202 1    
   161   81  203 1    
   162   81  204 1    
   163   82   83 2    
   164   82   84 am   BACKBONE|DICT|INTERRES
   165   84   85 1    
   166   84  205 1    
   167   85   86 1    
   168   85   87 1    
   169   85  206 1    
   170   86  207 1    
   171   86  208 1    
   172   86  209 1    
   173   87   88 2    
   174   87   89 am   BACKBONE|DICT|INTERRES
   175   89   90 1    
   176   89  210 1    
   177   90   91 1    
   178   90   92 1    
   179   90  211 1    
   180   91  212 1    
   181   91  213 1    
   182   91  214 1    
   183   92   93 2    
   184   92   94 am   BACKBONE|DICT|INTERRES
   185   94   95 1    
   186   94  215 1    
   187   95   96 1    
   188   95   97 1    
   189   95  216 1    
   190   96  217 1    
   191   96  218 1    
   192   96  219 1    
   193   97   98 2    
   194   97   99 am   BACKBONE|DICT|INTERRES
   195   99  100 1    
   196   99  220 1    
   197  100  101 1    
   198  100  102 1    
   199  100  221 1    
   200  101  222 1    
   201  101  223 1    
   202  101  224 1    
   203  102  103 2    
   204  102  104 am   BACKBONE|DICT|INTERRES
   205  104  105 1    
   206  104  225 1    
   207  105  106 1    
   208  105  107 1    
   209  105  226 1    
   210  106  227 1    
   211  106  228 1    
   212  106  229 1    
   213  107  108 2    
   214  107  109 am   BACKBONE|DICT|INTERRES
   215  109  110 1    
   216  109  230 1    
   217  110  111 1    
   218  110  112 1    
   219  110  231 1    
   220  111  232 1    
   221  111  233 1    
   222  111  234 1    
   223  112  113 2    
   224  112  114 am   BACKBONE|DICT|INTERRES
   225  114  115 1    
   226  114  235 1    
   227  115  116 1    
   228  115  117 1    
   229  115  236 1    
   230  116  237 1    
   231  116  238 1    
   232  116  239 1    
   233  117  118 2    
   234  117  119 am   BACKBONE|DICT|INTERRES
   235  119  120 1    
   236  119  240 1    
   237  120  121 1    
   238  120  124 1    
   239  120  241 1    
   240  121  122 am   BACKBONE|DICT|INTERRES
   241  121  123 2    
   242  122  242 1    
   243  122  243 1    
   244  124  125 1    
   245  124  244 1    
   246  124  245 1    
   247  125  126 1    
   248  126  246 1    
   249  126  247 1    
@<TRIPOS>SUBSTRUCTURE
     1 UNK         1 GROUP             0       ****    0 ROOT    
