@<TRIPOS>MOLECULE
3R540
247   249    1
SMALL
USER_CHARGES


@<TRIPOS>ATOM
      1 CA         -5.5807  -10.7332  -48.5190 C.3       0 UNK        -0.1800 
      2 C          -4.3717  -11.6171  -48.2505 C.2       0 UNK         0.5000 
      3 O          -3.4971  -11.2369  -47.4730 O.2       0 UNK        -0.5000 
      4 N          -4.3260  -12.8015  -48.8776 N.am      1 UNK        -0.5000 
      5 CA         -3.2414  -13.7895  -48.7713 C.3       1 UNK         0.1400 
      6 C6         -3.4725  -14.9606  -49.7645 C.3       23 UNK        -0.0398 
      7 S7         -2.2536  -16.3218  -49.7310 S.3       23 UNK        -0.2404 
      8 C8         -0.7430  -15.4603  -50.2611 C.3       23 UNK        -0.0205 
      9 C9          0.4167  -16.4289  -50.4248 C.ar      23 UNK        -0.0193 
     10 C10         0.7972  -16.8630  -51.6979 C.ar      23 UNK        -0.1150 
     11 C11         1.8715  -17.7435  -51.8570 C.ar      23 UNK        -0.0193 
     12 C12         2.5576  -18.1973  -50.7268 C.ar      23 UNK        -0.1150 
     13 C13         2.1966  -17.7599  -49.4489 C.ar      23 UNK        -0.0193 
     14 C14         1.1259  -16.8722  -49.3043 C.ar      23 UNK        -0.1150 
     15 C15         2.9946  -18.2208  -48.2380 C.3       23 UNK        -0.0205 
     16 S16         2.2353  -19.6602  -47.4223 S.3       23 UNK        -0.2404 
     17 C17         1.0626  -18.8519  -46.2833 C.3       23 UNK        -0.0398 
     18 CA         -0.3971  -19.3213  -46.4726 C.3       11 UNK         0.1400 
     19 N          -0.5238  -20.7667  -46.2759 N.am      11 UNK        -0.5000 
     20 C          -1.6337  -21.4946  -46.4547 C.2       10 UNK         0.5000 
     21 O          -2.7135  -21.0337  -46.8213 O.2       10 UNK        -0.5000 
     22 CA         -1.5195  -22.9842  -46.0851 C.3       10 UNK         0.1400 
     23 CB         -0.7928  -23.7616  -47.1948 C.3       10 UNK        -0.1800 
     24 N          -0.8059  -23.2007  -44.8239 N.am      10 UNK        -0.5000 
     25 C          -1.0834  -22.6430  -43.6386 C.2       9 UNK         0.5000 
     26 O          -2.0413  -21.8943  -43.4477 O.2       9 UNK        -0.5000 
     27 CA         -0.0974  -22.9032  -42.4836 C.3       9 UNK         0.1400 
     28 CB         -0.5304  -24.1187  -41.6436 C.3       9 UNK        -0.1800 
     29 N           1.3142  -22.9960  -42.8882 N.am      9 UNK        -0.5000 
     30 C           1.9335  -23.9546  -43.5981 C.2       8 UNK         0.5000 
     31 O           1.3516  -24.9223  -44.0883 O.2       8 UNK        -0.5000 
     32 CA          3.4498  -23.7968  -43.8423 C.3       8 UNK         0.1400 
     33 CB          3.7051  -23.3378  -45.2872 C.3       8 UNK        -0.1800 
     34 N           4.0993  -22.8516  -42.9337 N.am      8 UNK        -0.5000 
     35 C           4.2334  -23.0040  -41.6088 C.2       7 UNK         0.5000 
     36 O           3.9308  -24.0353  -41.0080 O.2       7 UNK        -0.5000 
     37 CA          4.7641  -21.7911  -40.8143 C.3       7 UNK         0.1400 
     38 CB          6.1993  -22.0522  -40.3309 C.3       7 UNK        -0.1800 
     39 N           4.7371  -20.5147  -41.5419 N.am      7 UNK        -0.5000 
     40 C           3.6457  -19.8944  -42.0102 C.2       6 UNK         0.5000 
     41 O           2.5012  -20.3543  -41.9350 O.2       6 UNK        -0.5000 
     42 CA          3.8898  -18.5648  -42.7348 C.3       6 UNK         0.1400 
     43 CB          4.4601  -18.8052  -44.1451 C.3       6 UNK        -0.1800 
     44 N           2.6265  -17.8445  -42.8323 N.am      6 UNK        -0.5000 
     45 C           2.4990  -16.5182  -42.9286 C.2       5 UNK         0.5000 
     46 O           3.4509  -15.7332  -42.9209 O.2       5 UNK        -0.5000 
     47 CA          1.0557  -15.9861  -43.0121 C.3       5 UNK         0.1400 
     48 CB          0.4706  -15.7907  -41.6046 C.3       5 UNK        -0.1800 
     49 N           0.9508  -14.7204  -43.7349 N.am      5 UNK        -0.5000 
     50 C           1.2721  -14.5168  -45.0195 C.2       4 UNK         0.5000 
     51 O           1.6879  -15.4008  -45.7693 O.2       4 UNK        -0.5000 
     52 CA          1.0629  -13.0835  -45.5446 C.3       4 UNK         0.1400 
     53 CB          1.2804  -12.9660  -47.0646 C.3       4 UNK        -0.1800 
     54 N          -0.2886  -12.6292  -45.2207 N.am      4 UNK        -0.5000 
     55 C          -0.6300  -11.9006  -44.1489 C.2       3 UNK         0.5000 
     56 O           0.1863  -11.4862  -43.3255 O.2       3 UNK        -0.5000 
     57 CA         -2.1283  -11.6072  -43.9337 C.3       3 UNK         0.1400 
     58 CB         -2.4708  -10.1836  -44.3979 C.3       3 UNK        -0.1800 
     59 N          -3.0003  -12.5635  -44.6182 N.am      3 UNK        -0.5000 
     60 C          -3.2103  -13.8232  -44.2045 C.2       2 UNK         0.5000 
     61 O          -2.7453  -14.2787  -43.1594 O.2       2 UNK        -0.5000 
     62 CA         -4.0648  -14.7355  -45.1105 C.3       2 UNK         0.1400 
     63 CB         -5.5135  -14.7921  -44.6027 C.3       2 UNK        -0.1800 
     64 N          -4.0791  -14.3499  -46.5241 N.am      2 UNK        -0.5000 
     65 C          -3.0013  -14.2600  -47.3176 C.2       1 UNK         0.5000 
     66 O          -1.8505  -14.4500  -46.9274 O.2       1 UNK        -0.5000 
     67 C          -1.3199  -18.5250  -45.5288 C.2       11 UNK         0.5000 
     68 O          -1.9910  -17.5977  -45.9733 O.2       11 UNK        -0.5000 
     69 N          -1.3436  -18.9152  -44.2455 N.am      12 UNK        -0.5000 
     70 CA         -2.1473  -18.2800  -43.1991 C.3       12 UNK         0.1400 
     71 CB         -1.6647  -18.7725  -41.8258 C.3       12 UNK        -0.1800 
     72 C          -3.6520  -18.5462  -43.3739 C.2       12 UNK         0.5000 
     73 O          -4.4632  -17.6555  -43.1251 O.2       12 UNK        -0.5000 
     74 N          -3.9923  -19.7627  -43.8167 N.am      13 UNK        -0.5000 
     75 CA         -5.3538  -20.1722  -44.1540 C.3       13 UNK         0.1400 
     76 CB         -5.3978  -21.7066  -44.2272 C.3       13 UNK        -0.1800 
     77 C          -5.8590  -19.5633  -45.4767 C.2       13 UNK         0.5000 
     78 O          -7.0724  -19.4665  -45.6629 O.2       13 UNK        -0.5000 
     79 N          -4.9243  -19.2036  -46.3713 N.am      14 UNK        -0.5000 
     80 CA         -5.1243  -18.8365  -47.7772 C.3       14 UNK         0.1400 
     81 CB         -5.8731  -17.4946  -47.9018 C.3       14 UNK        -0.1800 
     82 C          -5.7892  -19.9906  -48.5570 C.2       14 UNK         0.5000 
     83 O          -6.7747  -19.7840  -49.2676 O.2       14 UNK        -0.5000 
     84 N          -5.2575  -21.2000  -48.3513 N.am      15 UNK        -0.5000 
     85 CA         -5.8013  -22.4663  -48.8282 C.3       15 UNK         0.1400 
     86 CB         -6.5733  -23.1296  -47.6738 C.3       15 UNK        -0.1800 
     87 C          -4.6643  -23.3673  -49.3288 C.2       15 UNK         0.5000 
     88 O          -3.4917  -23.0078  -49.2081 O.2       15 UNK        -0.5000 
     89 N          -5.0309  -24.5283  -49.8899 N.am      16 UNK        -0.5000 
     90 CA         -4.1327  -25.5193  -50.4930 C.3       16 UNK         0.1400 
     91 CB         -3.2907  -26.2259  -49.4065 C.3       16 UNK        -0.1800 
     92 C          -3.3063  -24.8803  -51.6274 C.2       16 UNK         0.5000 
     93 O          -3.9000  -24.2534  -52.5060 O.2       16 UNK        -0.5000 
     94 N          -1.9717  -24.9913  -51.5804 N.am      17 UNK        -0.5000 
     95 CA         -1.0458  -24.3894  -52.5445 C.3       17 UNK         0.1400 
     96 CB          0.3914  -24.8001  -52.1948 C.3       17 UNK        -0.1800 
     97 C          -1.1569  -22.8552  -52.6430 C.2       17 UNK         0.5000 
     98 O          -1.0149  -22.3128  -53.7391 O.2       17 UNK        -0.5000 
     99 N          -1.4793  -22.1888  -51.5245 N.am      18 UNK        -0.5000 
    100 CA        -1.6750  -20.7380  -51.4590 C.3       18 UNK         0.1400 
    101 CB        -1.6697  -20.2855  -49.9933 C.3       18 UNK        -0.1800 
    102 C         -2.9456  -20.2527  -52.1902 C.2       18 UNK         0.5000 
    103 O         -3.0763  -19.0527  -52.4293 O.2       18 UNK        -0.5000 
    104 N         -3.8396  -21.1811  -52.5549 N.am      19 UNK        -0.5000 
    105 CA        -4.9869  -20.9366  -53.4219 C.3       19 UNK         0.1400 
    106 CB        -6.2504  -21.5118  -52.7617 C.3       19 UNK        -0.1800 
    107 C         -4.7572  -21.5614  -54.8088 C.2       19 UNK         0.5000 
    108 O         -4.9282  -20.8789  -55.8187 O.2       19 UNK        -0.5000 
    109 N         -4.3904  -22.8496  -54.8386 N.am      20 UNK        -0.5000 
    110 CA        -4.3313  -23.6705  -56.0471 C.3       20 UNK         0.1400 
    111 CB        -4.3023  -25.1539  -55.6462 C.3       20 UNK        -0.1800 
    112 C         -3.1503  -23.3468  -56.9764 C.2       20 UNK         0.5000 
    113 O         -3.3355  -23.3362  -58.1943 O.2       20 UNK        -0.5000 
    114 N         -1.9634  -23.1130  -56.4021 N.am      21 UNK        -0.5000 
    115 CA        -0.7362  -22.8445  -57.1536 C.3       21 UNK         0.1400 
    116 CB         0.4484  -23.5744  -56.4980 C.3       21 UNK        -0.1800 
    117 C         -0.4716  -21.3360  -57.2471 C.2       21 UNK         0.5000 
    118 O         -0.1377  -20.8443  -58.3260 O.2       21 UNK        -0.5000 
    119 N         -0.6357  -20.6298  -56.1222 N.am      22 UNK        -0.5000 
    120 CA        -0.4265  -19.1765  -56.0186 C.3       22 UNK         0.1400 
    121 C         -1.5756  -18.3110  -56.6146 C.2       22 UNK         0.5000 
    122 N         -2.7424  -18.8616  -56.9255 N.am      22 UNK        -0.7600 
    123 O         -1.3988  -17.1117  -56.8102 O.2       22 UNK        -0.5000 
    124 C124       -0.1137  -18.7429  -54.5666 C.3       23 UNK        -0.0398 
    125 S125        1.3554  -19.5811  -53.8751 S.3       23 UNK        -0.2404 
    126 C126        2.3240  -18.1759  -53.2453 C.3       23 UNK        -0.0205 
    127 H127       -6.2764  -11.1976  -49.2182 H         1 UNK         0.0600 
    128 H128       -5.2611   -9.7796  -48.9393 H         1 UNK         0.0600 
    129 H129       -6.1137  -10.5353  -47.5889 H         1 UNK         0.0600 
    130 H130       -5.0822  -13.0476  -49.5007 H         1 UNK         0.3000 
    131 H131       -2.3310  -13.2716  -49.0790 H         1 UNK         0.0600 
    132 H132       -3.5089  -14.5731  -50.7836 H         1 UNK         0.0800 
    133 H133       -4.4515  -15.4052  -49.5850 H         1 UNK         0.0800 
    134 H134       -0.4758  -14.7034  -49.5234 H         1 UNK         0.0800 
    135 H135       -0.9342  -14.9318  -51.1962 H         1 UNK         0.0800 
    136 H136        0.2619  -16.5036  -52.5642 H         1 UNK         0.1150 
    137 H137        3.3895  -18.8775  -50.8437 H         1 UNK         0.1150 
    138 H138        0.8427  -16.5187  -48.3227 H         1 UNK         0.1150 
    139 H139        4.0043  -18.4960  -48.5462 H         1 UNK         0.0800 
    140 H140        3.1167  -17.4005  -47.5285 H         1 UNK         0.0800 
    141 H141        1.1218  -17.7730  -46.4124 H         1 UNK         0.0800 
    142 H142        1.4025  -19.0484  -45.2656 H         1 UNK         0.0800 
    143 H143       -0.7019  -19.0943  -47.4961 H         1 UNK         0.0600 
    144 H144        0.3146  -21.2476  -45.9872 H         1 UNK         0.3000 
    145 H145       -2.5309  -23.3814  -45.9798 H         1 UNK         0.0600 
    146 H146       -0.8463  -24.8363  -47.0205 H         1 UNK         0.0600 
    147 H147       -1.2324  -23.5681  -48.1722 H         1 UNK         0.0600 
    148 H148        0.2606  -23.4855  -47.2568 H         1 UNK         0.0600 
    149 H149       -0.0209  -23.8447  -44.8474 H         1 UNK         0.3000 
    150 H150       -0.1506  -22.0272  -41.8349 H         1 UNK         0.0600 
    151 H151       -1.5351  -23.9747  -41.2442 H         1 UNK         0.0600 
    152 H152        0.1382  -24.2695  -40.7960 H         1 UNK         0.0600 
    153 H153       -0.5439  -25.0382  -42.2291 H         1 UNK         0.0600 
    154 H154        1.8830  -22.2164  -42.5736 H         1 UNK         0.3000 
    155 H155        3.9096  -24.7770  -43.7011 H         1 UNK         0.0600 
    156 H156        3.2780  -22.3523  -45.4791 H         1 UNK         0.0600 
    157 H157        3.2628  -24.0315  -46.0036 H         1 UNK         0.0600 
    158 H158        4.7725  -23.2888  -45.5033 H         1 UNK         0.0600 
    159 H159        4.3930  -21.9738  -43.3346 H         1 UNK         0.3000 
    160 H160        4.1227  -21.6819  -39.9374 H         1 UNK         0.0600 
    161 H161        6.8938  -22.1452  -41.1668 H         1 UNK         0.0600 
    162 H162        6.2571  -22.9752  -39.7522 H         1 UNK         0.0600 
    163 H163        6.5526  -21.2464  -39.6872 H         1 UNK         0.0600 
    164 H164        5.6343  -20.0690  -41.6716 H         1 UNK         0.3000 
    165 H165        4.5984  -17.9798  -42.1445 H         1 UNK         0.0600 
    166 H166        4.5895  -17.8681  -44.6871 H         1 UNK         0.0600 
    167 H167        5.4372  -19.2871  -44.0984 H         1 UNK         0.0600 
    168 H168        3.8078  -19.4453  -44.7395 H         1 UNK         0.0600 
    169 H169        1.8119  -18.4366  -42.7363 H         1 UNK         0.3000 
    170 H170        0.4525  -16.7201  -43.5482 H         1 UNK         0.0600 
    171 H171        0.9857  -14.9953  -41.0644 H         1 UNK         0.0600 
    172 H172       -0.5882  -15.5339  -41.6504 H         1 UNK         0.0600 
    173 H173        0.5598  -16.6973  -41.0057 H         1 UNK         0.0600 
    174 H174        0.6356  -13.9247  -43.1989 H         1 UNK         0.3000 
    175 H175        1.8025  -12.4469  -45.0548 H         1 UNK         0.0600 
    176 H176        0.6068  -13.6184  -47.6199 H         1 UNK         0.0600 
    177 H177        1.1172  -11.9447  -47.4087 H         1 UNK         0.0600 
    178 H178        2.3002  -13.2418  -47.3356 H         1 UNK         0.0600 
    179 H179       -1.0238  -13.0251  -45.7985 H         1 UNK         0.3000 
    180 H180       -2.3259  -11.6678  -42.8613 H         1 UNK         0.0600 
    181 H181       -3.5276   -9.9610  -44.2493 H         1 UNK         0.0600 
    182 H182       -2.2407  -10.0375  -45.4535 H         1 UNK         0.0600 
    183 H183       -1.9001   -9.4438  -43.8351 H         1 UNK         0.0600 
    184 H184       -3.3838  -12.2665  -45.5076 H         1 UNK         0.3000 
    185 H185       -3.6414  -15.7390  -45.0484 H         1 UNK         0.0600 
    186 H186       -6.0960  -15.5305  -45.1541 H         1 UNK         0.0600 
    187 H187       -5.5474  -15.0784  -43.5506 H         1 UNK         0.0600 
    188 H188       -6.0118  -13.8265  -44.6967 H         1 UNK         0.0600 
    189 H189       -4.9804  -14.1273  -46.9195 H         1 UNK         0.3000 
    190 H190       -0.8351  -19.7452  -43.9801 H         1 UNK         0.3000 
    191 H191       -1.9894  -17.2006  -43.2547 H         1 UNK         0.0600 
    192 H192       -2.1505  -18.2164  -41.0232 H         1 UNK         0.0600 
    193 H193       -0.5894  -18.6438  -41.7093 H         1 UNK         0.0600 
    194 H194       -1.8882  -19.8288  -41.6726 H         1 UNK         0.0600 
    195 H195       -3.2651  -20.4649  -43.9213 H         1 UNK         0.3000 
    196 H196       -6.0248  -19.8453  -43.3570 H         1 UNK         0.0600 
    197 H197       -4.7251  -22.0895  -44.9958 H         1 UNK         0.0600 
    198 H198       -5.1075  -22.1553  -43.2771 H         1 UNK         0.0600 
    199 H199       -6.4024  -22.0603  -44.4624 H         1 UNK         0.0600 
    200 H200       -3.9606  -19.3858  -46.1202 H         1 UNK         0.3000 
    201 H201       -4.1299  -18.7027  -48.2065 H         1 UNK         0.0600 
    202 H202       -6.8863  -17.5514  -47.5042 H         1 UNK         0.0600 
    203 H203       -5.9502  -17.1898  -48.9456 H         1 UNK         0.0600 
    204 H204       -5.3457  -16.7058  -47.3677 H         1 UNK         0.0600 
    205 H205       -4.3878  -21.2719  -47.8272 H         1 UNK         0.3000 
    206 H206       -6.4790  -22.2946  -49.6664 H         1 UNK         0.0600 
    207 H207       -7.0658  -24.0466  -47.9982 H         1 UNK         0.0600 
    208 H208       -5.9113  -23.3865  -46.8460 H         1 UNK         0.0600 
    209 H209       -7.3483  -22.4674  -47.2867 H         1 UNK         0.0600 
    210 H210       -6.0165  -24.7316  -49.9751 H         1 UNK         0.3000 
    211 H211       -4.7666  -26.2711  -50.9650 H         1 UNK         0.0600 
    212 H212       -2.6960  -27.0356  -49.8311 H         1 UNK         0.0600 
    213 H213       -3.9343  -26.6699  -48.6471 H         1 UNK         0.0600 
    214 H214       -2.6113  -25.5419  -48.8981 H         1 UNK         0.0600 
    215 H215       -1.5583  -25.5017  -50.8140 H         1 UNK         0.3000 
    216 H216       -1.2856  -24.7965  -53.5290 H         1 UNK         0.0600 
    217 H217        0.6801  -24.4494  -51.2030 H         1 UNK         0.0600 
    218 H218        1.1014  -24.3827  -52.9104 H         1 UNK         0.0600 
    219 H219        0.5093  -25.8836  -52.2168 H         1 UNK         0.0600 
    220 H220       -1.6753  -22.7079  -50.6781 H         1 UNK         0.3000 
    221 H221       -0.8185  -20.2695  -51.9449 H         1 UNK         0.0600 
    222 H222       -0.8045  -20.6771  -49.4582 H         1 UNK         0.0600 
    223 H223       -2.5687  -20.6051  -49.4695 H         1 UNK         0.0600 
    224 H224       -1.6247  -19.1989  -49.9266 H         1 UNK         0.0600 
    225 H225       -3.6452  -22.1488  -52.3298 H         1 UNK         0.3000 
    226 H226       -5.1442  -19.8655  -53.5651 H         1 UNK         0.0600 
    227 H227       -6.1523  -22.5768  -52.5483 H         1 UNK         0.0600 
    228 H228       -6.4639  -21.0016  -51.8226 H         1 UNK         0.0600 
    229 H229       -7.1213  -21.3830  -53.4056 H         1 UNK         0.0600 
    230 H230       -4.2604  -23.3482  -53.9597 H         1 UNK         0.3000 
    231 H231       -5.2497  -23.4972  -56.6122 H         1 UNK         0.0600 
    232 H232       -3.4138  -25.3960  -55.0619 H         1 UNK         0.0600 
    233 H233       -4.3023  -25.7977  -56.5266 H         1 UNK         0.0600 
    234 H234       -5.1759  -25.4182  -55.0500 H         1 UNK         0.0600 
    235 H235       -1.8951  -23.0633  -55.3923 H         1 UNK         0.3000 
    236 H236       -0.8280  -23.2301  -58.1713 H         1 UNK         0.0600 
    237 H237        0.2571  -24.6447  -56.4197 H         1 UNK         0.0600 
    238 H238        1.3545  -23.4488  -57.0918 H         1 UNK         0.0600 
    239 H239        0.6641  -23.1989  -55.4981 H         1 UNK         0.0600 
    240 H240       -0.8558  -21.1209  -55.2609 H         1 UNK         0.3000 
    241 H241        0.4556  -18.9342  -56.6148 H         1 UNK         0.0600 
    242 H242       -3.4722  -18.2849  -57.3125 H         1 UNK         0.3800 
    243 H243       -2.9260  -19.8369  -56.7456 H         1 UNK         0.3800 
    244 H244       -0.9650  -18.9446  -53.9210 H         1 UNK         0.0800 
    245 H245        0.0404  -17.6643  -54.5312 H         1 UNK         0.0800 
    246 H246        3.3739  -18.4712  -53.2147 H         1 UNK         0.0800 
    247 H247        2.2741  -17.3366  -53.9404 H         1 UNK         0.0800 
@<TRIPOS>BOND
     1    1    2 1    
     2    1  127 1    
     3    1  128 1    
     4    1  129 1    
     5    2    3 2    
     6    2    4 am   BACKBONE|DICT|INTERRES
     7    4    5 1    
     8    4  130 1    
     9    5    6 1    
    10    5   65 1    
    11    5  131 1    
    12    6    7 1    
    13    6  132 1    
    14    6  133 1    
    15    7    8 1    
    16    8    9 1    
    17    8  134 1    
    18    8  135 1    
    19    9   10 ar   
    20    9   14 ar   
    21   10   11 ar   
    22   10  136 1    
    23   11   12 ar   
    24   11  126 1    
    25   12   13 ar   
    26   12  137 1    
    27   13   14 ar   
    28   13   15 1    
    29   14  138 1    
    30   15   16 1    
    31   15  139 1    
    32   15  140 1    
    33   16   17 1    
    34   17   18 1    
    35   17  141 1    
    36   17  142 1    
    37   18   19 1    
    38   18   67 1    
    39   18  143 1    
    40   19   20 am   BACKBONE|DICT|INTERRES
    41   19  144 1    
    42   20   21 2    
    43   20   22 1    
    44   22   23 1    
    45   22   24 1    
    46   22  145 1    
    47   23  146 1    
    48   23  147 1    
    49   23  148 1    
    50   24   25 am   BACKBONE|DICT|INTERRES
    51   24  149 1    
    52   25   26 2    
    53   25   27 1    
    54   27   28 1    
    55   27   29 1    
    56   27  150 1    
    57   28  151 1    
    58   28  152 1    
    59   28  153 1    
    60   29   30 am   BACKBONE|DICT|INTERRES
    61   29  154 1    
    62   30   31 2    
    63   30   32 1    
    64   32   33 1    
    65   32   34 1    
    66   32  155 1    
    67   33  156 1    
    68   33  157 1    
    69   33  158 1    
    70   34   35 am   BACKBONE|DICT|INTERRES
    71   34  159 1    
    72   35   36 2    
    73   35   37 1    
    74   37   38 1    
    75   37   39 1    
    76   37  160 1    
    77   38  161 1    
    78   38  162 1    
    79   38  163 1    
    80   39   40 am   BACKBONE|DICT|INTERRES
    81   39  164 1    
    82   40   41 2    
    83   40   42 1    
    84   42   43 1    
    85   42   44 1    
    86   42  165 1    
    87   43  166 1    
    88   43  167 1    
    89   43  168 1    
    90   44   45 am   BACKBONE|DICT|INTERRES
    91   44  169 1    
    92   45   46 2    
    93   45   47 1    
    94   47   48 1    
    95   47   49 1    
    96   47  170 1    
    97   48  171 1    
    98   48  172 1    
    99   48  173 1    
   100   49   50 am   BACKBONE|DICT|INTERRES
   101   49  174 1    
   102   50   51 2    
   103   50   52 1    
   104   52   53 1    
   105   52   54 1    
   106   52  175 1    
   107   53  176 1    
   108   53  177 1    
   109   53  178 1    
   110   54   55 am   BACKBONE|DICT|INTERRES
   111   54  179 1    
   112   55   56 2    
   113   55   57 1    
   114   57   58 1    
   115   57   59 1    
   116   57  180 1    
   117   58  181 1    
   118   58  182 1    
   119   58  183 1    
   120   59   60 am   BACKBONE|DICT|INTERRES
   121   59  184 1    
   122   60   61 2    
   123   60   62 1    
   124   62   63 1    
   125   62   64 1    
   126   62  185 1    
   127   63  186 1    
   128   63  187 1    
   129   63  188 1    
   130   64   65 am   BACKBONE|DICT|INTERRES
   131   64  189 1    
   132   65   66 2    
   133   67   68 2    
   134   67   69 am   BACKBONE|DICT|INTERRES
   135   69   70 1    
   136   69  190 1    
   137   70   71 1    
   138   70   72 1    
   139   70  191 1    
   140   71  192 1    
   141   71  193 1    
   142   71  194 1    
   143   72   73 2    
   144   72   74 am   BACKBONE|DICT|INTERRES
   145   74   75 1    
   146   74  195 1    
   147   75   76 1    
   148   75   77 1    
   149   75  196 1    
   150   76  197 1    
   151   76  198 1    
   152   76  199 1    
   153   77   78 2    
   154   77   79 am   BACKBONE|DICT|INTERRES
   155   79   80 1    
   156   79  200 1    
   157   80   81 1    
   158   80   82 1    
   159   80  201 1    
   160   81  202 1    
   161   81  203 1    
   162   81  204 1    
   163   82   83 2    
   164   82   84 am   BACKBONE|DICT|INTERRES
   165   84   85 1    
   166   84  205 1    
   167   85   86 1    
   168   85   87 1    
   169   85  206 1    
   170   86  207 1    
   171   86  208 1    
   172   86  209 1    
   173   87   88 2    
   174   87   89 am   BACKBONE|DICT|INTERRES
   175   89   90 1    
   176   89  210 1    
   177   90   91 1    
   178   90   92 1    
   179   90  211 1    
   180   91  212 1    
   181   91  213 1    
   182   91  214 1    
   183   92   93 2    
   184   92   94 am   BACKBONE|DICT|INTERRES
   185   94   95 1    
   186   94  215 1    
   187   95   96 1    
   188   95   97 1    
   189   95  216 1    
   190   96  217 1    
   191   96  218 1    
   192   96  219 1    
   193   97   98 2    
   194   97   99 am   BACKBONE|DICT|INTERRES
   195   99  100 1    
   196   99  220 1    
   197  100  101 1    
   198  100  102 1    
   199  100  221 1    
   200  101  222 1    
   201  101  223 1    
   202  101  224 1    
   203  102  103 2    
   204  102  104 am   BACKBONE|DICT|INTERRES
   205  104  105 1    
   206  104  225 1    
   207  105  106 1    
   208  105  107 1    
   209  105  226 1    
   210  106  227 1    
   211  106  228 1    
   212  106  229 1    
   213  107  108 2    
   214  107  109 am   BACKBONE|DICT|INTERRES
   215  109  110 1    
   216  109  230 1    
   217  110  111 1    
   218  110  112 1    
   219  110  231 1    
   220  111  232 1    
   221  111  233 1    
   222  111  234 1    
   223  112  113 2    
   224  112  114 am   BACKBONE|DICT|INTERRES
   225  114  115 1    
   226  114  235 1    
   227  115  116 1    
   228  115  117 1    
   229  115  236 1    
   230  116  237 1    
   231  116  238 1    
   232  116  239 1    
   233  117  118 2    
   234  117  119 am   BACKBONE|DICT|INTERRES
   235  119  120 1    
   236  119  240 1    
   237  120  121 1    
   238  120  124 1    
   239  120  241 1    
   240  121  122 am   BACKBONE|DICT|INTERRES
   241  121  123 2    
   242  122  242 1    
   243  122  243 1    
   244  124  125 1    
   245  124  244 1    
   246  124  245 1    
   247  125  126 1    
   248  126  246 1    
   249  126  247 1    
@<TRIPOS>SUBSTRUCTURE
     1 UNK         1 GROUP             0       ****    0 ROOT    
