@<TRIPOS>MOLECULE
3R540
247   249    1
SMALL
USER_CHARGES


@<TRIPOS>ATOM
      1 CA          6.8698  -15.4248  -46.6071 C.3       0 UNK        -0.1800 
      2 C           5.7548  -14.4960  -46.1486 C.2       0 UNK         0.5000 
      3 O           5.6350  -14.2299  -44.9557 O.2       0 UNK        -0.5000 
      4 N           4.9470  -14.0011  -47.0953 N.am      1 UNK        -0.5000 
      5 CA          3.7958  -13.1172  -46.8629 C.3       1 UNK         0.1400 
      6 C6          2.8970  -13.0679  -48.1248 C.3       23 UNK        -0.0398 
      7 S7          1.1655  -12.5993  -47.7829 S.3       23 UNK        -0.2404 
      8 C8          0.3695  -14.2044  -47.4554 C.3       23 UNK        -0.0205 
      9 C9          0.4096  -15.1363  -48.6588 C.ar      23 UNK        -0.0193 
     10 C10        -0.3865  -14.8816  -49.7803 C.ar      23 UNK        -0.1150 
     11 C11        -0.3131  -15.7041  -50.9099 C.ar      23 UNK        -0.0193 
     12 C12         0.5563  -16.8005  -50.8987 C.ar      23 UNK        -0.1150 
     13 C13         1.3443  -17.0767  -49.7782 C.ar      23 UNK        -0.0193 
     14 C14         1.2653  -16.2410  -48.6608 C.ar      23 UNK        -0.1150 
     15 C15         2.3141  -18.2504  -49.7978 C.3       23 UNK        -0.0205 
     16 S16         2.0229  -19.4246  -48.4398 S.3       23 UNK        -0.2404 
     17 C17         0.3300  -19.9971  -48.8069 C.3       23 UNK        -0.0398 
     18 CA          0.0754  -21.4124  -48.2441 C.3       11 UNK         0.1400 
     19 N           0.1949  -21.4687  -46.7854 N.am      11 UNK        -0.5000 
     20 C           0.2495  -22.6010  -46.0728 C.2       10 UNK         0.5000 
     21 O           0.2180  -23.7258  -46.5719 O.2       10 UNK        -0.5000 
     22 CA          0.3006  -22.4485  -44.5445 C.3       10 UNK         0.1400 
     23 CB          1.7270  -22.1331  -44.0691 C.3       10 UNK        -0.1800 
     24 N          -0.6155  -21.4092  -44.0775 N.am      10 UNK        -0.5000 
     25 C          -1.9500  -21.5292  -44.0686 C.2       9 UNK         0.5000 
     26 O          -2.5475  -22.5477  -44.4196 O.2       9 UNK        -0.5000 
     27 CA         -2.7471  -20.2855  -43.6314 C.3       9 UNK         0.1400 
     28 CB         -2.7870  -20.1736  -42.1002 C.3       9 UNK        -0.1800 
     29 N          -2.2099  -19.0460  -44.1980 N.am      9 UNK        -0.5000 
     30 C          -2.2356  -18.7543  -45.5079 C.2       8 UNK         0.5000 
     31 O          -2.7422  -19.4889  -46.3496 O.2       8 UNK        -0.5000 
     32 CA         -1.5633  -17.4483  -45.9726 C.3       8 UNK         0.1400 
     33 CB         -2.5951  -16.3112  -45.9478 C.3       8 UNK        -0.1800 
     34 N          -0.3938  -17.0631  -45.1808 N.am      8 UNK        -0.5000 
     35 C           0.6611  -17.8495  -44.9090 C.2       7 UNK         0.5000 
     36 O           0.8043  -18.9811  -45.3701 O.2       7 UNK        -0.5000 
     37 CA          1.6957  -17.3238  -43.8934 C.3       7 UNK         0.1400 
     38 CB          2.9133  -16.7517  -44.6351 C.3       7 UNK        -0.1800 
     39 N           1.1676  -16.3128  -42.9705 N.am      7 UNK        -0.5000 
     40 C           0.0878  -16.4550  -42.1815 C.2       6 UNK         0.5000 
     41 O          -0.5263  -17.5162  -42.0581 O.2       6 UNK        -0.5000 
     42 CA         -0.4463  -15.1969  -41.4621 C.3       6 UNK         0.1400 
     43 CB         -0.0756  -15.2357  -39.9721 C.3       6 UNK        -0.1800 
     44 N           0.0198  -13.9290  -42.0302 N.am      6 UNK        -0.5000 
     45 C          -0.1385  -13.5109  -43.2956 C.2       5 UNK         0.5000 
     46 O          -0.8009  -14.1190  -44.1371 O.2       5 UNK        -0.5000 
     47 CA          0.6368  -12.2404  -43.7066 C.3       5 UNK         0.1400 
     48 CB         -0.2969  -11.0227  -43.7425 C.3       5 UNK        -0.1800 
     49 N           1.7927  -11.9336  -42.8531 N.am      5 UNK        -0.5000 
     50 C           2.8472  -12.7354  -42.6489 C.2       4 UNK         0.5000 
     51 O           2.9409  -13.8591  -43.1437 O.2       4 UNK        -0.5000 
     52 CA          3.9492  -12.1962  -41.7140 C.3       4 UNK         0.1400 
     53 CB          5.0608  -13.2254  -41.4459 C.3       4 UNK        -0.1800 
     54 N           4.5566  -10.9786  -42.2448 N.am      4 UNK        -0.5000 
     55 C           4.0476   -9.7444  -42.1727 C.2       3 UNK         0.5000 
     56 O           2.9794   -9.4862  -41.6156 O.2       3 UNK        -0.5000 
     57 CA          4.8397   -8.6143  -42.8612 C.3       3 UNK         0.1400 
     58 CB          6.0701   -8.1978  -42.0322 C.3       3 UNK        -0.1800 
     59 N           5.1904   -8.9077  -44.2579 N.am      3 UNK        -0.5000 
     60 C           6.0293   -9.8353  -44.7393 C.2       2 UNK         0.5000 
     61 O           6.7305  -10.5701  -44.0402 O.2       2 UNK        -0.5000 
     62 CA          6.0360  -10.0111  -46.2693 C.3       2 UNK         0.1400 
     63 CB          7.4614   -9.9144  -46.8361 C.3       2 UNK        -0.1800 
     64 N           5.4512  -11.2943  -46.6603 N.am      2 UNK        -0.5000 
     65 C           4.1970  -11.6957  -46.3995 C.2       1 UNK         0.5000 
     66 O           3.3656  -10.9882  -45.8298 O.2       1 UNK        -0.5000 
     67 C          -1.2694  -21.9805  -48.7392 C.2       11 UNK         0.5000 
     68 O          -1.2925  -22.6191  -49.7913 O.2       11 UNK        -0.5000 
     69 N          -2.3562  -21.7762  -47.9808 N.am      12 UNK        -0.5000 
     70 CA         -3.6690  -22.3595  -48.2502 C.3       12 UNK         0.1400 
     71 CB         -4.7380  -21.7133  -47.3578 C.3       12 UNK        -0.1800 
     72 C          -3.6630  -23.8814  -48.0601 C.2       12 UNK         0.5000 
     73 O          -4.1963  -24.5928  -48.9102 O.2       12 UNK        -0.5000 
     74 N          -3.0345  -24.3585  -46.9758 N.am      13 UNK        -0.5000 
     75 CA         -2.8558  -25.7825  -46.6860 C.3       13 UNK         0.1400 
     76 CB         -2.2422  -25.9568  -45.2890 C.3       13 UNK        -0.1800 
     77 C          -2.0147  -26.4992  -47.7587 C.2       13 UNK         0.5000 
     78 O          -2.3974  -27.5812  -48.2061 O.2       13 UNK        -0.5000 
     79 N          -0.9248  -25.8524  -48.1980 N.am      14 UNK        -0.5000 
     80 CA         -0.0739  -26.2970  -49.3053 C.3       14 UNK         0.1400 
     81 CB          1.1598  -25.3868  -49.3951 C.3       14 UNK        -0.1800 
     82 C          -0.8142  -26.3423  -50.6573 C.2       14 UNK         0.5000 
     83 O          -0.5433  -27.2268  -51.4695 O.2       14 UNK        -0.5000 
     84 N          -1.7670  -25.4219  -50.8518 N.am      15 UNK        -0.5000 
     85 CA         -2.6642  -25.3421  -52.0046 C.3       15 UNK         0.1400 
     86 CB         -2.9969  -23.8650  -52.2752 C.3       15 UNK        -0.1800 
     87 C          -3.9402  -26.1959  -51.8402 C.2       15 UNK         0.5000 
     88 O          -4.9509  -25.8847  -52.4693 O.2       15 UNK        -0.5000 
     89 N          -3.8854  -27.2478  -51.0086 N.am      16 UNK        -0.5000 
     90 CA         -4.9335  -28.2481  -50.7744 C.3       16 UNK         0.1400 
     91 CB         -5.1452  -29.1106  -52.0368 C.3       16 UNK        -0.1800 
     92 C          -6.2432  -27.6378  -50.2335 C.2       16 UNK         0.5000 
     93 O          -7.3247  -27.9300  -50.7467 O.2       16 UNK        -0.5000 
     94 N          -6.1012  -26.7906  -49.2050 N.am      17 UNK        -0.5000 
     95 CA         -7.1464  -25.9886  -48.5609 C.3       17 UNK         0.1400 
     96 CB         -8.2445  -26.8728  -47.9320 C.3       17 UNK        -0.1800 
     97 C          -7.6885  -24.8978  -49.5063 C.2       17 UNK         0.5000 
     98 O          -8.9023  -24.7295  -49.6366 O.2       17 UNK        -0.5000 
     99 N          -6.7495  -24.1746  -50.1333 N.am      18 UNK        -0.5000 
    100 CA        -6.9417  -23.0513  -51.0533 C.3       18 UNK         0.1400 
    101 CB        -7.4952  -21.8249  -50.2970 C.3       18 UNK        -0.1800 
    102 C         -7.7792  -23.4240  -52.2940 C.2       18 UNK         0.5000 
    103 O         -8.7749  -22.7621  -52.5988 O.2       18 UNK        -0.5000 
    104 N         -7.3670  -24.4908  -52.9909 N.am      19 UNK        -0.5000 
    105 CA        -7.9969  -25.0008  -54.2081 C.3       19 UNK         0.1400 
    106 CB        -7.5453  -26.4548  -54.4338 C.3       19 UNK        -0.1800 
    107 C         -7.6967  -24.0926  -55.4189 C.2       19 UNK         0.5000 
    108 O         -6.8424  -24.4195  -56.2448 O.2       19 UNK        -0.5000 
    109 N         -8.4016  -22.9538  -55.4776 N.am      20 UNK        -0.5000 
    110 CA        -8.3260  -21.9006  -56.4982 C.3       20 UNK         0.1400 
    111 CB        -8.7647  -22.4338  -57.8788 C.3       20 UNK        -0.1800 
    112 C         -6.9631  -21.1743  -56.5335 C.2       20 UNK         0.5000 
    113 O         -6.5247  -20.7286  -57.5959 O.2       20 UNK        -0.5000 
    114 N         -6.3270  -21.0480  -55.3645 N.am      21 UNK        -0.5000 
    115 CA        -5.0636  -20.3546  -55.1416 C.3       21 UNK         0.1400 
    116 CB        -3.8874  -21.2585  -55.5539 C.3       21 UNK        -0.1800 
    117 C         -4.9747  -19.9771  -53.6571 C.2       21 UNK         0.5000 
    118 O         -5.6613  -20.5855  -52.8339 O.2       21 UNK        -0.5000 
    119 N         -4.1215  -18.9981  -53.3388 N.am      22 UNK        -0.5000 
    120 CA        -3.8465  -18.5310  -51.9672 C.3       22 UNK         0.1400 
    121 C         -2.9534  -19.4747  -51.1081 C.2       22 UNK         0.5000 
    122 N         -2.4355  -20.5738  -51.6437 N.am      22 UNK        -0.7600 
    123 O         -2.7484  -19.2117  -49.9285 O.2       22 UNK        -0.5000 
    124 C124       -3.3419  -17.0634  -51.9473 C.3       23 UNK        -0.0398 
    125 S125       -1.8779  -16.7733  -52.9992 S.3       23 UNK        -0.2404 
    126 C126       -1.1082  -15.3456  -52.1633 C.3       23 UNK        -0.0205 
    127 H127        6.7613  -16.4006  -46.1337 H         1 UNK         0.0600 
    128 H128        7.8395  -15.0140  -46.3257 H         1 UNK         0.0600 
    129 H129        6.8613  -15.5685  -47.6878 H         1 UNK         0.0600 
    130 H130        5.1144  -14.2559  -48.0584 H         1 UNK         0.3000 
    131 H131        3.2190  -13.5618  -46.0487 H         1 UNK         0.0600 
    132 H132        3.3018  -12.3722  -48.8621 H         1 UNK         0.0800 
    133 H133        2.8961  -14.0350  -48.6256 H         1 UNK         0.0800 
    134 H134        0.8332  -14.6687  -46.5839 H         1 UNK         0.0800 
    135 H135       -0.6669  -14.0100  -47.1841 H         1 UNK         0.0800 
    136 H136       -1.0361  -14.0175  -49.7834 H         1 UNK         0.1150 
    137 H137        0.6349  -17.4292  -51.7742 H         1 UNK         0.1150 
    138 H138        1.8858  -16.4442  -47.7992 H         1 UNK         0.1150 
    139 H139        2.2629  -18.7863  -50.7469 H         1 UNK         0.0800 
    140 H140        3.3316  -17.8659  -49.7169 H         1 UNK         0.0800 
    141 H141        0.1869  -19.9863  -49.8892 H         1 UNK         0.0800 
    142 H142       -0.3834  -19.2820  -48.3961 H         1 UNK         0.0800 
    143 H143        0.8503  -22.0662  -48.6501 H         1 UNK         0.0600 
    144 H144        0.2839  -20.5785  -46.3020 H         1 UNK         0.3000 
    145 H145       -0.0021  -23.3999  -44.1017 H         1 UNK         0.0600 
    146 H146        1.7751  -22.0700  -42.9820 H         1 UNK         0.0600 
    147 H147        2.4213  -22.9145  -44.3807 H         1 UNK         0.0600 
    148 H148        2.0924  -21.1899  -44.4764 H         1 UNK         0.0600 
    149 H149       -0.2077  -20.5136  -43.8490 H         1 UNK         0.3000 
    150 H150       -3.7719  -20.4051  -43.9894 H         1 UNK         0.0600 
    151 H151       -3.2096  -21.0747  -41.6540 H         1 UNK         0.0600 
    152 H152       -3.4037  -19.3328  -41.7826 H         1 UNK         0.0600 
    153 H153       -1.7903  -20.0344  -41.6796 H         1 UNK         0.0600 
    154 H154       -1.7441  -18.4126  -43.5576 H         1 UNK         0.3000 
    155 H155       -1.2306  -17.5891  -47.0023 H         1 UNK         0.0600 
    156 H156       -3.4788  -16.5721  -46.5318 H         1 UNK         0.0600 
    157 H157       -2.1924  -15.3949  -46.3718 H         1 UNK         0.0600 
    158 H158       -2.9245  -16.0904  -44.9316 H         1 UNK         0.0600 
    159 H159       -0.4352  -16.1480  -44.7467 H         1 UNK         0.3000 
    160 H160        2.0245  -18.1751  -43.2945 H         1 UNK         0.0600 
    161 H161        3.7034  -16.4676  -43.9396 H         1 UNK         0.0600 
    162 H162        2.6499  -15.8682  -45.2174 H         1 UNK         0.0600 
    163 H163        3.3353  -17.4849  -45.3240 H         1 UNK         0.0600 
    164 H164        1.6321  -15.4102  -42.9971 H         1 UNK         0.3000 
    165 H165       -1.5344  -15.2145  -41.5487 H         1 UNK         0.0600 
    166 H166       -0.5231  -14.4016  -39.4313 H         1 UNK         0.0600 
    167 H167       -0.4336  -16.1535  -39.5034 H         1 UNK         0.0600 
    168 H168        1.0045  -15.1920  -39.8259 H         1 UNK         0.0600 
    169 H169        0.5875  -13.3554  -41.4247 H         1 UNK         0.3000 
    170 H170        1.0161  -12.4099  -44.7158 H         1 UNK         0.0600 
    171 H171       -1.1530  -11.2058  -44.3934 H         1 UNK         0.0600 
    172 H172       -0.6814  -10.7814  -42.7508 H         1 UNK         0.0600 
    173 H173        0.2197  -10.1432  -44.1275 H         1 UNK         0.0600 
    174 H174        1.8135  -11.0157  -42.4228 H         1 UNK         0.3000 
    175 H175        3.4763  -11.9672  -40.7568 H         1 UNK         0.0600 
    176 H176        5.5997  -13.4809  -42.3587 H         1 UNK         0.0600 
    177 H177        5.7853  -12.8441  -40.7263 H         1 UNK         0.0600 
    178 H178        4.6507  -14.1491  -41.0356 H         1 UNK         0.0600 
    179 H179        5.4147  -11.0934  -42.7778 H         1 UNK         0.3000 
    180 H180        4.1741   -7.7507  -42.9039 H         1 UNK         0.0600 
    181 H181        6.7797   -9.0158  -41.9065 H         1 UNK         0.0600 
    182 H182        5.7715   -7.8738  -41.0345 H         1 UNK         0.0600 
    183 H183        6.5967   -7.3659  -42.4998 H         1 UNK         0.0600 
    184 H184        4.6284   -8.4093  -44.9343 H         1 UNK         0.3000 
    185 H185        5.4376   -9.2180  -46.7222 H         1 UNK         0.0600 
    186 H186        7.9256   -8.9660  -46.5626 H         1 UNK         0.0600 
    187 H187        8.1013  -10.7136  -46.4594 H         1 UNK         0.0600 
    188 H188        7.4584   -9.9721  -47.9247 H         1 UNK         0.0600 
    189 H189        6.0736  -11.9543  -47.1020 H         1 UNK         0.3000 
    190 H190       -2.3019  -21.1333  -47.1960 H         1 UNK         0.3000 
    191 H191       -3.9283  -22.1519  -49.2905 H         1 UNK         0.0600 
    192 H192       -4.4785  -21.7826  -46.3012 H         1 UNK         0.0600 
    193 H193       -5.7065  -22.1973  -47.4886 H         1 UNK         0.0600 
    194 H194       -4.8652  -20.6589  -47.6039 H         1 UNK         0.0600 
    195 H195       -2.6409  -23.7040  -46.3100 H         1 UNK         0.3000 
    196 H196       -3.8453  -26.2444  -46.6788 H         1 UNK         0.0600 
    197 H197       -2.1369  -27.0131  -45.0388 H         1 UNK         0.0600 
    198 H198       -2.8712  -25.5019  -44.5236 H         1 UNK         0.0600 
    199 H199       -1.2536  -25.5034  -45.2198 H         1 UNK         0.0600 
    200 H200       -0.6532  -24.9892  -47.7341 H         1 UNK         0.3000 
    201 H201        0.2642  -27.3100  -49.0781 H         1 UNK         0.0600 
    202 H202        1.7205  -25.3876  -48.4602 H         1 UNK         0.0600 
    203 H203        0.8825  -24.3564  -49.6183 H         1 UNK         0.0600 
    204 H204        1.8365  -25.7225  -50.1818 H         1 UNK         0.0600 
    205 H205       -1.9015  -24.7134  -50.1407 H         1 UNK         0.3000 
    206 H206       -2.1459  -25.7270  -52.8849 H         1 UNK         0.0600 
    207 H207       -2.0887  -23.2919  -52.4592 H         1 UNK         0.0600 
    208 H208       -3.6315  -23.7521  -53.1545 H         1 UNK         0.0600 
    209 H209       -3.5178  -23.4106  -51.4324 H         1 UNK         0.0600 
    210 H210       -3.0317  -27.3856  -50.4839 H         1 UNK         0.3000 
    211 H211       -4.5574  -28.9047  -49.9885 H         1 UNK         0.0600 
    212 H212       -5.5558  -28.5281  -52.8623 H         1 UNK         0.0600 
    213 H213       -5.8376  -29.9295  -51.8389 H         1 UNK         0.0600 
    214 H214       -4.2078  -29.5535  -52.3731 H         1 UNK         0.0600 
    215 H215       -5.1556  -26.5498  -48.9337 H         1 UNK         0.3000 
    216 H216       -6.6559  -25.4596  -47.7423 H         1 UNK         0.0600 
    217 H217       -8.9267  -26.2716  -47.3301 H         1 UNK         0.0600 
    218 H218       -7.8140  -27.6293  -47.2760 H         1 UNK         0.0600 
    219 H219       -8.8441  -27.3829  -48.6860 H         1 UNK         0.0600 
    220 H220       -5.7822  -24.4158  -49.9347 H         1 UNK         0.3000 
    221 H221       -5.9492  -22.7912  -51.4220 H         1 UNK         0.0600 
    222 H222       -8.4783  -22.0197  -49.8682 H         1 UNK         0.0600 
    223 H223       -6.8279  -21.5254  -49.4906 H         1 UNK         0.0600 
    224 H224       -7.5951  -20.9668  -50.9625 H         1 UNK         0.0600 
    225 H225       -6.5217  -24.9780  -52.6965 H         1 UNK         0.3000 
    226 H226       -9.0787  -25.0150  -54.0596 H         1 UNK         0.0600 
    227 H227       -7.7944  -27.0819  -53.5773 H         1 UNK         0.0600 
    228 H228       -8.0365  -26.8843  -55.3076 H         1 UNK         0.0600 
    229 H229       -6.4690  -26.5253  -54.5948 H         1 UNK         0.0600 
    230 H230       -9.0045  -22.7533  -54.6862 H         1 UNK         0.3000 
    231 H231       -9.0535  -21.1448  -56.1989 H         1 UNK         0.0600 
    232 H232       -9.7333  -22.9303  -57.8206 H         1 UNK         0.0600 
    233 H233       -8.0462  -23.1451  -58.2869 H         1 UNK         0.0600 
    234 H234       -8.8622  -21.6206  -58.5991 H         1 UNK         0.0600 
    235 H235       -6.7583  -21.3995  -54.5185 H         1 UNK         0.3000 
    236 H236       -5.0477  -19.4356  -55.7313 H         1 UNK         0.0600 
    237 H237       -2.9296  -20.7715  -55.3675 H         1 UNK         0.0600 
    238 H238       -3.8940  -22.1990  -55.0026 H         1 UNK         0.0600 
    239 H239       -3.9256  -21.4972  -56.6168 H         1 UNK         0.0600 
    240 H240       -3.5739  -18.5563  -54.0636 H         1 UNK         0.3000 
    241 H241       -4.8046  -18.5246  -51.4435 H         1 UNK         0.0600 
    242 H242       -1.9140  -21.2180  -51.0625 H         1 UNK         0.3800 
    243 H243       -2.5980  -20.7900  -52.6118 H         1 UNK         0.3800 
    244 H244       -4.1365  -16.4044  -52.2993 H         1 UNK         0.0800 
    245 H245       -3.1277  -16.7433  -50.9257 H         1 UNK         0.0800 
    246 H246       -1.8817  -14.6104  -51.9356 H         1 UNK         0.0800 
    247 H247       -0.4275  -14.8639  -52.8662 H         1 UNK         0.0800 
@<TRIPOS>BOND
     1    1    2 1    
     2    1  127 1    
     3    1  128 1    
     4    1  129 1    
     5    2    3 2    
     6    2    4 am   BACKBONE|DICT|INTERRES
     7    4    5 1    
     8    4  130 1    
     9    5    6 1    
    10    5   65 1    
    11    5  131 1    
    12    6    7 1    
    13    6  132 1    
    14    6  133 1    
    15    7    8 1    
    16    8    9 1    
    17    8  134 1    
    18    8  135 1    
    19    9   10 ar   
    20    9   14 ar   
    21   10   11 ar   
    22   10  136 1    
    23   11   12 ar   
    24   11  126 1    
    25   12   13 ar   
    26   12  137 1    
    27   13   14 ar   
    28   13   15 1    
    29   14  138 1    
    30   15   16 1    
    31   15  139 1    
    32   15  140 1    
    33   16   17 1    
    34   17   18 1    
    35   17  141 1    
    36   17  142 1    
    37   18   19 1    
    38   18   67 1    
    39   18  143 1    
    40   19   20 am   BACKBONE|DICT|INTERRES
    41   19  144 1    
    42   20   21 2    
    43   20   22 1    
    44   22   23 1    
    45   22   24 1    
    46   22  145 1    
    47   23  146 1    
    48   23  147 1    
    49   23  148 1    
    50   24   25 am   BACKBONE|DICT|INTERRES
    51   24  149 1    
    52   25   26 2    
    53   25   27 1    
    54   27   28 1    
    55   27   29 1    
    56   27  150 1    
    57   28  151 1    
    58   28  152 1    
    59   28  153 1    
    60   29   30 am   BACKBONE|DICT|INTERRES
    61   29  154 1    
    62   30   31 2    
    63   30   32 1    
    64   32   33 1    
    65   32   34 1    
    66   32  155 1    
    67   33  156 1    
    68   33  157 1    
    69   33  158 1    
    70   34   35 am   BACKBONE|DICT|INTERRES
    71   34  159 1    
    72   35   36 2    
    73   35   37 1    
    74   37   38 1    
    75   37   39 1    
    76   37  160 1    
    77   38  161 1    
    78   38  162 1    
    79   38  163 1    
    80   39   40 am   BACKBONE|DICT|INTERRES
    81   39  164 1    
    82   40   41 2    
    83   40   42 1    
    84   42   43 1    
    85   42   44 1    
    86   42  165 1    
    87   43  166 1    
    88   43  167 1    
    89   43  168 1    
    90   44   45 am   BACKBONE|DICT|INTERRES
    91   44  169 1    
    92   45   46 2    
    93   45   47 1    
    94   47   48 1    
    95   47   49 1    
    96   47  170 1    
    97   48  171 1    
    98   48  172 1    
    99   48  173 1    
   100   49   50 am   BACKBONE|DICT|INTERRES
   101   49  174 1    
   102   50   51 2    
   103   50   52 1    
   104   52   53 1    
   105   52   54 1    
   106   52  175 1    
   107   53  176 1    
   108   53  177 1    
   109   53  178 1    
   110   54   55 am   BACKBONE|DICT|INTERRES
   111   54  179 1    
   112   55   56 2    
   113   55   57 1    
   114   57   58 1    
   115   57   59 1    
   116   57  180 1    
   117   58  181 1    
   118   58  182 1    
   119   58  183 1    
   120   59   60 am   BACKBONE|DICT|INTERRES
   121   59  184 1    
   122   60   61 2    
   123   60   62 1    
   124   62   63 1    
   125   62   64 1    
   126   62  185 1    
   127   63  186 1    
   128   63  187 1    
   129   63  188 1    
   130   64   65 am   BACKBONE|DICT|INTERRES
   131   64  189 1    
   132   65   66 2    
   133   67   68 2    
   134   67   69 am   BACKBONE|DICT|INTERRES
   135   69   70 1    
   136   69  190 1    
   137   70   71 1    
   138   70   72 1    
   139   70  191 1    
   140   71  192 1    
   141   71  193 1    
   142   71  194 1    
   143   72   73 2    
   144   72   74 am   BACKBONE|DICT|INTERRES
   145   74   75 1    
   146   74  195 1    
   147   75   76 1    
   148   75   77 1    
   149   75  196 1    
   150   76  197 1    
   151   76  198 1    
   152   76  199 1    
   153   77   78 2    
   154   77   79 am   BACKBONE|DICT|INTERRES
   155   79   80 1    
   156   79  200 1    
   157   80   81 1    
   158   80   82 1    
   159   80  201 1    
   160   81  202 1    
   161   81  203 1    
   162   81  204 1    
   163   82   83 2    
   164   82   84 am   BACKBONE|DICT|INTERRES
   165   84   85 1    
   166   84  205 1    
   167   85   86 1    
   168   85   87 1    
   169   85  206 1    
   170   86  207 1    
   171   86  208 1    
   172   86  209 1    
   173   87   88 2    
   174   87   89 am   BACKBONE|DICT|INTERRES
   175   89   90 1    
   176   89  210 1    
   177   90   91 1    
   178   90   92 1    
   179   90  211 1    
   180   91  212 1    
   181   91  213 1    
   182   91  214 1    
   183   92   93 2    
   184   92   94 am   BACKBONE|DICT|INTERRES
   185   94   95 1    
   186   94  215 1    
   187   95   96 1    
   188   95   97 1    
   189   95  216 1    
   190   96  217 1    
   191   96  218 1    
   192   96  219 1    
   193   97   98 2    
   194   97   99 am   BACKBONE|DICT|INTERRES
   195   99  100 1    
   196   99  220 1    
   197  100  101 1    
   198  100  102 1    
   199  100  221 1    
   200  101  222 1    
   201  101  223 1    
   202  101  224 1    
   203  102  103 2    
   204  102  104 am   BACKBONE|DICT|INTERRES
   205  104  105 1    
   206  104  225 1    
   207  105  106 1    
   208  105  107 1    
   209  105  226 1    
   210  106  227 1    
   211  106  228 1    
   212  106  229 1    
   213  107  108 2    
   214  107  109 am   BACKBONE|DICT|INTERRES
   215  109  110 1    
   216  109  230 1    
   217  110  111 1    
   218  110  112 1    
   219  110  231 1    
   220  111  232 1    
   221  111  233 1    
   222  111  234 1    
   223  112  113 2    
   224  112  114 am   BACKBONE|DICT|INTERRES
   225  114  115 1    
   226  114  235 1    
   227  115  116 1    
   228  115  117 1    
   229  115  236 1    
   230  116  237 1    
   231  116  238 1    
   232  116  239 1    
   233  117  118 2    
   234  117  119 am   BACKBONE|DICT|INTERRES
   235  119  120 1    
   236  119  240 1    
   237  120  121 1    
   238  120  124 1    
   239  120  241 1    
   240  121  122 am   BACKBONE|DICT|INTERRES
   241  121  123 2    
   242  122  242 1    
   243  122  243 1    
   244  124  125 1    
   245  124  244 1    
   246  124  245 1    
   247  125  126 1    
   248  126  246 1    
   249  126  247 1    
@<TRIPOS>SUBSTRUCTURE
     1 UNK         1 GROUP             0       ****    0 ROOT    
