@<TRIPOS>MOLECULE
3R540
247   249    1
SMALL
USER_CHARGES


@<TRIPOS>ATOM
      1 CA         -1.8874  -12.6552  -48.7264 C.3       0 UNK        -0.1800 
      2 C          -0.4079  -12.6221  -49.0812 C.2       0 UNK         0.5000 
      3 O           0.0564  -11.6623  -49.6958 O.2       0 UNK        -0.5000 
      4 N           0.3298  -13.6724  -48.7014 N.am      1 UNK        -0.5000 
      5 CA          1.7688  -13.8403  -48.9505 C.3       1 UNK         0.1400 
      6 C6          2.2400  -15.2849  -48.6573 C.3       23 UNK        -0.0398 
      7 S7          1.3021  -16.5369  -49.5947 S.3       23 UNK        -0.2404 
      8 C8          2.5899  -17.1890  -50.6972 C.3       23 UNK        -0.0205 
      9 C9          2.1014  -18.4419  -51.4007 C.ar      23 UNK        -0.0193 
     10 C10         1.6486  -18.3884  -52.7194 C.ar      23 UNK        -0.1150 
     11 C11         1.1702  -19.5397  -53.3511 C.ar      23 UNK        -0.0193 
     12 C12         1.1849  -20.7550  -52.6590 C.ar      23 UNK        -0.1150 
     13 C13         1.6471  -20.8308  -51.3404 C.ar      23 UNK        -0.0193 
     14 C14         2.0995  -19.6598  -50.7194 C.ar      23 UNK        -0.1150 
     15 C15         1.6263  -22.1907  -50.6370 C.3       23 UNK        -0.0205 
     16 S16         2.6317  -22.3257  -49.1170 S.3       23 UNK        -0.2404 
     17 C17         1.5642  -21.5256  -47.8675 C.3       23 UNK        -0.0398 
     18 CA          0.8645  -22.5579  -46.9482 C.3       11 UNK         0.1400 
     19 N           0.7165  -22.0571  -45.5799 N.am      11 UNK        -0.5000 
     20 C           0.6254  -22.8340  -44.4919 C.2       10 UNK         0.5000 
     21 O           0.6566  -24.0645  -44.5260 O.2       10 UNK        -0.5000 
     22 CA          0.4691  -22.1186  -43.1360 C.3       10 UNK         0.1400 
     23 CB          1.8475  -21.7836  -42.5464 C.3       10 UNK        -0.1800 
     24 N          -0.3272  -20.8945  -43.2247 N.am      10 UNK        -0.5000 
     25 C          -1.6374  -20.8639  -43.5035 C.2       9 UNK         0.5000 
     26 O          -2.3290  -21.8732  -43.6363 O.2       9 UNK        -0.5000 
     27 CA         -2.2758  -19.4770  -43.7091 C.3       9 UNK         0.1400 
     28 CB         -2.7401  -18.8915  -42.3680 C.3       9 UNK        -0.1800 
     29 N          -1.3976  -18.5141  -44.3787 N.am      9 UNK        -0.5000 
     30 C          -0.8640  -18.6676  -45.5992 C.2       8 UNK         0.5000 
     31 O          -1.0081  -19.6741  -46.2903 O.2       8 UNK        -0.5000 
     32 CA          0.0310  -17.5267  -46.1046 C.3       8 UNK         0.1400 
     33 CB         -0.7979  -16.2949  -46.5060 C.3       8 UNK        -0.1800 
     34 N           1.0005  -17.1484  -45.0818 N.am      8 UNK        -0.5000 
     35 C           2.0922  -17.8629  -44.7763 C.2       7 UNK         0.5000 
     36 O           2.4306  -18.8870  -45.3697 O.2       7 UNK        -0.5000 
     37 CA          2.9307  -17.3575  -43.5874 C.3       7 UNK         0.1400 
     38 CB          3.9595  -16.3202  -44.0629 C.3       7 UNK        -0.1800 
     39 N           2.1143  -16.7702  -42.5224 N.am      7 UNK        -0.5000 
     40 C           1.2264  -17.4479  -41.7808 C.2       6 UNK         0.5000 
     41 O           1.0152  -18.6543  -41.8979 O.2       6 UNK        -0.5000 
     42 CA          0.3992  -16.6274  -40.7744 C.3       6 UNK         0.1400 
     43 CB          1.1621  -16.4717  -39.4508 C.3       6 UNK        -0.1800 
     44 N           0.0137  -15.3017  -41.2644 N.am      6 UNK        -0.5000 
     45 C          -0.6873  -15.0404  -42.3745 C.2       5 UNK         0.5000 
     46 O          -1.0541  -15.9143  -43.1600 O.2       5 UNK        -0.5000 
     47 CA         -1.0157  -13.5670  -42.6918 C.3       5 UNK         0.1400 
     48 CB         -2.4154  -13.1947  -42.1705 C.3       5 UNK        -0.1800 
     49 N          -0.0097  -12.5823  -42.2640 N.am      5 UNK        -0.5000 
     50 C           0.3724  -12.2359  -41.0232 C.2       4 UNK         0.5000 
     51 O          -0.0623  -12.7677  -40.0015 O.2       4 UNK        -0.5000 
     52 CA          1.4497  -11.1396  -40.8893 C.3       4 UNK         0.1400 
     53 CB          2.8072  -11.7726  -40.5445 C.3       4 UNK        -0.1800 
     54 N           1.6077  -10.3233  -42.0932 N.am      4 UNK        -0.5000 
     55 C           0.7177   -9.4287  -42.5454 C.2       3 UNK         0.5000 
     56 O          -0.3101   -9.1219  -41.9407 O.2       3 UNK        -0.5000 
     57 CA          1.0135   -8.7882  -43.9177 C.3       3 UNK         0.1400 
     58 CB          1.5960   -7.3779  -43.7376 C.3       3 UNK        -0.1800 
     59 N           1.9214   -9.5743  -44.7632 N.am      3 UNK        -0.5000 
     60 C           1.6585  -10.7939  -45.2500 C.2       2 UNK         0.5000 
     61 O           0.6230  -11.4228  -45.0119 O.2       2 UNK        -0.5000 
     62 CA          2.7599  -11.4433  -46.0948 C.3       2 UNK         0.1400 
     63 CB          3.7876  -12.1530  -45.1946 C.3       2 UNK        -0.1800 
     64 N           2.1342  -12.4075  -46.9888 N.am      2 UNK        -0.5000 
     65 C           2.6338  -12.8421  -48.1507 C.2       1 UNK         0.5000 
     66 O           3.7285  -12.4951  -48.5961 O.2       1 UNK        -0.5000 
     67 C          -0.4816  -23.0165  -47.5444 C.2       11 UNK         0.5000 
     68 O          -0.4896  -23.9355  -48.3617 O.2       11 UNK        -0.5000 
     69 N          -1.5903  -22.3847  -47.1237 N.am      12 UNK        -0.5000 
     70 CA         -2.9639  -22.5984  -47.6005 C.3       12 UNK         0.1400 
     71 CB         -3.9382  -21.8138  -46.7081 C.3       12 UNK        -0.1800 
     72 C          -3.4041  -24.0716  -47.6591 C.2       12 UNK         0.5000 
     73 O          -4.0917  -24.4669  -48.6014 O.2       12 UNK        -0.5000 
     74 N          -2.9556  -24.8596  -46.6740 N.am      13 UNK        -0.5000 
     75 CA         -3.2027  -26.2943  -46.5363 C.3       13 UNK         0.1400 
     76 CB         -2.6070  -26.7638  -45.2002 C.3       13 UNK        -0.1800 
     77 C          -2.6692  -27.1603  -47.6972 C.2       13 UNK         0.5000 
     78 O          -3.1281  -28.2931  -47.8473 O.2       13 UNK        -0.5000 
     79 N          -1.7356  -26.6307  -48.5034 N.am      14 UNK        -0.5000 
     80 CA         -1.1546  -27.3093  -49.6643 C.3       14 UNK         0.1400 
     81 CB          0.0312  -26.4881  -50.1941 C.3       14 UNK        -0.1800 
     82 C          -2.1619  -27.5810  -50.7992 C.2       14 UNK         0.5000 
     83 O          -1.9653  -28.5354  -51.5530 O.2       14 UNK        -0.5000 
     84 N          -3.2136  -26.7564  -50.9050 N.am      15 UNK        -0.5000 
     85 CA         -4.2548  -26.8824  -51.9272 C.3       15 UNK         0.1400 
     86 CB         -3.7827  -26.2484  -53.2498 C.3       15 UNK        -0.1800 
     87 C          -5.5991  -26.3131  -51.4432 C.2       15 UNK         0.5000 
     88 O          -6.3531  -25.7693  -52.2510 O.2       15 UNK        -0.5000 
     89 N          -5.8687  -26.4210  -50.1324 N.am      16 UNK        -0.5000 
     90 CA         -7.0980  -26.0041  -49.4371 C.3       16 UNK         0.1400 
     91 CB         -8.2284  -27.0093  -49.7379 C.3       16 UNK        -0.1800 
     92 C          -7.5206  -24.5411  -49.7133 C.2       16 UNK         0.5000 
     93 O          -8.7129  -24.2497  -49.8210 O.2       16 UNK        -0.5000 
     94 N          -6.5203  -23.6612  -49.8647 N.am      17 UNK        -0.5000 
     95 CA         -6.6020  -22.2462  -50.2488 C.3       17 UNK         0.1400 
     96 CB         -7.3608  -21.4350  -49.1781 C.3       17 UNK        -0.1800 
     97 C          -7.1654  -21.9817  -51.6672 C.2       17 UNK         0.5000 
     98 O          -7.4031  -20.8215  -52.0059 O.2       17 UNK        -0.5000 
     99 N          -7.3700  -23.0280  -52.4819 N.am      18 UNK        -0.5000 
    100 CA        -7.9146  -22.9204  -53.8385 C.3       18 UNK         0.1400 
    101 CB        -8.6291  -24.2299  -54.2064 C.3       18 UNK        -0.1800 
    102 C         -6.8270  -22.5893  -54.8749 C.2       18 UNK         0.5000 
    103 O         -7.1120  -21.9089  -55.8611 O.2       18 UNK        -0.5000 
    104 N         -5.6027  -23.0658  -54.6250 N.am      19 UNK        -0.5000 
    105 CA        -4.4118  -22.8316  -55.4424 C.3       19 UNK         0.1400 
    106 CB        -4.2787  -23.9436  -56.5000 C.3       19 UNK        -0.1800 
    107 C         -3.1739  -22.7038  -54.5364 C.2       19 UNK         0.5000 
    108 O         -2.0875  -23.1609  -54.8936 O.2       19 UNK        -0.5000 
    109 N         -3.3760  -22.1128  -53.3550 N.am      20 UNK        -0.5000 
    110 CA        -2.3772  -21.9007  -52.3181 C.3       20 UNK         0.1400 
    111 CB        -2.3347  -23.1268  -51.3903 C.3       20 UNK        -0.1800 
    112 C         -2.7386  -20.6229  -51.5510 C.2       20 UNK         0.5000 
    113 O         -3.8932  -20.1934  -51.6122 O.2       20 UNK        -0.5000 
    114 N         -1.7517  -20.0523  -50.8433 N.am      21 UNK        -0.5000 
    115 CA        -1.8324  -18.7874  -50.0972 C.3       21 UNK         0.1400 
    116 CB        -2.8388  -18.9000  -48.9360 C.3       21 UNK        -0.1800 
    117 C         -2.1156  -17.5871  -51.0249 C.2       21 UNK         0.5000 
    118 O         -2.9632  -16.7455  -50.7236 O.2       21 UNK        -0.5000 
    119 N         -1.4176  -17.5688  -52.1662 N.am      22 UNK        -0.5000 
    120 CA        -1.6586  -16.6658  -53.3018 C.3       22 UNK         0.1400 
    121 C         -1.2963  -15.1712  -53.0574 C.2       22 UNK         0.5000 
    122 N         -0.5425  -14.8287  -52.0201 N.am      22 UNK        -0.7600 
    123 O         -1.7044  -14.3078  -53.8290 O.2       22 UNK        -0.5000 
    124 C124       -0.9919  -17.1735  -54.6120 C.3       23 UNK        -0.0398 
    125 S125       -1.0973  -18.9832  -54.8801 S.3       23 UNK        -0.2404 
    126 C126        0.6571  -19.4798  -54.7845 C.3       23 UNK        -0.0205 
    127 H127       -2.4909  -12.6054  -49.6328 H         1 UNK         0.0600 
    128 H128       -2.1416  -11.8024  -48.0970 H         1 UNK         0.0600 
    129 H129       -2.1559  -13.5660  -48.1904 H         1 UNK         0.0600 
    130 H130       -0.1211  -14.4447  -48.2347 H         1 UNK         0.3000 
    131 H131        1.9444  -13.6382  -50.0094 H         1 UNK         0.0600 
    132 H132        2.1372  -15.5167  -47.5957 H         1 UNK         0.0800 
    133 H133        3.3032  -15.3881  -48.8818 H         1 UNK         0.0800 
    134 H134        2.8749  -16.4223  -51.4194 H         1 UNK         0.0800 
    135 H135        3.4858  -17.4266  -50.1214 H         1 UNK         0.0800 
    136 H136        1.6654  -17.4457  -53.2459 H         1 UNK         0.1150 
    137 H137        0.8421  -21.6521  -53.1558 H         1 UNK         0.1150 
    138 H138        2.4596  -19.6740  -49.7022 H         1 UNK         0.1150 
    139 H139        0.5970  -22.4640  -50.4107 H         1 UNK         0.0800 
    140 H140        1.9929  -22.9466  -51.3332 H         1 UNK         0.0800 
    141 H141        0.8494  -20.8456  -48.3355 H         1 UNK         0.0800 
    142 H142        2.2231  -20.8875  -47.2766 H         1 UNK         0.0800 
    143 H143        1.5000  -23.4448  -46.8920 H         1 UNK         0.0600 
    144 H144        0.6396  -21.0543  -45.4720 H         1 UNK         0.3000 
    145 H145       -0.0367  -22.8051  -42.4538 H         1 UNK         0.0600 
    146 H146        2.4687  -22.6767  -42.4680 H         1 UNK         0.0600 
    147 H147        2.3835  -21.0611  -43.1638 H         1 UNK         0.0600 
    148 H148        1.7552  -21.3634  -41.5448 H         1 UNK         0.0600 
    149 H149        0.1570  -20.0200  -43.0445 H         1 UNK         0.3000 
    150 H150       -3.1535  -19.6108  -44.3442 H         1 UNK         0.0600 
    151 H151       -3.2300  -17.9271  -42.5046 H         1 UNK         0.0600 
    152 H152       -1.9037  -18.7493  -41.6840 H         1 UNK         0.0600 
    153 H153       -3.4546  -19.5547  -41.8791 H         1 UNK         0.0600 
    154 H154       -1.2255  -17.6411  -43.8861 H         1 UNK         0.3000 
    155 H155        0.5737  -17.8781  -46.9846 H         1 UNK         0.0600 
    156 H156       -1.3129  -16.4651  -47.4508 H         1 UNK         0.0600 
    157 H157       -0.1643  -15.4191  -46.6320 H         1 UNK         0.0600 
    158 H158       -1.5545  -16.0434  -45.7623 H         1 UNK         0.0600 
    159 H159        0.7490  -16.3712  -44.4875 H         1 UNK         0.3000 
    160 H160        3.4675  -18.2124  -43.1707 H         1 UNK         0.0600 
    161 H161        4.6056  -16.7382  -44.8361 H         1 UNK         0.0600 
    162 H162        4.6023  -15.9963  -43.2442 H         1 UNK         0.0600 
    163 H163        3.4772  -15.4364  -44.4822 H         1 UNK         0.0600 
    164 H164        2.2178  -15.7800  -42.3581 H         1 UNK         0.3000 
    165 H165       -0.5195  -17.1803  -40.5734 H         1 UNK         0.0600 
    166 H166        0.5484  -15.9754  -38.6987 H         1 UNK         0.0600 
    167 H167        1.4476  -17.4439  -39.0466 H         1 UNK         0.0600 
    168 H168        2.0739  -15.8867  -39.5778 H         1 UNK         0.0600 
    169 H169        0.2103  -14.5126  -40.6557 H         1 UNK         0.3000 
    170 H170       -1.0452  -13.4925  -43.7801 H         1 UNK         0.0600 
    171 H171       -2.6848  -12.1786  -42.4589 H         1 UNK         0.0600 
    172 H172       -3.1737  -13.8616  -42.5830 H         1 UNK         0.0600 
    173 H173       -2.4785  -13.2638  -41.0843 H         1 UNK         0.0600 
    174 H174        0.4187  -12.0815  -43.0345 H         1 UNK         0.3000 
    175 H175        1.1536  -10.4863  -40.0659 H         1 UNK         0.0600 
    176 H176        3.1592  -12.4302  -41.3405 H         1 UNK         0.0600 
    177 H177        3.5676  -11.0093  -40.3780 H         1 UNK         0.0600 
    178 H178        2.7423  -12.3674  -39.6323 H         1 UNK         0.0600 
    179 H179        2.4325  -10.4925  -42.6489 H         1 UNK         0.3000 
    180 H180        0.0609   -8.7004  -44.4444 H         1 UNK         0.0600 
    181 H181        1.7273   -6.8790  -44.6979 H         1 UNK         0.0600 
    182 H182        2.5641   -7.4036  -43.2358 H         1 UNK         0.0600 
    183 H183        0.9320   -6.7537  -43.1379 H         1 UNK         0.0600 
    184 H184        2.8023   -9.1367  -44.9940 H         1 UNK         0.3000 
    185 H185        3.2534  -10.6677  -46.6843 H         1 UNK         0.0600 
    186 H186        3.3180  -12.9195  -44.5769 H         1 UNK         0.0600 
    187 H187        4.5686  -12.6325  -45.7848 H         1 UNK         0.0600 
    188 H188        4.2782  -11.4457  -44.5250 H         1 UNK         0.0600 
    189 H189        1.2021  -12.6862  -46.7092 H         1 UNK         0.3000 
    190 H190       -1.4601  -21.5925  -46.5026 H         1 UNK         0.3000 
    191 H191       -3.0212  -22.1933  -48.6116 H         1 UNK         0.0600 
    192 H192       -3.9853  -22.2318  -45.7023 H         1 UNK         0.0600 
    193 H193       -4.9471  -21.8436  -47.1176 H         1 UNK         0.0600 
    194 H194       -3.6573  -20.7663  -46.6128 H         1 UNK         0.0600 
    195 H195       -2.3737  -24.4354  -45.9658 H         1 UNK         0.3000 
    196 H196       -4.2843  -26.4381  -46.5001 H         1 UNK         0.0600 
    197 H197       -2.7922  -27.8266  -45.0385 H         1 UNK         0.0600 
    198 H198       -3.0492  -26.2275  -44.3603 H         1 UNK         0.0600 
    199 H199       -1.5276  -26.6088  -45.1665 H         1 UNK         0.0600 
    200 H200       -1.4052  -25.6862  -48.3258 H         1 UNK         0.3000 
    201 H201       -0.7737  -28.2752  -49.3264 H         1 UNK         0.0600 
    202 H202        0.7781  -26.3238  -49.4172 H         1 UNK         0.0600 
    203 H203       -0.2884  -25.5126  -50.5626 H         1 UNK         0.0600 
    204 H204        0.5266  -27.0027  -51.0182 H         1 UNK         0.0600 
    205 H205       -3.3093  -25.9939  -50.2452 H         1 UNK         0.3000 
    206 H206       -4.4405  -27.9428  -52.1097 H         1 UNK         0.0600 
    207 H207       -4.5157  -26.3995  -54.0430 H         1 UNK         0.0600 
    208 H208       -3.6322  -25.1768  -53.1390 H         1 UNK         0.0600 
    209 H209       -2.8449  -26.6846  -53.5931 H         1 UNK         0.0600 
    210 H210       -5.1735  -26.8627  -49.5481 H         1 UNK         0.3000 
    211 H211       -6.8796  -26.0571  -48.3696 H         1 UNK         0.0600 
    212 H212       -8.5228  -26.9793  -50.7877 H         1 UNK         0.0600 
    213 H213       -9.1158  -26.7959  -49.1408 H         1 UNK         0.0600 
    214 H214       -7.9215  -28.0289  -49.5051 H         1 UNK         0.0600 
    215 H215       -5.5827  -24.0104  -49.6834 H         1 UNK         0.3000 
    216 H216       -5.5719  -21.8885  -50.2612 H         1 UNK         0.0600 
    217 H217       -7.2317  -20.3638  -49.3368 H         1 UNK         0.0600 
    218 H218       -7.0008  -21.6595  -48.1753 H         1 UNK         0.0600 
    219 H219       -8.4314  -21.6403  -49.1999 H         1 UNK         0.0600 
    220 H220       -7.1422  -23.9642  -52.1601 H         1 UNK         0.3000 
    221 H221       -8.6565  -22.1192  -53.8630 H         1 UNK         0.0600 
    222 H222       -7.9353  -25.0691  -54.2628 H         1 UNK         0.0600 
    223 H223       -9.3981  -24.4791  -53.4749 H         1 UNK         0.0600 
    224 H224       -9.1177  -24.1457  -55.1778 H         1 UNK         0.0600 
    225 H225       -5.4687  -23.6228  -53.7925 H         1 UNK         0.3000 
    226 H226       -4.5074  -21.8747  -55.9596 H         1 UNK         0.0600 
    227 H227       -5.1637  -23.9926  -57.1345 H         1 UNK         0.0600 
    228 H228       -3.4235  -23.7650  -57.1527 H         1 UNK         0.0600 
    229 H229       -4.1432  -24.9217  -56.0381 H         1 UNK         0.0600 
    230 H230       -4.2668  -21.6707  -53.1645 H         1 UNK         0.3000 
    231 H231       -1.4025  -21.7525  -52.7812 H         1 UNK         0.0600 
    232 H232       -3.3252  -23.3744  -51.0080 H         1 UNK         0.0600 
    233 H233       -1.9476  -24.0013  -51.9127 H         1 UNK         0.0600 
    234 H234       -1.6861  -22.9546  -50.5335 H         1 UNK         0.0600 
    235 H235       -0.8353  -20.4747  -50.8711 H         1 UNK         0.3000 
    236 H236       -0.8465  -18.6222  -49.6612 H         1 UNK         0.0600 
    237 H237       -3.8661  -19.0052  -49.2849 H         1 UNK         0.0600 
    238 H238       -2.6048  -19.7631  -48.3205 H         1 UNK         0.0600 
    239 H239       -2.8045  -18.0212  -48.2936 H         1 UNK         0.0600 
    240 H240       -0.7417  -18.3002  -52.3332 H         1 UNK         0.3000 
    241 H241       -2.7370  -16.6825  -53.4709 H         1 UNK         0.0600 
    242 H242       -0.3144  -13.8581  -51.8790 H         1 UNK         0.3800 
    243 H243       -0.2052  -15.5276  -51.3765 H         1 UNK         0.3800 
    244 H244       -1.4669  -16.6907  -55.4676 H         1 UNK         0.0800 
    245 H245        0.0521  -16.8651  -54.6602 H         1 UNK         0.0800 
    246 H246        0.7614  -20.4596  -55.2531 H         1 UNK         0.0800 
    247 H247        1.2707  -18.8004  -55.3780 H         1 UNK         0.0800 
@<TRIPOS>BOND
     1    1    2 1    
     2    1  127 1    
     3    1  128 1    
     4    1  129 1    
     5    2    3 2    
     6    2    4 am   BACKBONE|DICT|INTERRES
     7    4    5 1    
     8    4  130 1    
     9    5    6 1    
    10    5   65 1    
    11    5  131 1    
    12    6    7 1    
    13    6  132 1    
    14    6  133 1    
    15    7    8 1    
    16    8    9 1    
    17    8  134 1    
    18    8  135 1    
    19    9   10 ar   
    20    9   14 ar   
    21   10   11 ar   
    22   10  136 1    
    23   11   12 ar   
    24   11  126 1    
    25   12   13 ar   
    26   12  137 1    
    27   13   14 ar   
    28   13   15 1    
    29   14  138 1    
    30   15   16 1    
    31   15  139 1    
    32   15  140 1    
    33   16   17 1    
    34   17   18 1    
    35   17  141 1    
    36   17  142 1    
    37   18   19 1    
    38   18   67 1    
    39   18  143 1    
    40   19   20 am   BACKBONE|DICT|INTERRES
    41   19  144 1    
    42   20   21 2    
    43   20   22 1    
    44   22   23 1    
    45   22   24 1    
    46   22  145 1    
    47   23  146 1    
    48   23  147 1    
    49   23  148 1    
    50   24   25 am   BACKBONE|DICT|INTERRES
    51   24  149 1    
    52   25   26 2    
    53   25   27 1    
    54   27   28 1    
    55   27   29 1    
    56   27  150 1    
    57   28  151 1    
    58   28  152 1    
    59   28  153 1    
    60   29   30 am   BACKBONE|DICT|INTERRES
    61   29  154 1    
    62   30   31 2    
    63   30   32 1    
    64   32   33 1    
    65   32   34 1    
    66   32  155 1    
    67   33  156 1    
    68   33  157 1    
    69   33  158 1    
    70   34   35 am   BACKBONE|DICT|INTERRES
    71   34  159 1    
    72   35   36 2    
    73   35   37 1    
    74   37   38 1    
    75   37   39 1    
    76   37  160 1    
    77   38  161 1    
    78   38  162 1    
    79   38  163 1    
    80   39   40 am   BACKBONE|DICT|INTERRES
    81   39  164 1    
    82   40   41 2    
    83   40   42 1    
    84   42   43 1    
    85   42   44 1    
    86   42  165 1    
    87   43  166 1    
    88   43  167 1    
    89   43  168 1    
    90   44   45 am   BACKBONE|DICT|INTERRES
    91   44  169 1    
    92   45   46 2    
    93   45   47 1    
    94   47   48 1    
    95   47   49 1    
    96   47  170 1    
    97   48  171 1    
    98   48  172 1    
    99   48  173 1    
   100   49   50 am   BACKBONE|DICT|INTERRES
   101   49  174 1    
   102   50   51 2    
   103   50   52 1    
   104   52   53 1    
   105   52   54 1    
   106   52  175 1    
   107   53  176 1    
   108   53  177 1    
   109   53  178 1    
   110   54   55 am   BACKBONE|DICT|INTERRES
   111   54  179 1    
   112   55   56 2    
   113   55   57 1    
   114   57   58 1    
   115   57   59 1    
   116   57  180 1    
   117   58  181 1    
   118   58  182 1    
   119   58  183 1    
   120   59   60 am   BACKBONE|DICT|INTERRES
   121   59  184 1    
   122   60   61 2    
   123   60   62 1    
   124   62   63 1    
   125   62   64 1    
   126   62  185 1    
   127   63  186 1    
   128   63  187 1    
   129   63  188 1    
   130   64   65 am   BACKBONE|DICT|INTERRES
   131   64  189 1    
   132   65   66 2    
   133   67   68 2    
   134   67   69 am   BACKBONE|DICT|INTERRES
   135   69   70 1    
   136   69  190 1    
   137   70   71 1    
   138   70   72 1    
   139   70  191 1    
   140   71  192 1    
   141   71  193 1    
   142   71  194 1    
   143   72   73 2    
   144   72   74 am   BACKBONE|DICT|INTERRES
   145   74   75 1    
   146   74  195 1    
   147   75   76 1    
   148   75   77 1    
   149   75  196 1    
   150   76  197 1    
   151   76  198 1    
   152   76  199 1    
   153   77   78 2    
   154   77   79 am   BACKBONE|DICT|INTERRES
   155   79   80 1    
   156   79  200 1    
   157   80   81 1    
   158   80   82 1    
   159   80  201 1    
   160   81  202 1    
   161   81  203 1    
   162   81  204 1    
   163   82   83 2    
   164   82   84 am   BACKBONE|DICT|INTERRES
   165   84   85 1    
   166   84  205 1    
   167   85   86 1    
   168   85   87 1    
   169   85  206 1    
   170   86  207 1    
   171   86  208 1    
   172   86  209 1    
   173   87   88 2    
   174   87   89 am   BACKBONE|DICT|INTERRES
   175   89   90 1    
   176   89  210 1    
   177   90   91 1    
   178   90   92 1    
   179   90  211 1    
   180   91  212 1    
   181   91  213 1    
   182   91  214 1    
   183   92   93 2    
   184   92   94 am   BACKBONE|DICT|INTERRES
   185   94   95 1    
   186   94  215 1    
   187   95   96 1    
   188   95   97 1    
   189   95  216 1    
   190   96  217 1    
   191   96  218 1    
   192   96  219 1    
   193   97   98 2    
   194   97   99 am   BACKBONE|DICT|INTERRES
   195   99  100 1    
   196   99  220 1    
   197  100  101 1    
   198  100  102 1    
   199  100  221 1    
   200  101  222 1    
   201  101  223 1    
   202  101  224 1    
   203  102  103 2    
   204  102  104 am   BACKBONE|DICT|INTERRES
   205  104  105 1    
   206  104  225 1    
   207  105  106 1    
   208  105  107 1    
   209  105  226 1    
   210  106  227 1    
   211  106  228 1    
   212  106  229 1    
   213  107  108 2    
   214  107  109 am   BACKBONE|DICT|INTERRES
   215  109  110 1    
   216  109  230 1    
   217  110  111 1    
   218  110  112 1    
   219  110  231 1    
   220  111  232 1    
   221  111  233 1    
   222  111  234 1    
   223  112  113 2    
   224  112  114 am   BACKBONE|DICT|INTERRES
   225  114  115 1    
   226  114  235 1    
   227  115  116 1    
   228  115  117 1    
   229  115  236 1    
   230  116  237 1    
   231  116  238 1    
   232  116  239 1    
   233  117  118 2    
   234  117  119 am   BACKBONE|DICT|INTERRES
   235  119  120 1    
   236  119  240 1    
   237  120  121 1    
   238  120  124 1    
   239  120  241 1    
   240  121  122 am   BACKBONE|DICT|INTERRES
   241  121  123 2    
   242  122  242 1    
   243  122  243 1    
   244  124  125 1    
   245  124  244 1    
   246  124  245 1    
   247  125  126 1    
   248  126  246 1    
   249  126  247 1    
@<TRIPOS>SUBSTRUCTURE
     1 UNK         1 GROUP             0       ****    0 ROOT    
