@<TRIPOS>MOLECULE
3R540
247   249    1
SMALL
USER_CHARGES


@<TRIPOS>ATOM
      1 CA         -5.3837  -18.8720  -47.0641 C.3       0 UNK        -0.1800 
      2 C          -5.0340  -17.4082  -46.8464 C.2       0 UNK         0.5000 
      3 O          -5.9202  -16.5987  -46.5762 O.2       0 UNK        -0.5000 
      4 N          -3.7437  -17.0707  -46.9522 N.am      1 UNK        -0.5000 
      5 CA         -3.2091  -15.7139  -46.7715 C.3       1 UNK         0.1400 
      6 C6         -1.9144  -15.5158  -47.5970 C.3       23 UNK        -0.0398 
      7 S7         -2.2475  -15.2477  -49.3767 S.3       23 UNK        -0.2404 
      8 C8         -2.2234  -16.9316  -50.0890 C.3       23 UNK        -0.0205 
      9 C9         -0.8487  -17.5212  -50.4082 C.ar      23 UNK        -0.0193 
     10 C10        -0.7684  -18.5686  -51.3318 C.ar      23 UNK        -0.1150 
     11 C11         0.4460  -19.2137  -51.5892 C.ar      23 UNK        -0.0193 
     12 C12         1.5948  -18.8050  -50.9070 C.ar      23 UNK        -0.1150 
     13 C13         1.5350  -17.7548  -49.9892 C.ar      23 UNK        -0.0193 
     14 C14         0.3217  -17.0993  -49.7688 C.ar      23 UNK        -0.1150 
     15 C15         2.7685  -17.3519  -49.1970 C.3       23 UNK        -0.0205 
     16 S16         3.0623  -18.4581  -47.7741 S.3       23 UNK        -0.2404 
     17 C17         1.4484  -18.4736  -46.9112 C.3       23 UNK        -0.0398 
     18 CA          0.6499  -19.7695  -47.1869 C.3       11 UNK         0.1400 
     19 N           1.3836  -20.9374  -46.6944 N.am      11 UNK        -0.5000 
     20 C           1.0508  -22.2228  -46.8578 C.2       10 UNK         0.5000 
     21 O           0.0508  -22.6068  -47.4604 O.2       10 UNK        -0.5000 
     22 CA          1.9580  -23.2459  -46.1474 C.3       10 UNK         0.1400 
     23 CB          3.1281  -23.6441  -47.0587 C.3       10 UNK        -0.1800 
     24 N           2.4864  -22.7758  -44.8587 N.am      10 UNK        -0.5000 
     25 C           1.7571  -22.3057  -43.8344 C.2       9 UNK         0.5000 
     26 O           0.5268  -22.2158  -43.8778 O.2       9 UNK        -0.5000 
     27 CA          2.5181  -21.8224  -42.5784 C.3       9 UNK         0.1400 
     28 CB          4.0405  -21.6943  -42.7822 C.3       9 UNK        -0.1800 
     29 N           1.9900  -20.5311  -42.1363 N.am      9 UNK        -0.5000 
     30 C           0.9077  -20.3740  -41.3636 C.2       8 UNK         0.5000 
     31 O           0.3225  -21.3077  -40.8107 O.2       8 UNK        -0.5000 
     32 CA          0.3892  -18.9300  -41.2062 C.3       8 UNK         0.1400 
     33 CB         -0.7472  -18.8136  -40.1649 C.3       8 UNK        -0.1800 
     34 N           1.4594  -17.9573  -40.9647 N.am      8 UNK        -0.5000 
     35 C           2.2635  -17.8870  -39.8916 C.2       7 UNK         0.5000 
     36 O           2.1787  -18.6404  -38.9204 O.2       7 UNK        -0.5000 
     37 CA          3.3410  -16.7773  -39.9128 C.3       7 UNK         0.1400 
     38 CB          4.4705  -17.0110  -38.8874 C.3       7 UNK        -0.1800 
     39 N           3.8958  -16.5363  -41.2501 N.am      7 UNK        -0.5000 
     40 C           4.5212  -17.4267  -42.0361 C.2       6 UNK         0.5000 
     41 O           4.7828  -18.5773  -41.6855 O.2       6 UNK        -0.5000 
     42 CA          4.8949  -16.9620  -43.4627 C.3       6 UNK         0.1400 
     43 CB          4.9034  -18.1322  -44.4689 C.3       6 UNK        -0.1800 
     44 N           4.0750  -15.8599  -43.9889 N.am      6 UNK        -0.5000 
     45 C           2.7421  -15.8401  -44.1307 C.2       5 UNK         0.5000 
     46 O           1.9951  -16.7323  -43.7236 O.2       5 UNK        -0.5000 
     47 CA          2.1558  -14.6120  -44.8395 C.3       5 UNK         0.1400 
     48 CB          1.3608  -15.0156  -46.0859 C.3       5 UNK        -0.1800 
     49 N           1.2640  -13.9078  -43.9289 N.am      5 UNK        -0.5000 
     50 C           1.3789  -12.6150  -43.5943 C.2       4 UNK         0.5000 
     51 O           2.2664  -11.8763  -44.0236 O.2       4 UNK        -0.5000 
     52 CA          0.3349  -12.0290  -42.6214 C.3       4 UNK         0.1400 
     53 CB         -0.7000  -11.1905  -43.3876 C.3       4 UNK        -0.1800 
     54 N          -0.3719  -13.0395  -41.8377 N.am      4 UNK        -0.5000 
     55 C           0.1842  -13.8198  -40.9028 C.2       3 UNK         0.5000 
     56 O           1.3576  -13.7259  -40.5417 O.2       3 UNK        -0.5000 
     57 CA         -0.7098  -14.9102  -40.2851 C.3       3 UNK         0.1400 
     58 CB         -1.1609  -14.5053  -38.8741 C.3       3 UNK        -0.1800 
     59 N          -1.8931  -15.2633  -41.0801 N.am      3 UNK        -0.5000 
     60 C          -1.8849  -15.7931  -42.3123 C.2       2 UNK         0.5000 
     61 O          -0.8523  -16.0023  -42.9493 O.2       2 UNK        -0.5000 
     62 CA         -3.2563  -16.1798  -42.9082 C.3       2 UNK         0.1400 
     63 CB         -4.4011  -15.2431  -42.4605 C.3       2 UNK        -0.1800 
     64 N          -3.2476  -16.3087  -44.3701 N.am      2 UNK        -0.5000 
     65 C          -3.0113  -15.3479  -45.2782 C.2       1 UNK         0.5000 
     66 O          -2.6880  -14.1962  -44.9828 O.2       1 UNK        -0.5000 
     67 C          -0.7883  -19.6529  -46.6275 C.2       11 UNK         0.5000 
     68 O          -1.6292  -19.0142  -47.2629 O.2       11 UNK        -0.5000 
     69 N          -1.0584  -20.2660  -45.4667 N.am      12 UNK        -0.5000 
     70 CA         -2.3988  -20.3921  -44.8995 C.3       12 UNK         0.1400 
     71 CB         -2.3662  -20.0372  -43.4076 C.3       12 UNK        -0.1800 
     72 C          -2.9469  -21.8106  -45.1102 C.2       12 UNK         0.5000 
     73 O          -4.1008  -21.9541  -45.5139 O.2       12 UNK        -0.5000 
     74 N          -2.1158  -22.8316  -44.8515 N.am      13 UNK        -0.5000 
     75 CA         -2.4928  -24.2486  -44.8802 C.3       13 UNK         0.1400 
     76 CB         -1.3326  -25.0951  -44.3376 C.3       13 UNK        -0.1800 
     77 C          -2.9466  -24.7662  -46.2595 C.2       13 UNK         0.5000 
     78 O          -3.7797  -25.6714  -46.3151 O.2       13 UNK        -0.5000 
     79 N          -2.4272  -24.1727  -47.3435 N.am      14 UNK        -0.5000 
     80 CA         -2.8368  -24.4581  -48.7216 C.3       14 UNK         0.1400 
     81 CB         -1.7283  -23.9973  -49.6784 C.3       14 UNK        -0.1800 
     82 C          -4.1862  -23.8187  -49.1130 C.2       14 UNK         0.5000 
     83 O          -4.6623  -24.0685  -50.2206 O.2       14 UNK        -0.5000 
     84 N          -4.7671  -22.9899  -48.2293 N.am      15 UNK        -0.5000 
     85 CA         -6.0744  -22.3310  -48.3495 C.3       15 UNK         0.1400 
     86 CB         -7.2073  -23.3779  -48.3229 C.3       15 UNK        -0.1800 
     87 C          -6.1920  -21.3650  -49.5489 C.2       15 UNK         0.5000 
     88 O          -7.3045  -21.0808  -49.9950 O.2       15 UNK        -0.5000 
     89 N          -5.0418  -20.8764  -50.0410 N.am      16 UNK        -0.5000 
     90 CA         -4.8746  -20.0112  -51.2138 C.3       16 UNK         0.1400 
     91 CB         -5.4388  -18.6017  -50.9392 C.3       16 UNK        -0.1800 
     92 C          -5.4296  -20.6396  -52.5116 C.2       16 UNK         0.5000 
     93 O          -5.9950  -19.9308  -53.3484 O.2       16 UNK        -0.5000 
     94 N          -5.2591  -21.9630  -52.6516 N.am      17 UNK        -0.5000 
     95 CA         -5.7192  -22.7674  -53.7847 C.3       17 UNK         0.1400 
     96 CB         -5.3014  -24.2285  -53.5606 C.3       17 UNK        -0.1800 
     97 C          -5.2048  -22.2687  -55.1485 C.2       17 UNK         0.5000 
     98 O          -4.1040  -21.7163  -55.2318 O.2       17 UNK        -0.5000 
     99 N          -6.0222  -22.4813  -56.1897 N.am      18 UNK        -0.5000 
    100 CA        -5.7761  -22.1051  -57.5871 C.3       18 UNK         0.1400 
    101 CB        -4.6649  -22.9906  -58.1897 C.3       18 UNK        -0.1800 
    102 C         -5.5282  -20.5907  -57.7711 C.2       18 UNK         0.5000 
    103 O         -4.6577  -20.1963  -58.5467 O.2       18 UNK        -0.5000 
    104 N         -6.2968  -19.7771  -57.0292 N.am      19 UNK        -0.5000 
    105 CA        -6.2207  -18.3134  -56.9485 C.3       19 UNK         0.1400 
    106 CB        -6.6192  -17.6633  -58.2907 C.3       19 UNK        -0.1800 
    107 C         -4.8542  -17.8328  -56.4167 C.2       19 UNK         0.5000 
    108 O         -4.1972  -16.9985  -57.0419 O.2       19 UNK        -0.5000 
    109 N         -4.4569  -18.3960  -55.2666 N.am      20 UNK        -0.5000 
    110 CA        -3.2089  -18.1518  -54.5365 C.3       20 UNK         0.1400 
    111 CB        -3.1419  -16.6989  -54.0202 C.3       20 UNK        -0.1800 
    112 C         -1.9357  -18.5816  -55.2953 C.2       20 UNK         0.5000 
    113 O         -0.8597  -18.0431  -55.0322 O.2       20 UNK        -0.5000 
    114 N         -2.0652  -19.5594  -56.2010 N.am      21 UNK        -0.5000 
    115 CA        -0.9369  -20.1993  -56.8799 C.3       21 UNK         0.1400 
    116 CB        -1.3538  -20.6030  -58.3009 C.3       21 UNK        -0.1800 
    117 C         -0.4211  -21.4194  -56.0947 C.2       21 UNK         0.5000 
    118 O          0.7638  -21.7402  -56.1977 O.2       21 UNK        -0.5000 
    119 N         -1.3064  -22.0544  -55.3130 N.am      22 UNK        -0.5000 
    120 CA        -1.0692  -23.2573  -54.5002 C.3       22 UNK         0.1400 
    121 C         -0.7553  -24.5317  -55.3468 C.2       22 UNK         0.5000 
    122 N         -0.3617  -25.6353  -54.7235 N.am      22 UNK        -0.7600 
    123 O         -0.9118  -24.5595  -56.5659 O.2       22 UNK        -0.5000 
    124 C124       -0.0593  -23.0119  -53.3419 C.3       23 UNK        -0.0398 
    125 S125       -0.6121  -21.7128  -52.1835 S.3       23 UNK        -0.2404 
    126 C126        0.5228  -20.3520  -52.5976 C.3       23 UNK        -0.0205 
    127 H127       -4.5416  -19.4314  -47.4727 H         1 UNK         0.0600 
    128 H128       -6.2178  -18.9541  -47.7604 H         1 UNK         0.0600 
    129 H129       -5.6775  -19.3347  -46.1219 H         1 UNK         0.0600 
    130 H130       -3.0496  -17.7868  -47.1590 H         1 UNK         0.3000 
    131 H131       -3.9484  -15.0010  -47.1433 H         1 UNK         0.0600 
    132 H132       -1.2387  -16.3574  -47.4522 H         1 UNK         0.0800 
    133 H133       -1.3728  -14.6306  -47.2605 H         1 UNK         0.0800 
    134 H134       -2.8142  -16.8988  -51.0045 H         1 UNK         0.0800 
    135 H135       -2.7425  -17.6168  -49.4205 H         1 UNK         0.0800 
    136 H136       -1.6593  -18.9028  -51.8415 H         1 UNK         0.1150 
    137 H137        2.5350  -19.3107  -51.0769 H         1 UNK         0.1150 
    138 H138        0.2973  -16.2849  -49.0627 H         1 UNK         0.1150 
    139 H139        2.6816  -16.3220  -48.8510 H         1 UNK         0.0800 
    140 H140        3.6438  -17.3761  -49.8475 H         1 UNK         0.0800 
    141 H141        0.8742  -17.5966  -47.1990 H         1 UNK         0.0800 
    142 H142        1.6331  -18.3651  -45.8414 H         1 UNK         0.0800 
    143 H143        0.5455  -19.8894  -48.2671 H         1 UNK         0.0600 
    144 H144        2.2332  -20.7359  -46.1890 H         1 UNK         0.3000 
    145 H145        1.3623  -24.1380  -45.9556 H         1 UNK         0.0600 
    146 H146        3.7873  -22.7990  -47.2610 H         1 UNK         0.0600 
    147 H147        2.7662  -24.0152  -48.0187 H         1 UNK         0.0600 
    148 H148        3.7260  -24.4377  -46.6102 H         1 UNK         0.0600 
    149 H149        3.4895  -22.8147  -44.7492 H         1 UNK         0.3000 
    150 H150        2.3505  -22.5682  -41.7991 H         1 UNK         0.0600 
    151 H151        4.2879  -20.9942  -43.5807 H         1 UNK         0.0600 
    152 H152        4.4952  -22.6563  -43.0214 H         1 UNK         0.0600 
    153 H153        4.5237  -21.3376  -41.8723 H         1 UNK         0.0600 
    154 H154        2.4296  -19.7074  -42.5205 H         1 UNK         0.3000 
    155 H155       -0.0266  -18.6570  -42.1758 H         1 UNK         0.0600 
    156 H156       -0.4171  -19.0983  -39.1659 H         1 UNK         0.0600 
    157 H157       -1.5812  -19.4658  -40.4264 H         1 UNK         0.0600 
    158 H158       -1.1458  -17.8043  -40.1091 H         1 UNK         0.0600 
    159 H159        1.6400  -17.3274  -41.7410 H         1 UNK         0.3000 
    160 H160        2.8280  -15.8586  -39.6264 H         1 UNK         0.0600 
    161 H161        4.9935  -17.9508  -39.0666 H         1 UNK         0.0600 
    162 H162        4.0755  -17.0460  -37.8715 H         1 UNK         0.0600 
    163 H163        5.2051  -16.2064  -38.9201 H         1 UNK         0.0600 
    164 H164        3.7152  -15.6208  -41.6373 H         1 UNK         0.3000 
    165 H165        5.9138  -16.5789  -43.3936 H         1 UNK         0.0600 
    166 H166        5.6190  -18.9010  -44.1753 H         1 UNK         0.0600 
    167 H167        3.9242  -18.6055  -44.5457 H         1 UNK         0.0600 
    168 H168        5.1891  -17.7933  -45.4646 H         1 UNK         0.0600 
    169 H169        4.5988  -15.0618  -44.3212 H         1 UNK         0.3000 
    170 H170        2.9780  -13.9694  -45.1607 H         1 UNK         0.0600 
    171 H171        0.9671  -14.1397  -46.6014 H         1 UNK         0.0600 
    172 H172        1.9984  -15.5475  -46.7895 H         1 UNK         0.0600 
    173 H173        0.5212  -15.6621  -45.8283 H         1 UNK         0.0600 
    174 H174        0.5318  -14.4751  -43.5123 H         1 UNK         0.3000 
    175 H175        0.8650  -11.3725  -41.9284 H         1 UNK         0.0600 
    176 H176       -0.2158  -10.4011  -43.9640 H         1 UNK         0.0600 
    177 H177       -1.2737  -11.8021  -44.0857 H         1 UNK         0.0600 
    178 H178       -1.4020  -10.7093  -42.7064 H         1 UNK         0.0600 
    179 H179       -1.3368  -13.2062  -42.0831 H         1 UNK         0.3000 
    180 H180       -0.0874  -15.7997  -40.1963 H         1 UNK         0.0600 
    181 H181       -1.8123  -13.6308  -38.8962 H         1 UNK         0.0600 
    182 H182       -0.3049  -14.2615  -38.2433 H         1 UNK         0.0600 
    183 H183       -1.7008  -15.3161  -38.3847 H         1 UNK         0.0600 
    184 H184       -2.7851  -15.1169  -40.6301 H         1 UNK         0.3000 
    185 H185       -3.4799  -17.1749  -42.5224 H         1 UNK         0.0600 
    186 H186       -4.5820  -15.3136  -41.3876 H         1 UNK         0.0600 
    187 H187       -4.1871  -14.1993  -42.6933 H         1 UNK         0.0600 
    188 H188       -5.3370  -15.5063  -42.9541 H         1 UNK         0.0600 
    189 H189       -3.4833  -17.2209  -44.7290 H         1 UNK         0.3000 
    190 H190       -0.3267  -20.8024  -45.0135 H         1 UNK         0.3000 
    191 H191       -3.0884  -19.6988  -45.3826 H         1 UNK         0.0600 
    192 H192       -2.0250  -19.0136  -43.2621 H         1 UNK         0.0600 
    193 H193       -3.3598  -20.1152  -42.9646 H         1 UNK         0.0600 
    194 H194       -1.7050  -20.6998  -42.8488 H         1 UNK         0.0600 
    195 H195       -1.1786  -22.6268  -44.5147 H         1 UNK         0.3000 
    196 H196       -3.3387  -24.3675  -44.2000 H         1 UNK         0.0600 
    197 H197       -0.4615  -25.0440  -44.9882 H         1 UNK         0.0600 
    198 H198       -1.6196  -26.1444  -44.2582 H         1 UNK         0.0600 
    199 H199       -1.0305  -24.7640  -43.3437 H         1 UNK         0.0600 
    200 H200       -1.7021  -23.4701  -47.2262 H         1 UNK         0.3000 
    201 H201       -2.9492  -25.5382  -48.8347 H         1 UNK         0.0600 
    202 H202       -1.5744  -22.9197  -49.6160 H         1 UNK         0.0600 
    203 H203       -0.7801  -24.4843  -49.4506 H         1 UNK         0.0600 
    204 H204       -1.9741  -24.2355  -50.7141 H         1 UNK         0.0600 
    205 H205       -4.2953  -22.8279  -47.3456 H         1 UNK         0.3000 
    206 H206       -6.1812  -21.7141  -47.4566 H         1 UNK         0.0600 
    207 H207       -7.1089  -24.0424  -47.4644 H         1 UNK         0.0600 
    208 H208       -8.1842  -22.8988  -48.2490 H         1 UNK         0.0600 
    209 H209       -7.2118  -23.9919  -49.2240 H         1 UNK         0.0600 
    210 H210       -4.1879  -21.1868  -49.6004 H         1 UNK         0.3000 
    211 H211       -3.7993  -19.9118  -51.3642 H         1 UNK         0.0600 
    212 H212       -5.0292  -18.1812  -50.0219 H         1 UNK         0.0600 
    213 H213       -5.1906  -17.9156  -51.7494 H         1 UNK         0.0600 
    214 H214       -6.5249  -18.6127  -50.8437 H         1 UNK         0.0600 
    215 H215       -4.8155  -22.4738  -51.8993 H         1 UNK         0.3000 
    216 H216       -6.8096  -22.7158  -53.7920 H         1 UNK         0.0600 
    217 H217       -4.2215  -24.3259  -53.4472 H         1 UNK         0.0600 
    218 H218       -5.6027  -24.8599  -54.3975 H         1 UNK         0.0600 
    219 H219       -5.7693  -24.6375  -52.6650 H         1 UNK         0.0600 
    220 H220       -6.9064  -22.9397  -56.0174 H         1 UNK         0.3000 
    221 H221       -6.6952  -22.3209  -58.1337 H         1 UNK         0.0600 
    222 H222       -3.7219  -22.8817  -57.6548 H         1 UNK         0.0600 
    223 H223       -4.9432  -24.0436  -58.1509 H         1 UNK         0.0600 
    224 H224       -4.4831  -22.7448  -59.2366 H         1 UNK         0.0600 
    225 H225       -6.9611  -20.2103  -56.4032 H         1 UNK         0.3000 
    226 H226       -6.9602  -18.0075  -56.2069 H         1 UNK         0.0600 
    227 H227       -7.5995  -18.0079  -58.6195 H         1 UNK         0.0600 
    228 H228       -6.6719  -16.5782  -58.1959 H         1 UNK         0.0600 
    229 H229       -5.9027  -17.8860  -59.0818 H         1 UNK         0.0600 
    230 H230       -5.0793  -19.0682  -54.8251 H         1 UNK         0.3000 
    231 H231       -3.2517  -18.8015  -53.6629 H         1 UNK         0.0600 
    232 H232       -3.0465  -15.9829  -54.8366 H         1 UNK         0.0600 
    233 H233       -2.2835  -16.5543  -53.3632 H         1 UNK         0.0600 
    234 H234       -4.0333  -16.4402  -53.4493 H         1 UNK         0.0600 
    235 H235       -2.9811  -19.9624  -56.3514 H         1 UNK         0.3000 
    236 H236       -0.1114  -19.4901  -56.9697 H         1 UNK         0.0600 
    237 H237       -2.1473  -21.3481  -58.2916 H         1 UNK         0.0600 
    238 H238       -1.7100  -19.7423  -58.8673 H         1 UNK         0.0600 
    239 H239       -0.5118  -21.0293  -58.8474 H         1 UNK         0.0600 
    240 H240       -2.2744  -21.7428  -55.3221 H         1 UNK         0.3000 
    241 H241       -2.0361  -23.4711  -54.0449 H         1 UNK         0.0600 
    242 H242       -0.1785  -26.4606  -55.2733 H         1 UNK         0.3800 
    243 H243       -0.2533  -25.6789  -53.7229 H         1 UNK         0.3800 
    244 H244        0.9306  -22.7762  -53.7339 H         1 UNK         0.0800 
    245 H245        0.0672  -23.9127  -52.7413 H         1 UNK         0.0800 
    246 H246        0.2861  -19.9692  -53.5892 H         1 UNK         0.0800 
    247 H247        1.5404  -20.7415  -52.6507 H         1 UNK         0.0800 
@<TRIPOS>BOND
     1    1    2 1    
     2    1  127 1    
     3    1  128 1    
     4    1  129 1    
     5    2    3 2    
     6    2    4 am   BACKBONE|DICT|INTERRES
     7    4    5 1    
     8    4  130 1    
     9    5    6 1    
    10    5   65 1    
    11    5  131 1    
    12    6    7 1    
    13    6  132 1    
    14    6  133 1    
    15    7    8 1    
    16    8    9 1    
    17    8  134 1    
    18    8  135 1    
    19    9   10 ar   
    20    9   14 ar   
    21   10   11 ar   
    22   10  136 1    
    23   11   12 ar   
    24   11  126 1    
    25   12   13 ar   
    26   12  137 1    
    27   13   14 ar   
    28   13   15 1    
    29   14  138 1    
    30   15   16 1    
    31   15  139 1    
    32   15  140 1    
    33   16   17 1    
    34   17   18 1    
    35   17  141 1    
    36   17  142 1    
    37   18   19 1    
    38   18   67 1    
    39   18  143 1    
    40   19   20 am   BACKBONE|DICT|INTERRES
    41   19  144 1    
    42   20   21 2    
    43   20   22 1    
    44   22   23 1    
    45   22   24 1    
    46   22  145 1    
    47   23  146 1    
    48   23  147 1    
    49   23  148 1    
    50   24   25 am   BACKBONE|DICT|INTERRES
    51   24  149 1    
    52   25   26 2    
    53   25   27 1    
    54   27   28 1    
    55   27   29 1    
    56   27  150 1    
    57   28  151 1    
    58   28  152 1    
    59   28  153 1    
    60   29   30 am   BACKBONE|DICT|INTERRES
    61   29  154 1    
    62   30   31 2    
    63   30   32 1    
    64   32   33 1    
    65   32   34 1    
    66   32  155 1    
    67   33  156 1    
    68   33  157 1    
    69   33  158 1    
    70   34   35 am   BACKBONE|DICT|INTERRES
    71   34  159 1    
    72   35   36 2    
    73   35   37 1    
    74   37   38 1    
    75   37   39 1    
    76   37  160 1    
    77   38  161 1    
    78   38  162 1    
    79   38  163 1    
    80   39   40 am   BACKBONE|DICT|INTERRES
    81   39  164 1    
    82   40   41 2    
    83   40   42 1    
    84   42   43 1    
    85   42   44 1    
    86   42  165 1    
    87   43  166 1    
    88   43  167 1    
    89   43  168 1    
    90   44   45 am   BACKBONE|DICT|INTERRES
    91   44  169 1    
    92   45   46 2    
    93   45   47 1    
    94   47   48 1    
    95   47   49 1    
    96   47  170 1    
    97   48  171 1    
    98   48  172 1    
    99   48  173 1    
   100   49   50 am   BACKBONE|DICT|INTERRES
   101   49  174 1    
   102   50   51 2    
   103   50   52 1    
   104   52   53 1    
   105   52   54 1    
   106   52  175 1    
   107   53  176 1    
   108   53  177 1    
   109   53  178 1    
   110   54   55 am   BACKBONE|DICT|INTERRES
   111   54  179 1    
   112   55   56 2    
   113   55   57 1    
   114   57   58 1    
   115   57   59 1    
   116   57  180 1    
   117   58  181 1    
   118   58  182 1    
   119   58  183 1    
   120   59   60 am   BACKBONE|DICT|INTERRES
   121   59  184 1    
   122   60   61 2    
   123   60   62 1    
   124   62   63 1    
   125   62   64 1    
   126   62  185 1    
   127   63  186 1    
   128   63  187 1    
   129   63  188 1    
   130   64   65 am   BACKBONE|DICT|INTERRES
   131   64  189 1    
   132   65   66 2    
   133   67   68 2    
   134   67   69 am   BACKBONE|DICT|INTERRES
   135   69   70 1    
   136   69  190 1    
   137   70   71 1    
   138   70   72 1    
   139   70  191 1    
   140   71  192 1    
   141   71  193 1    
   142   71  194 1    
   143   72   73 2    
   144   72   74 am   BACKBONE|DICT|INTERRES
   145   74   75 1    
   146   74  195 1    
   147   75   76 1    
   148   75   77 1    
   149   75  196 1    
   150   76  197 1    
   151   76  198 1    
   152   76  199 1    
   153   77   78 2    
   154   77   79 am   BACKBONE|DICT|INTERRES
   155   79   80 1    
   156   79  200 1    
   157   80   81 1    
   158   80   82 1    
   159   80  201 1    
   160   81  202 1    
   161   81  203 1    
   162   81  204 1    
   163   82   83 2    
   164   82   84 am   BACKBONE|DICT|INTERRES
   165   84   85 1    
   166   84  205 1    
   167   85   86 1    
   168   85   87 1    
   169   85  206 1    
   170   86  207 1    
   171   86  208 1    
   172   86  209 1    
   173   87   88 2    
   174   87   89 am   BACKBONE|DICT|INTERRES
   175   89   90 1    
   176   89  210 1    
   177   90   91 1    
   178   90   92 1    
   179   90  211 1    
   180   91  212 1    
   181   91  213 1    
   182   91  214 1    
   183   92   93 2    
   184   92   94 am   BACKBONE|DICT|INTERRES
   185   94   95 1    
   186   94  215 1    
   187   95   96 1    
   188   95   97 1    
   189   95  216 1    
   190   96  217 1    
   191   96  218 1    
   192   96  219 1    
   193   97   98 2    
   194   97   99 am   BACKBONE|DICT|INTERRES
   195   99  100 1    
   196   99  220 1    
   197  100  101 1    
   198  100  102 1    
   199  100  221 1    
   200  101  222 1    
   201  101  223 1    
   202  101  224 1    
   203  102  103 2    
   204  102  104 am   BACKBONE|DICT|INTERRES
   205  104  105 1    
   206  104  225 1    
   207  105  106 1    
   208  105  107 1    
   209  105  226 1    
   210  106  227 1    
   211  106  228 1    
   212  106  229 1    
   213  107  108 2    
   214  107  109 am   BACKBONE|DICT|INTERRES
   215  109  110 1    
   216  109  230 1    
   217  110  111 1    
   218  110  112 1    
   219  110  231 1    
   220  111  232 1    
   221  111  233 1    
   222  111  234 1    
   223  112  113 2    
   224  112  114 am   BACKBONE|DICT|INTERRES
   225  114  115 1    
   226  114  235 1    
   227  115  116 1    
   228  115  117 1    
   229  115  236 1    
   230  116  237 1    
   231  116  238 1    
   232  116  239 1    
   233  117  118 2    
   234  117  119 am   BACKBONE|DICT|INTERRES
   235  119  120 1    
   236  119  240 1    
   237  120  121 1    
   238  120  124 1    
   239  120  241 1    
   240  121  122 am   BACKBONE|DICT|INTERRES
   241  121  123 2    
   242  122  242 1    
   243  122  243 1    
   244  124  125 1    
   245  124  244 1    
   246  124  245 1    
   247  125  126 1    
   248  126  246 1    
   249  126  247 1    
@<TRIPOS>SUBSTRUCTURE
     1 UNK         1 GROUP             0       ****    0 ROOT    
