@<TRIPOS>MOLECULE
3R540
247   249    1
SMALL
USER_CHARGES


@<TRIPOS>ATOM
      1 CA          4.6503  -18.0554  -45.7847 C.3       0 UNK        -0.1800 
      2 C           4.1932  -16.6090  -45.8929 C.2       0 UNK         0.5000 
      3 O           3.3531  -16.1677  -45.1119 O.2       0 UNK        -0.5000 
      4 N           4.7484  -15.8636  -46.8543 N.am      1 UNK        -0.5000 
      5 CA          4.4286  -14.4572  -47.1234 C.3       1 UNK         0.1400 
      6 C6          4.6587  -14.0892  -48.6101 C.3       23 UNK        -0.0398 
      7 S7          3.4294  -14.9065  -49.6777 S.3       23 UNK        -0.2404 
      8 C8          4.3623  -16.3314  -50.3276 C.3       23 UNK        -0.0205 
      9 C9          3.4648  -17.5438  -50.5391 C.ar      23 UNK        -0.0193 
     10 C10         2.2975  -17.4344  -51.3008 C.ar      23 UNK        -0.1150 
     11 C11         1.4594  -18.5352  -51.4836 C.ar      23 UNK        -0.0193 
     12 C12         1.8038  -19.7639  -50.9118 C.ar      23 UNK        -0.1150 
     13 C13         2.9845  -19.8985  -50.1733 C.ar      23 UNK        -0.0193 
     14 C14         3.8077  -18.7827  -49.9871 C.ar      23 UNK        -0.1150 
     15 C15         3.3810  -21.2592  -49.6092 C.3       23 UNK        -0.0205 
     16 S16         3.5976  -21.2729  -47.7965 S.3       23 UNK        -0.2404 
     17 C17         1.9815  -20.6735  -47.2047 C.3       23 UNK        -0.0398 
     18 CA          0.9906  -21.7946  -46.8103 C.3       11 UNK         0.1400 
     19 N          -0.0649  -21.2859  -45.9294 N.am      11 UNK        -0.5000 
     20 C          -1.0001  -22.0327  -45.3270 C.2       10 UNK         0.5000 
     21 O          -1.0243  -23.2615  -45.3745 O.2       10 UNK        -0.5000 
     22 CA         -2.1240  -21.2824  -44.5869 C.3       10 UNK         0.1400 
     23 CB         -1.6968  -20.9341  -43.1539 C.3       10 UNK        -0.1800 
     24 N          -2.5533  -20.0692  -45.2866 N.am      10 UNK        -0.5000 
     25 C          -3.1450  -20.0573  -46.4904 C.2       9 UNK         0.5000 
     26 O          -3.4490  -21.0775  -47.1063 O.2       9 UNK        -0.5000 
     27 CA         -3.3820  -18.6820  -47.1440 C.3       9 UNK         0.1400 
     28 CB         -4.6457  -18.0140  -46.5836 C.3       9 UNK        -0.1800 
     29 N          -2.2343  -17.7858  -46.9921 N.am      9 UNK        -0.5000 
     30 C          -1.0166  -18.0340  -47.4969 C.2       8 UNK         0.5000 
     31 O          -0.7587  -19.0163  -48.1906 O.2       8 UNK        -0.5000 
     32 CA          0.1148  -17.0712  -47.0931 C.3       8 UNK         0.1400 
     33 CB          0.1388  -15.8250  -47.9890 C.3       8 UNK        -0.1800 
     34 N           0.0053  -16.6751  -45.6881 N.am      8 UNK        -0.5000 
     35 C           0.2381  -17.5004  -44.6571 C.2       7 UNK         0.5000 
     36 O           0.6107  -18.6655  -44.7911 O.2       7 UNK        -0.5000 
     37 CA         -0.0562  -16.9603  -43.2451 C.3       7 UNK         0.1400 
     38 CB          1.1401  -16.1778  -42.6895 C.3       7 UNK        -0.1800 
     39 N          -1.2512  -16.1170  -43.2126 N.am      7 UNK        -0.5000 
     40 C          -2.4988  -16.5873  -43.3644 C.2       6 UNK         0.5000 
     41 O          -2.7593  -17.7819  -43.4993 O.2       6 UNK        -0.5000 
     42 CA         -3.6472  -15.5592  -43.4185 C.3       6 UNK         0.1400 
     43 CB         -4.2229  -15.3247  -42.0143 C.3       6 UNK        -0.1800 
     44 N          -3.2512  -14.2736  -43.9922 N.am      6 UNK        -0.5000 
     45 C          -2.7476  -14.0941  -45.2213 C.2       5 UNK         0.5000 
     46 O          -2.6566  -14.9958  -46.0546 O.2       5 UNK        -0.5000 
     47 CA         -2.2042  -12.6895  -45.5575 C.3       5 UNK         0.1400 
     48 CB         -3.1952  -11.9340  -46.4550 C.3       5 UNK        -0.1800 
     49 N          -1.8909  -11.8603  -44.3849 N.am      5 UNK        -0.5000 
     50 C          -0.9890  -12.1580  -43.4384 C.2       4 UNK         0.5000 
     51 O          -0.3396  -13.2057  -43.4209 O.2       4 UNK        -0.5000 
     52 CA         -0.8676  -11.1532  -42.2775 C.3       4 UNK         0.1400 
     53 CB         -1.9186  -11.4650  -41.1998 C.3       4 UNK        -0.1800 
     54 N           0.4568  -11.1715  -41.6565 N.am      4 UNK        -0.5000 
     55 C           1.5776  -10.7083  -42.2238 C.2       3 UNK         0.5000 
     56 O           1.6027  -10.1655  -43.3314 O.2       3 UNK        -0.5000 
     57 CA          2.8919  -10.8257  -41.4165 C.3       3 UNK         0.1400 
     58 CB          2.7742  -11.6462  -40.1103 C.3       3 UNK        -0.1800 
     59 N           3.9964  -11.3143  -42.2501 N.am      3 UNK        -0.5000 
     60 C           4.0612  -12.5036  -42.8629 C.2       2 UNK         0.5000 
     61 O           3.2314  -13.4034  -42.7181 O.2       2 UNK        -0.5000 
     62 CA          5.2600  -12.7321  -43.7929 C.3       2 UNK         0.1400 
     63 CB          6.4324  -13.3878  -43.0453 C.3       2 UNK        -0.1800 
     64 N           4.8182  -13.6035  -44.8729 N.am      2 UNK        -0.5000 
     65 C           5.1905  -13.5312  -46.1524 C.2       1 UNK         0.5000 
     66 O           6.0824  -12.7868  -46.5645 O.2       1 UNK        -0.5000 
     67 C           0.3970  -22.5006  -48.0480 C.2       11 UNK         0.5000 
     68 O           0.7908  -23.6253  -48.3570 O.2       11 UNK        -0.5000 
     69 N          -0.5756  -21.8520  -48.7033 N.am      12 UNK        -0.5000 
     70 CA         -1.3315  -22.4091  -49.8238 C.3       12 UNK         0.1400 
     71 CB         -2.2083  -21.3171  -50.4457 C.3       12 UNK        -0.1800 
     72 C          -2.1614  -23.6462  -49.4355 C.2       12 UNK         0.5000 
     73 O          -2.1683  -24.6199  -50.1870 O.2       12 UNK        -0.5000 
     74 N          -2.7964  -23.6165  -48.2549 N.am      13 UNK        -0.5000 
     75 CA         -3.5261  -24.7486  -47.6791 C.3       13 UNK         0.1400 
     76 CB         -4.2386  -24.3165  -46.3879 C.3       13 UNK        -0.1800 
     77 C          -2.6162  -25.9624  -47.4118 C.2       13 UNK         0.5000 
     78 O          -2.9863  -27.0838  -47.7588 O.2       13 UNK        -0.5000 
     79 N          -1.4241  -25.7160  -46.8486 N.am      14 UNK        -0.5000 
     80 CA         -0.3844  -26.7222  -46.6130 C.3       14 UNK         0.1400 
     81 CB          0.7355  -26.1119  -45.7570 C.3       14 UNK        -0.1800 
     82 C           0.1842  -27.3189  -47.9158 C.2       14 UNK         0.5000 
     83 O           0.5078  -28.5064  -47.9503 O.2       14 UNK        -0.5000 
     84 N           0.2509  -26.4995  -48.9736 N.am      15 UNK        -0.5000 
     85 CA          0.6113  -26.8993  -50.3360 C.3       15 UNK         0.1400 
     86 CB          1.0832  -25.6551  -51.1072 C.3       15 UNK        -0.1800 
     87 C          -0.5288  -27.6186  -51.0937 C.2       15 UNK         0.5000 
     88 O          -0.3079  -28.0560  -52.2238 O.2       15 UNK        -0.5000 
     89 N          -1.7144  -27.7270  -50.4736 N.am      16 UNK        -0.5000 
     90 CA         -2.9495  -28.3324  -50.9826 C.3       16 UNK         0.1400 
     91 CB         -2.7595  -29.8375  -51.2668 C.3       16 UNK        -0.1800 
     92 C          -3.5752  -27.5629  -52.1656 C.2       16 UNK         0.5000 
     93 O          -4.2671  -28.1618  -52.9919 O.2       16 UNK        -0.5000 
     94 N          -3.3449  -26.2462  -52.2140 N.am      17 UNK        -0.5000 
     95 CA         -3.9784  -25.3141  -53.1414 C.3       17 UNK         0.1400 
     96 CB         -2.9420  -24.2508  -53.5419 C.3       17 UNK        -0.1800 
     97 C          -5.2098  -24.6644  -52.4816 C.2       17 UNK         0.5000 
     98 O          -5.4290  -24.8191  -51.2766 O.2       17 UNK        -0.5000 
     99 N          -5.9947  -23.9351  -53.2857 N.am      18 UNK        -0.5000 
    100 CA        -7.1391  -23.1409  -52.8378 C.3       18 UNK         0.1400 
    101 CB        -7.9429  -22.6792  -54.0645 C.3       18 UNK        -0.1800 
    102 C         -6.6598  -21.9420  -52.0011 C.2       18 UNK         0.5000 
    103 O         -6.1451  -20.9767  -52.5689 O.2       18 UNK        -0.5000 
    104 N         -6.7984  -22.0453  -50.6737 N.am      19 UNK        -0.5000 
    105 CA        -6.2413  -21.1258  -49.6776 C.3       19 UNK         0.1400 
    106 CB        -6.6415  -21.6120  -48.2779 C.3       19 UNK        -0.1800 
    107 C         -6.6444  -19.6532  -49.8689 C.2       19 UNK         0.5000 
    108 O         -5.7997  -18.7699  -49.7319 O.2       19 UNK        -0.5000 
    109 N         -7.9166  -19.4221  -50.2196 N.am      20 UNK        -0.5000 
    110 CA        -8.4888  -18.0929  -50.4487 C.3       20 UNK         0.1400 
    111 CB       -10.0181  -18.2167  -50.5272 C.3       20 UNK        -0.1800 
    112 C         -7.9418  -17.3888  -51.7065 C.2       20 UNK         0.5000 
    113 O         -7.9237  -16.1582  -51.7492 O.2       20 UNK        -0.5000 
    114 N         -7.5093  -18.1748  -52.7003 N.am      21 UNK        -0.5000 
    115 CA        -6.9248  -17.6939  -53.9536 C.3       21 UNK         0.1400 
    116 CB        -7.4270  -18.5958  -55.0929 C.3       21 UNK        -0.1800 
    117 C         -5.3839  -17.6909  -53.9197 C.2       21 UNK         0.5000 
    118 O         -4.7629  -17.1618  -54.8425 O.2       21 UNK        -0.5000 
    119 N         -4.7968  -18.3027  -52.8829 N.am      22 UNK        -0.5000 
    120 CA        -3.3773  -18.6695  -52.7867 C.3       22 UNK         0.1400 
    121 C         -2.9677  -19.7398  -53.8481 C.2       22 UNK         0.5000 
    122 N         -3.8175  -20.7218  -54.1196 N.am      22 UNK        -0.7600 
    123 O         -1.8982  -19.6852  -54.4474 O.2       22 UNK        -0.5000 
    124 C124       -2.4257  -17.4380  -52.7077 C.3       23 UNK        -0.0398 
    125 S125       -1.1520  -17.6088  -51.4095 S.3       23 UNK        -0.2404 
    126 C126        0.2046  -18.3970  -52.3301 C.3       23 UNK        -0.0205 
    127 H127        3.8501  -18.6749  -45.3809 H         1 UNK         0.0600 
    128 H128        5.5078  -18.1299  -45.1164 H         1 UNK         0.0600 
    129 H129        4.9312  -18.4571  -46.7585 H         1 UNK         0.0600 
    130 H130        5.4679  -16.2667  -47.4354 H         1 UNK         0.3000 
    131 H131        3.3673  -14.2976  -46.9172 H         1 UNK         0.0600 
    132 H132        4.5415  -13.0146  -48.7616 H         1 UNK         0.0800 
    133 H133        5.6727  -14.3327  -48.9313 H         1 UNK         0.0800 
    134 H134        5.1758  -16.5828  -49.6468 H         1 UNK         0.0800 
    135 H135        4.8253  -16.0549  -51.2756 H         1 UNK         0.0800 
    136 H136        2.0325  -16.4846  -51.7438 H         1 UNK         0.1150 
    137 H137        1.1595  -20.6195  -51.0575 H         1 UNK         0.1150 
    138 H138        4.7180  -18.8853  -49.4134 H         1 UNK         0.1150 
    139 H139        2.6504  -22.0207  -49.8850 H         1 UNK         0.0800 
    140 H140        4.3202  -21.5652  -50.0714 H         1 UNK         0.0800 
    141 H141        1.5466  -19.9888  -47.9301 H         1 UNK         0.0800 
    142 H142        2.1971  -20.0636  -46.3286 H         1 UNK         0.0800 
    143 H143        1.5379  -22.5452  -46.2360 H         1 UNK         0.0600 
    144 H144       -0.0810  -20.2827  -45.7788 H         1 UNK         0.3000 
    145 H145       -2.9847  -21.9511  -44.5272 H         1 UNK         0.0600 
    146 H146       -2.5142  -20.4711  -42.6009 H         1 UNK         0.0600 
    147 H147       -1.4001  -21.8298  -42.6069 H         1 UNK         0.0600 
    148 H148       -0.8518  -20.2460  -43.1399 H         1 UNK         0.0600 
    149 H149       -2.3961  -19.1879  -44.8070 H         1 UNK         0.3000 
    150 H150       -3.5298  -18.8438  -48.2135 H         1 UNK         0.0600 
    151 H151       -5.5251  -18.6303  -46.7730 H         1 UNK         0.0600 
    152 H152       -4.8213  -17.0458  -47.0529 H         1 UNK         0.0600 
    153 H153       -4.5799  -17.8613  -45.5074 H         1 UNK         0.0600 
    154 H154       -2.3798  -16.9262  -46.4723 H         1 UNK         0.3000 
    155 H155        1.0652  -17.5929  -47.2254 H         1 UNK         0.0600 
    156 H156       -0.7989  -15.2712  -47.9459 H         1 UNK         0.0600 
    157 H157        0.9441  -15.1492  -47.7012 H         1 UNK         0.0600 
    158 H158        0.3074  -16.1038  -49.0301 H         1 UNK         0.0600 
    159 H159       -0.3412  -15.7464  -45.4989 H         1 UNK         0.3000 
    160 H160       -0.2268  -17.8174  -42.5902 H         1 UNK         0.0600 
    161 H161        1.3735  -15.3122  -43.3100 H         1 UNK         0.0600 
    162 H162        2.0331  -16.8029  -42.6551 H         1 UNK         0.0600 
    163 H163        0.9493  -15.8219  -41.6772 H         1 UNK         0.0600 
    164 H164       -1.0967  -15.1162  -43.1473 H         1 UNK         0.3000 
    165 H165       -4.4362  -15.9735  -44.0482 H         1 UNK         0.0600 
    166 H166       -5.0893  -14.6639  -42.0477 H         1 UNK         0.0600 
    167 H167       -4.5490  -16.2635  -41.5645 H         1 UNK         0.0600 
    168 H168       -3.4849  -14.8788  -41.3460 H         1 UNK         0.0600 
    169 H169       -3.2901  -13.4745  -43.3781 H         1 UNK         0.3000 
    170 H170       -1.2770  -12.8325  -46.1163 H         1 UNK         0.0600 
    171 H171       -3.4278  -12.5096  -47.3521 H         1 UNK         0.0600 
    172 H172       -4.1355  -11.7366  -45.9387 H         1 UNK         0.0600 
    173 H173       -2.7834  -10.9792  -46.7825 H         1 UNK         0.0600 
    174 H174       -2.4008  -10.9915  -44.3109 H         1 UNK         0.3000 
    175 H175       -1.0502  -10.1484  -42.6645 H         1 UNK         0.0600 
    176 H176       -1.7799  -12.4618  -40.7786 H         1 UNK         0.0600 
    177 H177       -1.8705  -10.7458  -40.3819 H         1 UNK         0.0600 
    178 H178       -2.9286  -11.4195  -41.6091 H         1 UNK         0.0600 
    179 H179        0.5288  -11.6401  -40.7658 H         1 UNK         0.3000 
    180 H180        3.1573   -9.8061  -41.1339 H         1 UNK         0.0600 
    181 H181        2.4403  -12.6682  -40.2923 H         1 UNK         0.0600 
    182 H182        2.0711  -11.1845  -39.4162 H         1 UNK         0.0600 
    183 H183        3.7347  -11.7005  -39.5978 H         1 UNK         0.0600 
    184 H184        4.7174  -10.6346  -42.4477 H         1 UNK         0.3000 
    185 H185        5.5773  -11.7690  -44.1988 H         1 UNK         0.0600 
    186 H186        6.7742  -12.7566  -42.2242 H         1 UNK         0.0600 
    187 H187        6.1489  -14.3532  -42.6239 H         1 UNK         0.0600 
    188 H188        7.2821  -13.5485  -43.7090 H         1 UNK         0.0600 
    189 H189        4.0800  -14.2545  -44.6152 H         1 UNK         0.3000 
    190 H190       -0.8137  -20.9057  -48.4149 H         1 UNK         0.3000 
    191 H191       -0.6126  -22.7272  -50.5812 H         1 UNK         0.0600 
    192 H192       -2.8422  -20.8353  -49.7028 H         1 UNK         0.0600 
    193 H193       -2.8556  -21.7182  -51.2263 H         1 UNK         0.0600 
    194 H194       -1.5865  -20.5460  -50.8979 H         1 UNK         0.0600 
    195 H195       -2.8013  -22.7493  -47.7243 H         1 UNK         0.3000 
    196 H196       -4.2857  -25.0484  -48.4045 H         1 UNK         0.0600 
    197 H197       -4.8952  -25.1084  -46.0259 H         1 UNK         0.0600 
    198 H198       -4.8514  -23.4303  -46.5425 H         1 UNK         0.0600 
    199 H199       -3.5316  -24.0923  -45.5901 H         1 UNK         0.0600 
    200 H200       -1.2151  -24.7683  -46.5444 H         1 UNK         0.3000 
    201 H201       -0.8362  -27.5394  -46.0470 H         1 UNK         0.0600 
    202 H202        0.3508  -25.7558  -44.8012 H         1 UNK         0.0600 
    203 H203        1.2135  -25.2701  -46.2583 H         1 UNK         0.0600 
    204 H204        1.5097  -26.8495  -45.5423 H         1 UNK         0.0600 
    205 H205        0.0263  -25.5198  -48.8369 H         1 UNK         0.3000 
    206 H206        1.4493  -27.5968  -50.2792 H         1 UNK         0.0600 
    207 H207        1.8983  -25.1520  -50.5864 H         1 UNK         0.0600 
    208 H208        1.4487  -25.9237  -52.0989 H         1 UNK         0.0600 
    209 H209        0.2768  -24.9348  -51.2413 H         1 UNK         0.0600 
    210 H210       -1.7995  -27.3102  -49.5546 H         1 UNK         0.3000 
    211 H211       -3.6719  -28.2493  -50.1698 H         1 UNK         0.0600 
    212 H212       -2.1148  -30.0110  -52.1286 H         1 UNK         0.0600 
    213 H213       -3.7156  -30.3194  -51.4743 H         1 UNK         0.0600 
    214 H214       -2.3206  -30.3480  -50.4096 H         1 UNK         0.0600 
    215 H215       -2.8313  -25.8125  -51.4493 H         1 UNK         0.3000 
    216 H216       -4.3037  -25.8398  -54.0413 H         1 UNK         0.0600 
    217 H217       -3.3351  -23.5902  -54.3142 H         1 UNK         0.0600 
    218 H218       -2.0395  -24.7125  -53.9430 H         1 UNK         0.0600 
    219 H219       -2.6492  -23.6302  -52.6953 H         1 UNK         0.0600 
    220 H220       -5.7453  -23.8435  -54.2594 H         1 UNK         0.3000 
    221 H221       -7.7871  -23.7698  -52.2238 H         1 UNK         0.0600 
    222 H222       -7.3306  -22.1004  -54.7570 H         1 UNK         0.0600 
    223 H223       -8.3493  -23.5305  -54.6108 H         1 UNK         0.0600 
    224 H224       -8.7845  -22.0521  -53.7675 H         1 UNK         0.0600 
    225 H225       -7.1973  -22.8978  -50.3075 H         1 UNK         0.3000 
    226 H226       -5.1552  -21.1837  -49.7586 H         1 UNK         0.0600 
    227 H227       -6.3173  -22.6390  -48.1159 H         1 UNK         0.0600 
    228 H228       -6.1826  -20.9983  -47.5022 H         1 UNK         0.0600 
    229 H229       -7.7215  -21.5764  -48.1305 H         1 UNK         0.0600 
    230 H230       -8.5379  -20.2110  -50.3243 H         1 UNK         0.3000 
    231 H231       -8.2408  -17.4662  -49.5893 H         1 UNK         0.0600 
    232 H232      -10.4826  -17.2400  -50.6698 H         1 UNK         0.0600 
    233 H233      -10.4279  -18.6383  -49.6092 H         1 UNK         0.0600 
    234 H234      -10.3284  -18.8521  -51.3577 H         1 UNK         0.0600 
    235 H235       -7.5197  -19.1780  -52.5691 H         1 UNK         0.3000 
    236 H236       -7.2534  -16.6727  -54.1571 H         1 UNK         0.0600 
    237 H237       -8.5158  -18.5957  -55.1465 H         1 UNK         0.0600 
    238 H238       -7.0546  -18.2519  -56.0587 H         1 UNK         0.0600 
    239 H239       -7.0967  -19.6270  -54.9628 H         1 UNK         0.0600 
    240 H240       -5.3961  -18.7124  -52.1800 H         1 UNK         0.3000 
    241 H241       -3.3221  -19.1895  -51.8318 H         1 UNK         0.0600 
    242 H242       -4.7060  -20.7858  -53.6262 H         1 UNK         0.3800 
    243 H243       -3.5763  -21.3971  -54.8247 H         1 UNK         0.3800 
    244 H244       -1.9660  -17.2074  -53.6700 H         1 UNK         0.0800 
    245 H245       -2.9955  -16.5454  -52.4465 H         1 UNK         0.0800 
    246 H246       -0.1133  -19.3823  -52.6690 H         1 UNK         0.0800 
    247 H247        0.4280  -17.8157  -53.2258 H         1 UNK         0.0800 
@<TRIPOS>BOND
     1    1    2 1    
     2    1  127 1    
     3    1  128 1    
     4    1  129 1    
     5    2    3 2    
     6    2    4 am   BACKBONE|DICT|INTERRES
     7    4    5 1    
     8    4  130 1    
     9    5    6 1    
    10    5   65 1    
    11    5  131 1    
    12    6    7 1    
    13    6  132 1    
    14    6  133 1    
    15    7    8 1    
    16    8    9 1    
    17    8  134 1    
    18    8  135 1    
    19    9   10 ar   
    20    9   14 ar   
    21   10   11 ar   
    22   10  136 1    
    23   11   12 ar   
    24   11  126 1    
    25   12   13 ar   
    26   12  137 1    
    27   13   14 ar   
    28   13   15 1    
    29   14  138 1    
    30   15   16 1    
    31   15  139 1    
    32   15  140 1    
    33   16   17 1    
    34   17   18 1    
    35   17  141 1    
    36   17  142 1    
    37   18   19 1    
    38   18   67 1    
    39   18  143 1    
    40   19   20 am   BACKBONE|DICT|INTERRES
    41   19  144 1    
    42   20   21 2    
    43   20   22 1    
    44   22   23 1    
    45   22   24 1    
    46   22  145 1    
    47   23  146 1    
    48   23  147 1    
    49   23  148 1    
    50   24   25 am   BACKBONE|DICT|INTERRES
    51   24  149 1    
    52   25   26 2    
    53   25   27 1    
    54   27   28 1    
    55   27   29 1    
    56   27  150 1    
    57   28  151 1    
    58   28  152 1    
    59   28  153 1    
    60   29   30 am   BACKBONE|DICT|INTERRES
    61   29  154 1    
    62   30   31 2    
    63   30   32 1    
    64   32   33 1    
    65   32   34 1    
    66   32  155 1    
    67   33  156 1    
    68   33  157 1    
    69   33  158 1    
    70   34   35 am   BACKBONE|DICT|INTERRES
    71   34  159 1    
    72   35   36 2    
    73   35   37 1    
    74   37   38 1    
    75   37   39 1    
    76   37  160 1    
    77   38  161 1    
    78   38  162 1    
    79   38  163 1    
    80   39   40 am   BACKBONE|DICT|INTERRES
    81   39  164 1    
    82   40   41 2    
    83   40   42 1    
    84   42   43 1    
    85   42   44 1    
    86   42  165 1    
    87   43  166 1    
    88   43  167 1    
    89   43  168 1    
    90   44   45 am   BACKBONE|DICT|INTERRES
    91   44  169 1    
    92   45   46 2    
    93   45   47 1    
    94   47   48 1    
    95   47   49 1    
    96   47  170 1    
    97   48  171 1    
    98   48  172 1    
    99   48  173 1    
   100   49   50 am   BACKBONE|DICT|INTERRES
   101   49  174 1    
   102   50   51 2    
   103   50   52 1    
   104   52   53 1    
   105   52   54 1    
   106   52  175 1    
   107   53  176 1    
   108   53  177 1    
   109   53  178 1    
   110   54   55 am   BACKBONE|DICT|INTERRES
   111   54  179 1    
   112   55   56 2    
   113   55   57 1    
   114   57   58 1    
   115   57   59 1    
   116   57  180 1    
   117   58  181 1    
   118   58  182 1    
   119   58  183 1    
   120   59   60 am   BACKBONE|DICT|INTERRES
   121   59  184 1    
   122   60   61 2    
   123   60   62 1    
   124   62   63 1    
   125   62   64 1    
   126   62  185 1    
   127   63  186 1    
   128   63  187 1    
   129   63  188 1    
   130   64   65 am   BACKBONE|DICT|INTERRES
   131   64  189 1    
   132   65   66 2    
   133   67   68 2    
   134   67   69 am   BACKBONE|DICT|INTERRES
   135   69   70 1    
   136   69  190 1    
   137   70   71 1    
   138   70   72 1    
   139   70  191 1    
   140   71  192 1    
   141   71  193 1    
   142   71  194 1    
   143   72   73 2    
   144   72   74 am   BACKBONE|DICT|INTERRES
   145   74   75 1    
   146   74  195 1    
   147   75   76 1    
   148   75   77 1    
   149   75  196 1    
   150   76  197 1    
   151   76  198 1    
   152   76  199 1    
   153   77   78 2    
   154   77   79 am   BACKBONE|DICT|INTERRES
   155   79   80 1    
   156   79  200 1    
   157   80   81 1    
   158   80   82 1    
   159   80  201 1    
   160   81  202 1    
   161   81  203 1    
   162   81  204 1    
   163   82   83 2    
   164   82   84 am   BACKBONE|DICT|INTERRES
   165   84   85 1    
   166   84  205 1    
   167   85   86 1    
   168   85   87 1    
   169   85  206 1    
   170   86  207 1    
   171   86  208 1    
   172   86  209 1    
   173   87   88 2    
   174   87   89 am   BACKBONE|DICT|INTERRES
   175   89   90 1    
   176   89  210 1    
   177   90   91 1    
   178   90   92 1    
   179   90  211 1    
   180   91  212 1    
   181   91  213 1    
   182   91  214 1    
   183   92   93 2    
   184   92   94 am   BACKBONE|DICT|INTERRES
   185   94   95 1    
   186   94  215 1    
   187   95   96 1    
   188   95   97 1    
   189   95  216 1    
   190   96  217 1    
   191   96  218 1    
   192   96  219 1    
   193   97   98 2    
   194   97   99 am   BACKBONE|DICT|INTERRES
   195   99  100 1    
   196   99  220 1    
   197  100  101 1    
   198  100  102 1    
   199  100  221 1    
   200  101  222 1    
   201  101  223 1    
   202  101  224 1    
   203  102  103 2    
   204  102  104 am   BACKBONE|DICT|INTERRES
   205  104  105 1    
   206  104  225 1    
   207  105  106 1    
   208  105  107 1    
   209  105  226 1    
   210  106  227 1    
   211  106  228 1    
   212  106  229 1    
   213  107  108 2    
   214  107  109 am   BACKBONE|DICT|INTERRES
   215  109  110 1    
   216  109  230 1    
   217  110  111 1    
   218  110  112 1    
   219  110  231 1    
   220  111  232 1    
   221  111  233 1    
   222  111  234 1    
   223  112  113 2    
   224  112  114 am   BACKBONE|DICT|INTERRES
   225  114  115 1    
   226  114  235 1    
   227  115  116 1    
   228  115  117 1    
   229  115  236 1    
   230  116  237 1    
   231  116  238 1    
   232  116  239 1    
   233  117  118 2    
   234  117  119 am   BACKBONE|DICT|INTERRES
   235  119  120 1    
   236  119  240 1    
   237  120  121 1    
   238  120  124 1    
   239  120  241 1    
   240  121  122 am   BACKBONE|DICT|INTERRES
   241  121  123 2    
   242  122  242 1    
   243  122  243 1    
   244  124  125 1    
   245  124  244 1    
   246  124  245 1    
   247  125  126 1    
   248  126  246 1    
   249  126  247 1    
@<TRIPOS>SUBSTRUCTURE
     1 UNK         1 GROUP             0       ****    0 ROOT    
