@<TRIPOS>MOLECULE
3R540
247   249    1
SMALL
USER_CHARGES


@<TRIPOS>ATOM
      1 CA          1.6326  -12.5867  -52.1952 C.3       0 UNK        -0.1800 
      2 C           2.7565  -12.8654  -51.2082 C.2       0 UNK         0.5000 
      3 O           3.6806  -12.0605  -51.0886 O.2       0 UNK        -0.5000 
      4 N           2.6836  -14.0023  -50.5029 N.am      1 UNK        -0.5000 
      5 CA          3.6641  -14.4094  -49.4836 C.3       1 UNK         0.1400 
      6 C6          3.5984  -15.9336  -49.2104 C.3       23 UNK        -0.0398 
      7 S7          5.0747  -16.5850  -48.3523 S.3       23 UNK        -0.2404 
      8 C8          4.3446  -17.8181  -47.2278 C.3       23 UNK        -0.0205 
      9 C9          4.0671  -19.1217  -47.9576 C.ar      23 UNK        -0.0193 
     10 C10         2.8406  -19.3356  -48.5906 C.ar      23 UNK        -0.1150 
     11 C11         2.6073  -20.5121  -49.3077 C.ar      23 UNK        -0.0193 
     12 C12         3.6125  -21.4789  -49.3831 C.ar      23 UNK        -0.1150 
     13 C13         4.8264  -21.2999  -48.7126 C.ar      23 UNK        -0.0193 
     14 C14         5.0483  -20.1149  -48.0066 C.ar      23 UNK        -0.1150 
     15 C15         5.9069  -22.3709  -48.7550 C.3       23 UNK        -0.0205 
     16 S16         5.4888  -23.8097  -47.7140 S.3       23 UNK        -0.2404 
     17 C17         4.5112  -24.8215  -48.8782 C.3       23 UNK        -0.0398 
     18 CA          3.0971  -25.2178  -48.3764 C.3       11 UNK         0.1400 
     19 N           2.3519  -24.1124  -47.7434 N.am      11 UNK        -0.5000 
     20 C           1.2634  -24.3012  -46.9781 C.2       10 UNK         0.5000 
     21 O           0.7561  -25.4108  -46.8139 O.2       10 UNK        -0.5000 
     22 CA          0.6718  -23.0734  -46.2475 C.3       10 UNK         0.1400 
     23 CB         -0.2717  -23.4844  -45.0903 C.3       10 UNK        -0.1800 
     24 N           1.7532  -22.1959  -45.7828 N.am      10 UNK        -0.5000 
     25 C           1.7003  -20.9469  -45.2934 C.2       9 UNK         0.5000 
     26 O           2.7313  -20.3469  -44.9878 O.2       9 UNK        -0.5000 
     27 CA          0.3464  -20.2508  -45.0359 C.3       9 UNK         0.1400 
     28 CB         -0.0549  -20.3927  -43.5555 C.3       9 UNK        -0.1800 
     29 N           0.4490  -18.8220  -45.3090 N.am      9 UNK        -0.5000 
     30 C           0.0535  -18.2078  -46.4259 C.2       8 UNK         0.5000 
     31 O          -0.4517  -18.7921  -47.3851 O.2       8 UNK        -0.5000 
     32 CA          0.2400  -16.6769  -46.4416 C.3       8 UNK         0.1400 
     33 CB         -0.1484  -16.0342  -47.7835 C.3       8 UNK        -0.1800 
     34 N          -0.5429  -16.0543  -45.3762 N.am      8 UNK        -0.5000 
     35 C          -0.1481  -15.9079  -44.1036 C.2       7 UNK         0.5000 
     36 O           0.9443  -16.3005  -43.6916 O.2       7 UNK        -0.5000 
     37 CA         -1.1231  -15.2305  -43.1203 C.3       7 UNK         0.1400 
     38 CB         -0.6183  -13.8357  -42.7181 C.3       7 UNK        -0.1800 
     39 N          -2.4701  -15.1010  -43.6753 N.am      7 UNK        -0.5000 
     40 C          -3.4476  -16.0042  -43.5142 C.2       6 UNK         0.5000 
     41 O          -3.3379  -17.0077  -42.8095 O.2       6 UNK        -0.5000 
     42 CA         -4.7699  -15.7567  -44.2706 C.3       6 UNK         0.1400 
     43 CB         -5.7987  -15.0896  -43.3451 C.3       6 UNK        -0.1800 
     44 N          -4.6208  -14.9399  -45.4776 N.am      6 UNK        -0.5000 
     45 C          -3.8992  -15.2813  -46.5548 C.2       5 UNK         0.5000 
     46 O          -3.2894  -16.3430  -46.6577 O.2       5 UNK        -0.5000 
     47 CA         -3.7626  -14.2215  -47.6656 C.3       5 UNK         0.1400 
     48 CB         -4.8267  -14.4224  -48.7526 C.3       5 UNK        -0.1800 
     49 N          -3.8246  -12.8410  -47.1742 N.am      5 UNK        -0.5000 
     50 C          -2.9462  -12.3068  -46.3167 C.2       4 UNK         0.5000 
     51 O          -2.0351  -12.9446  -45.7834 O.2       4 UNK        -0.5000 
     52 CA         -3.1250  -10.8263  -45.9696 C.3       4 UNK         0.1400 
     53 CB         -3.7584  -10.6696  -44.5782 C.3       4 UNK        -0.1800 
     54 N          -1.7980  -10.2267  -45.9691 N.am      4 UNK        -0.5000 
     55 C          -1.4291   -9.1495  -46.6696 C.2       3 UNK         0.5000 
     56 O          -2.2148   -8.4317  -47.2900 O.2       3 UNK        -0.5000 
     57 CA          0.0778   -8.8223  -46.6973 C.3       3 UNK         0.1400 
     58 CB          0.4066   -7.7248  -45.6734 C.3       3 UNK        -0.1800 
     59 N           0.9457   -9.9794  -46.4491 N.am      3 UNK        -0.5000 
     60 C           1.0828  -11.0295  -47.2700 C.2       2 UNK         0.5000 
     61 O           0.4700  -11.1586  -48.3335 O.2       2 UNK        -0.5000 
     62 CA          2.0705  -12.1138  -46.8162 C.3       2 UNK         0.1400 
     63 CB          1.5089  -12.9392  -45.6476 C.3       2 UNK        -0.1800 
     64 N           2.3583  -12.9988  -47.9384 N.am      2 UNK        -0.5000 
     65 C           3.5400  -13.5746  -48.1850 C.2       1 UNK         0.5000 
     66 O           4.5179  -13.4462  -47.4466 O.2       1 UNK        -0.5000 
     67 C           2.3269  -25.8904  -49.5362 C.2       11 UNK         0.5000 
     68 O           2.5570  -27.0681  -49.8158 O.2       11 UNK        -0.5000 
     69 N           1.4675  -25.1179  -50.2146 N.am      12 UNK        -0.5000 
     70 CA          0.6696  -25.5503  -51.3623 C.3       12 UNK         0.1400 
     71 CB          0.2028  -24.3002  -52.1290 C.3       12 UNK        -0.1800 
     72 C          -0.5098  -26.4621  -50.9626 C.2       12 UNK         0.5000 
     73 O          -0.8218  -26.5958  -49.7764 O.2       12 UNK        -0.5000 
     74 N          -1.1470  -27.0710  -51.9720 N.am      13 UNK        -0.5000 
     75 CA         -2.2461  -28.0342  -51.8478 C.3       13 UNK         0.1400 
     76 CB         -2.7329  -28.4164  -53.2537 C.3       13 UNK        -0.1800 
     77 C          -3.4283  -27.5348  -50.9938 C.2       13 UNK         0.5000 
     78 O          -3.8132  -26.3670  -51.0977 O.2       13 UNK        -0.5000 
     79 N          -3.9708  -28.4390  -50.1648 N.am      14 UNK        -0.5000 
     80 CA         -5.0665  -28.2172  -49.2120 C.3       14 UNK         0.1400 
     81 CB         -6.3952  -27.9825  -49.9616 C.3       14 UNK        -0.1800 
     82 C          -4.7504  -27.1083  -48.1851 C.2       14 UNK         0.5000 
     83 O          -5.6191  -26.2934  -47.8724 O.2       14 UNK        -0.5000 
     84 N          -3.4925  -27.0748  -47.7157 N.am      15 UNK        -0.5000 
     85 CA         -2.9055  -26.0463  -46.8467 C.3       15 UNK         0.1400 
     86 CB         -3.5300  -26.0968  -45.4360 C.3       15 UNK        -0.1800 
     87 C          -2.9828  -24.6473  -47.4920 C.2       15 UNK         0.5000 
     88 O          -3.4266  -23.6894  -46.8584 O.2       15 UNK        -0.5000 
     89 N          -2.5949  -24.5824  -48.7722 N.am      16 UNK        -0.5000 
     90 CA         -2.7075  -23.4416  -49.6820 C.3       16 UNK         0.1400 
     91 CB         -1.7330  -22.3263  -49.2633 C.3       16 UNK        -0.1800 
     92 C          -4.1564  -22.9478  -49.8320 C.2       16 UNK         0.5000 
     93 O          -4.4104  -21.7478  -49.7145 O.2       16 UNK        -0.5000 
     94 N          -5.0765  -23.8936  -50.0663 N.am      17 UNK        -0.5000 
     95 CA         -6.5309  -23.7083  -50.1258 C.3       17 UNK         0.1400 
     96 CB         -6.9208  -22.9163  -51.3916 C.3       17 UNK        -0.1800 
     97 C          -7.0967  -23.0962  -48.8245 C.2       17 UNK         0.5000 
     98 O          -7.8827  -22.1490  -48.8740 O.2       17 UNK        -0.5000 
     99 N          -6.6537  -23.6485  -47.6852 N.am      18 UNK        -0.5000 
    100 CA        -6.9019  -23.1968  -46.3129 C.3       18 UNK         0.1400 
    101 CB        -8.3780  -23.4223  -45.9246 C.3       18 UNK        -0.1800 
    102 C         -6.4183  -21.7492  -46.0762 C.2       18 UNK         0.5000 
    103 O         -7.1746  -20.9197  -45.5674 O.2       18 UNK        -0.5000 
    104 N         -5.1604  -21.4910  -46.4647 N.am      19 UNK        -0.5000 
    105 CA        -4.4555  -20.2069  -46.4572 C.3       19 UNK         0.1400 
    106 CB        -4.1409  -19.7613  -45.0154 C.3       19 UNK        -0.1800 
    107 C         -5.1989  -19.1338  -47.2773 C.2       19 UNK         0.5000 
    108 O         -5.7751  -18.2006  -46.7151 O.2       19 UNK        -0.5000 
    109 N         -5.1973  -19.3155  -48.6013 N.am      20 UNK        -0.5000 
    110 CA        -5.7886  -18.3914  -49.5651 C.3       20 UNK         0.1400 
    111 CB        -7.2362  -18.8096  -49.8678 C.3       20 UNK        -0.1800 
    112 C         -4.9648  -18.2965  -50.8595 C.2       20 UNK         0.5000 
    113 O         -4.8507  -17.2041  -51.4173 O.2       20 UNK        -0.5000 
    114 N         -4.4073  -19.4253  -51.3250 N.am      21 UNK        -0.5000 
    115 CA        -3.7708  -19.5648  -52.6406 C.3       21 UNK         0.1400 
    116 CB        -3.4454  -21.0456  -52.8926 C.3       21 UNK        -0.1800 
    117 C         -2.5141  -18.6983  -52.8506 C.2       21 UNK         0.5000 
    118 O         -2.2426  -18.2997  -53.9841 O.2       21 UNK        -0.5000 
    119 N         -1.7849  -18.4190  -51.7649 N.am      22 UNK        -0.5000 
    120 CA        -0.5797  -17.5720  -51.7558 C.3       22 UNK         0.1400 
    121 C         -0.8572  -16.1048  -51.3133 C.2       22 UNK         0.5000 
    122 N         -2.1047  -15.6714  -51.1691 N.am      22 UNK        -0.7600 
    123 O          0.0813  -15.3416  -51.0958 O.2       22 UNK        -0.5000 
    124 C124        0.5596  -18.2056  -50.9203 C.3       23 UNK        -0.0398 
    125 S125        1.0797  -19.8425  -51.5357 S.3       23 UNK        -0.2404 
    126 C126        1.2652  -20.7608  -49.9780 C.3       23 UNK        -0.0205 
    127 H127        1.9788  -11.9346  -52.9972 H         1 UNK         0.0600 
    128 H128        1.2672  -13.5084  -52.6479 H         1 UNK         0.0600 
    129 H129        0.8013  -12.0963  -51.6883 H         1 UNK         0.0600 
    130 H130        1.8758  -14.6054  -50.6377 H         1 UNK         0.3000 
    131 H131        4.6538  -14.1987  -49.8951 H         1 UNK         0.0600 
    132 H132        3.5164  -16.4767  -50.1528 H         1 UNK         0.0800 
    133 H133        2.7050  -16.1770  -48.6398 H         1 UNK         0.0800 
    134 H134        5.0405  -17.9989  -46.4072 H         1 UNK         0.0800 
    135 H135        3.4361  -17.4304  -46.7670 H         1 UNK         0.0800 
    136 H136        2.0735  -18.5800  -48.5337 H         1 UNK         0.1150 
    137 H137        3.4390  -22.3745  -49.9588 H         1 UNK         0.1150 
    138 H138        5.9916  -19.9572  -47.5029 H         1 UNK         0.1150 
    139 H139        6.0890  -22.6796  -49.7853 H         1 UNK         0.0800 
    140 H140        6.8534  -21.9605  -48.3997 H         1 UNK         0.0800 
    141 H141        5.0893  -25.7265  -49.0741 H         1 UNK         0.0800 
    142 H142        4.4547  -24.3145  -49.8413 H         1 UNK         0.0800 
    143 H143        3.2370  -25.9826  -47.6089 H         1 UNK         0.0600 
    144 H144        2.7472  -23.1880  -47.8433 H         1 UNK         0.3000 
    145 H145        0.0888  -22.5349  -46.9940 H         1 UNK         0.0600 
    146 H146        0.2864  -23.7571  -44.1944 H         1 UNK         0.0600 
    147 H147       -0.9763  -22.6972  -44.8338 H         1 UNK         0.0600 
    148 H148       -0.8968  -24.3373  -45.3490 H         1 UNK         0.0600 
    149 H149        2.6711  -22.6110  -45.8590 H         1 UNK         0.3000 
    150 H150       -0.4308  -20.6818  -45.6669 H         1 UNK         0.0600 
    151 H151        0.6199  -19.8359  -42.9038 H         1 UNK         0.0600 
    152 H152       -0.0313  -21.4279  -43.2179 H         1 UNK         0.0600 
    153 H153       -1.0641  -20.0159  -43.3868 H         1 UNK         0.0600 
    154 H154        0.8853  -18.2600  -44.5876 H         1 UNK         0.3000 
    155 H155        1.2979  -16.4668  -46.2741 H         1 UNK         0.0600 
    156 H156        0.4997  -16.3867  -48.5809 H         1 UNK         0.0600 
    157 H157       -0.0598  -14.9484  -47.7504 H         1 UNK         0.0600 
    158 H158       -1.1683  -16.2784  -48.0768 H         1 UNK         0.0600 
    159 H159       -1.4903  -15.7976  -45.6236 H         1 UNK         0.3000 
    160 H160       -1.1497  -15.8461  -42.2189 H         1 UNK         0.0600 
    161 H161       -0.6053  -13.1503  -43.5645 H         1 UNK         0.0600 
    162 H162        0.3951  -13.8836  -42.3175 H         1 UNK         0.0600 
    163 H163       -1.2518  -13.3977  -41.9467 H         1 UNK         0.0600 
    164 H164       -2.6171  -14.3167  -44.3006 H         1 UNK         0.3000 
    165 H165       -5.1600  -16.7308  -44.5704 H         1 UNK         0.0600 
    166 H166       -6.7656  -14.9879  -43.8382 H         1 UNK         0.0600 
    167 H167       -5.9565  -15.6837  -42.4439 H         1 UNK         0.0600 
    168 H168       -5.4734  -14.0968  -43.0315 H         1 UNK         0.0600 
    169 H169       -5.0760  -14.0395  -45.4746 H         1 UNK         0.3000 
    170 H170       -2.7818  -14.3570  -48.1264 H         1 UNK         0.0600 
    171 H171       -5.8376  -14.3669  -48.3467 H         1 UNK         0.0600 
    172 H172       -4.7367  -13.6748  -49.5409 H         1 UNK         0.0600 
    173 H173       -4.7096  -15.3969  -49.2245 H         1 UNK         0.0600 
    174 H174       -4.5546  -12.2587  -47.5590 H         1 UNK         0.3000 
    175 H175       -3.7687  -10.3566  -46.7163 H         1 UNK         0.0600 
    176 H176       -4.7521  -11.1182  -44.5480 H         1 UNK         0.0600 
    177 H177       -3.1569  -11.1482  -43.8038 H         1 UNK         0.0600 
    178 H178       -3.8674   -9.6178  -44.3136 H         1 UNK         0.0600 
    179 H179       -1.0780  -10.7964  -45.5462 H         1 UNK         0.3000 
    180 H180        0.3080   -8.4391  -47.6937 H         1 UNK         0.0600 
    181 H181        1.4516   -7.4214  -45.7408 H         1 UNK         0.0600 
    182 H182        0.2171   -8.0577  -44.6521 H         1 UNK         0.0600 
    183 H183       -0.1998   -6.8345  -45.8460 H         1 UNK         0.0600 
    184 H184        1.4861   -9.9534  -45.5963 H         1 UNK         0.3000 
    185 H185        2.9861  -11.6113  -46.4968 H         1 UNK         0.0600 
    186 H186        1.3247  -12.3122  -44.7752 H         1 UNK         0.0600 
    187 H187        0.5682  -13.4186  -45.9160 H         1 UNK         0.0600 
    188 H188        2.2046  -13.7211  -45.3423 H         1 UNK         0.0600 
    189 H189        1.6229  -13.0550  -48.6316 H         1 UNK         0.3000 
    190 H190        1.3120  -24.1800  -49.8835 H         1 UNK         0.3000 
    191 H191        1.3134  -26.1318  -52.0258 H         1 UNK         0.0600 
    192 H192       -0.3220  -23.5976  -51.4856 H         1 UNK         0.0600 
    193 H193       -0.4639  -24.5546  -52.9537 H         1 UNK         0.0600 
    194 H194        1.0534  -23.7708  -52.5589 H         1 UNK         0.0600 
    195 H195       -0.8423  -26.8794  -52.9150 H         1 UNK         0.3000 
    196 H196       -1.8316  -28.9264  -51.3743 H         1 UNK         0.0600 
    197 H197       -3.5355  -29.1537  -53.2040 H         1 UNK         0.0600 
    198 H198       -1.9293  -28.8535  -53.8467 H         1 UNK         0.0600 
    199 H199       -3.1172  -27.5498  -53.7935 H         1 UNK         0.0600 
    200 H200       -3.5804  -29.3714  -50.1576 H         1 UNK         0.3000 
    201 H201       -5.1715  -29.1385  -48.6374 H         1 UNK         0.0600 
    202 H202       -6.6105  -28.8037  -50.6450 H         1 UNK         0.0600 
    203 H203       -6.3768  -27.0612  -50.5436 H         1 UNK         0.0600 
    204 H204       -7.2322  -27.9138  -49.2658 H         1 UNK         0.0600 
    205 H205       -2.8427  -27.7638  -48.0683 H         1 UNK         0.3000 
    206 H206       -1.8458  -26.2863  -46.7520 H         1 UNK         0.0600 
    207 H207       -4.5875  -25.8323  -45.4475 H         1 UNK         0.0600 
    208 H208       -3.4385  -27.0919  -45.0011 H         1 UNK         0.0600 
    209 H209       -3.0300  -25.4013  -44.7614 H         1 UNK         0.0600 
    210 H210       -2.2143  -25.4301  -49.1850 H         1 UNK         0.3000 
    211 H211       -2.4160  -23.8032  -50.6674 H         1 UNK         0.0600 
    212 H212       -2.0049  -21.8824  -48.3054 H         1 UNK         0.0600 
    213 H213       -1.7110  -21.5236  -50.0006 H         1 UNK         0.0600 
    214 H214       -0.7238  -22.7219  -49.1753 H         1 UNK         0.0600 
    215 H215       -4.7456  -24.8461  -50.1912 H         1 UNK         0.3000 
    216 H216       -6.9677  -24.7039  -50.2102 H         1 UNK         0.0600 
    217 H217       -8.0045  -22.8599  -51.4986 H         1 UNK         0.0600 
    218 H218       -6.5307  -23.3948  -52.2897 H         1 UNK         0.0600 
    219 H219       -6.5416  -21.8948  -51.3660 H         1 UNK         0.0600 
    220 H220       -6.0554  -24.4678  -47.7657 H         1 UNK         0.3000 
    221 H221       -6.2920  -23.8322  -45.6692 H         1 UNK         0.0600 
    222 H222       -9.0524  -22.7940  -46.5071 H         1 UNK         0.0600 
    223 H223       -8.6704  -24.4610  -46.0784 H         1 UNK         0.0600 
    224 H224       -8.5433  -23.1911  -44.8718 H         1 UNK         0.0600 
    225 H225       -4.6156  -22.2735  -46.8223 H         1 UNK         0.3000 
    226 H226       -3.4999  -20.3778  -46.9556 H         1 UNK         0.0600 
    227 H227       -5.0459  -19.5593  -44.4419 H         1 UNK         0.0600 
    228 H228       -3.5678  -20.5213  -44.4845 H         1 UNK         0.0600 
    229 H229       -3.5437  -18.8485  -45.0189 H         1 UNK         0.0600 
    230 H230       -4.7792  -20.1649  -48.9759 H         1 UNK         0.3000 
    231 H231       -5.8120  -17.3901  -49.1333 H         1 UNK         0.0600 
    232 H232       -7.7029  -18.1236  -50.5756 H         1 UNK         0.0600 
    233 H233       -7.8439  -18.8091  -48.9627 H         1 UNK         0.0600 
    234 H234       -7.2823  -19.8103  -50.2978 H         1 UNK         0.0600 
    235 H235       -4.5164  -20.2851  -50.7937 H         1 UNK         0.3000 
    236 H236       -4.5043  -19.2518  -53.3866 H         1 UNK         0.0600 
    237 H237       -2.7040  -21.4198  -52.1870 H         1 UNK         0.0600 
    238 H238       -4.3363  -21.6682  -52.8097 H         1 UNK         0.0600 
    239 H239       -3.0415  -21.1906  -53.8954 H         1 UNK         0.0600 
    240 H240       -2.0954  -18.7691  -50.8710 H         1 UNK         0.3000 
    241 H241       -0.2012  -17.4823  -52.7754 H         1 UNK         0.0600 
    242 H242       -2.2567  -14.7135  -50.9018 H         1 UNK         0.3800 
    243 H243       -2.8963  -16.2720  -51.3617 H         1 UNK         0.3800 
    244 H244        0.2341  -18.2921  -49.8852 H         1 UNK         0.0800 
    245 H245        1.4444  -17.5680  -50.9180 H         1 UNK         0.0800 
    246 H246        0.4579  -20.5108  -49.2894 H         1 UNK         0.0800 
    247 H247        1.1576  -21.8209  -50.2054 H         1 UNK         0.0800 
@<TRIPOS>BOND
     1    1    2 1    
     2    1  127 1    
     3    1  128 1    
     4    1  129 1    
     5    2    3 2    
     6    2    4 am   BACKBONE|DICT|INTERRES
     7    4    5 1    
     8    4  130 1    
     9    5    6 1    
    10    5   65 1    
    11    5  131 1    
    12    6    7 1    
    13    6  132 1    
    14    6  133 1    
    15    7    8 1    
    16    8    9 1    
    17    8  134 1    
    18    8  135 1    
    19    9   10 ar   
    20    9   14 ar   
    21   10   11 ar   
    22   10  136 1    
    23   11   12 ar   
    24   11  126 1    
    25   12   13 ar   
    26   12  137 1    
    27   13   14 ar   
    28   13   15 1    
    29   14  138 1    
    30   15   16 1    
    31   15  139 1    
    32   15  140 1    
    33   16   17 1    
    34   17   18 1    
    35   17  141 1    
    36   17  142 1    
    37   18   19 1    
    38   18   67 1    
    39   18  143 1    
    40   19   20 am   BACKBONE|DICT|INTERRES
    41   19  144 1    
    42   20   21 2    
    43   20   22 1    
    44   22   23 1    
    45   22   24 1    
    46   22  145 1    
    47   23  146 1    
    48   23  147 1    
    49   23  148 1    
    50   24   25 am   BACKBONE|DICT|INTERRES
    51   24  149 1    
    52   25   26 2    
    53   25   27 1    
    54   27   28 1    
    55   27   29 1    
    56   27  150 1    
    57   28  151 1    
    58   28  152 1    
    59   28  153 1    
    60   29   30 am   BACKBONE|DICT|INTERRES
    61   29  154 1    
    62   30   31 2    
    63   30   32 1    
    64   32   33 1    
    65   32   34 1    
    66   32  155 1    
    67   33  156 1    
    68   33  157 1    
    69   33  158 1    
    70   34   35 am   BACKBONE|DICT|INTERRES
    71   34  159 1    
    72   35   36 2    
    73   35   37 1    
    74   37   38 1    
    75   37   39 1    
    76   37  160 1    
    77   38  161 1    
    78   38  162 1    
    79   38  163 1    
    80   39   40 am   BACKBONE|DICT|INTERRES
    81   39  164 1    
    82   40   41 2    
    83   40   42 1    
    84   42   43 1    
    85   42   44 1    
    86   42  165 1    
    87   43  166 1    
    88   43  167 1    
    89   43  168 1    
    90   44   45 am   BACKBONE|DICT|INTERRES
    91   44  169 1    
    92   45   46 2    
    93   45   47 1    
    94   47   48 1    
    95   47   49 1    
    96   47  170 1    
    97   48  171 1    
    98   48  172 1    
    99   48  173 1    
   100   49   50 am   BACKBONE|DICT|INTERRES
   101   49  174 1    
   102   50   51 2    
   103   50   52 1    
   104   52   53 1    
   105   52   54 1    
   106   52  175 1    
   107   53  176 1    
   108   53  177 1    
   109   53  178 1    
   110   54   55 am   BACKBONE|DICT|INTERRES
   111   54  179 1    
   112   55   56 2    
   113   55   57 1    
   114   57   58 1    
   115   57   59 1    
   116   57  180 1    
   117   58  181 1    
   118   58  182 1    
   119   58  183 1    
   120   59   60 am   BACKBONE|DICT|INTERRES
   121   59  184 1    
   122   60   61 2    
   123   60   62 1    
   124   62   63 1    
   125   62   64 1    
   126   62  185 1    
   127   63  186 1    
   128   63  187 1    
   129   63  188 1    
   130   64   65 am   BACKBONE|DICT|INTERRES
   131   64  189 1    
   132   65   66 2    
   133   67   68 2    
   134   67   69 am   BACKBONE|DICT|INTERRES
   135   69   70 1    
   136   69  190 1    
   137   70   71 1    
   138   70   72 1    
   139   70  191 1    
   140   71  192 1    
   141   71  193 1    
   142   71  194 1    
   143   72   73 2    
   144   72   74 am   BACKBONE|DICT|INTERRES
   145   74   75 1    
   146   74  195 1    
   147   75   76 1    
   148   75   77 1    
   149   75  196 1    
   150   76  197 1    
   151   76  198 1    
   152   76  199 1    
   153   77   78 2    
   154   77   79 am   BACKBONE|DICT|INTERRES
   155   79   80 1    
   156   79  200 1    
   157   80   81 1    
   158   80   82 1    
   159   80  201 1    
   160   81  202 1    
   161   81  203 1    
   162   81  204 1    
   163   82   83 2    
   164   82   84 am   BACKBONE|DICT|INTERRES
   165   84   85 1    
   166   84  205 1    
   167   85   86 1    
   168   85   87 1    
   169   85  206 1    
   170   86  207 1    
   171   86  208 1    
   172   86  209 1    
   173   87   88 2    
   174   87   89 am   BACKBONE|DICT|INTERRES
   175   89   90 1    
   176   89  210 1    
   177   90   91 1    
   178   90   92 1    
   179   90  211 1    
   180   91  212 1    
   181   91  213 1    
   182   91  214 1    
   183   92   93 2    
   184   92   94 am   BACKBONE|DICT|INTERRES
   185   94   95 1    
   186   94  215 1    
   187   95   96 1    
   188   95   97 1    
   189   95  216 1    
   190   96  217 1    
   191   96  218 1    
   192   96  219 1    
   193   97   98 2    
   194   97   99 am   BACKBONE|DICT|INTERRES
   195   99  100 1    
   196   99  220 1    
   197  100  101 1    
   198  100  102 1    
   199  100  221 1    
   200  101  222 1    
   201  101  223 1    
   202  101  224 1    
   203  102  103 2    
   204  102  104 am   BACKBONE|DICT|INTERRES
   205  104  105 1    
   206  104  225 1    
   207  105  106 1    
   208  105  107 1    
   209  105  226 1    
   210  106  227 1    
   211  106  228 1    
   212  106  229 1    
   213  107  108 2    
   214  107  109 am   BACKBONE|DICT|INTERRES
   215  109  110 1    
   216  109  230 1    
   217  110  111 1    
   218  110  112 1    
   219  110  231 1    
   220  111  232 1    
   221  111  233 1    
   222  111  234 1    
   223  112  113 2    
   224  112  114 am   BACKBONE|DICT|INTERRES
   225  114  115 1    
   226  114  235 1    
   227  115  116 1    
   228  115  117 1    
   229  115  236 1    
   230  116  237 1    
   231  116  238 1    
   232  116  239 1    
   233  117  118 2    
   234  117  119 am   BACKBONE|DICT|INTERRES
   235  119  120 1    
   236  119  240 1    
   237  120  121 1    
   238  120  124 1    
   239  120  241 1    
   240  121  122 am   BACKBONE|DICT|INTERRES
   241  121  123 2    
   242  122  242 1    
   243  122  243 1    
   244  124  125 1    
   245  124  244 1    
   246  124  245 1    
   247  125  126 1    
   248  126  246 1    
   249  126  247 1    
@<TRIPOS>SUBSTRUCTURE
     1 UNK         1 GROUP             0       ****    0 ROOT    
