@<TRIPOS>MOLECULE
3R540
247   249    1
SMALL
USER_CHARGES


@<TRIPOS>ATOM
      1 CA          8.3413  -15.8385  -45.4836 C.3       0 UNK        -0.1800 
      2 C           7.1447  -16.7724  -45.5900 C.2       0 UNK         0.5000 
      3 O           6.5449  -17.1155  -44.5707 O.2       0 UNK        -0.5000 
      4 N           6.7842  -17.1658  -46.8200 N.am      1 UNK        -0.5000 
      5 CA          5.6769  -18.0771  -47.1532 C.3       1 UNK         0.1400 
      6 C6          5.6220  -18.3884  -48.6721 C.3       23 UNK        -0.0398 
      7 S7          5.4392  -16.9022  -49.7271 S.3       23 UNK        -0.2404 
      8 C8          5.0877  -17.6339  -51.3555 C.3       23 UNK        -0.0205 
      9 C9          3.6635  -18.1611  -51.4655 C.ar      23 UNK        -0.0193 
     10 C10         2.6086  -17.2937  -51.7727 C.ar      23 UNK        -0.1150 
     11 C11         1.3069  -17.7835  -51.9292 C.ar      23 UNK        -0.0193 
     12 C12         1.0670  -19.1508  -51.7642 C.ar      23 UNK        -0.1150 
     13 C13         2.1081  -20.0234  -51.4417 C.ar      23 UNK        -0.0193 
     14 C14         3.4057  -19.5251  -51.3026 C.ar      23 UNK        -0.1150 
     15 C15         1.8308  -21.5065  -51.2610 C.3       23 UNK        -0.0205 
     16 S16         1.9719  -22.0180  -49.5215 S.3       23 UNK        -0.2404 
     17 C17         0.6588  -21.0287  -48.7280 C.3       23 UNK        -0.0398 
     18 CA          0.1340  -21.6891  -47.4282 C.3       11 UNK         0.1400 
     19 N          -0.2195  -20.6878  -46.4175 N.am      11 UNK        -0.5000 
     20 C          -0.1506  -20.8945  -45.0952 C.2       10 UNK         0.5000 
     21 O           0.1524  -21.9723  -44.5824 O.2       10 UNK        -0.5000 
     22 CA         -0.5254  -19.7017  -44.2079 C.3       10 UNK         0.1400 
     23 CB          0.5606  -18.6193  -44.2812 C.3       10 UNK        -0.1800 
     24 N          -1.8197  -19.1472  -44.6049 N.am      10 UNK        -0.5000 
     25 C          -2.9999  -19.6867  -44.2650 C.2       9 UNK         0.5000 
     26 O          -3.1088  -20.6734  -43.5376 O.2       9 UNK        -0.5000 
     27 CA         -4.2764  -19.0322  -44.8275 C.3       9 UNK         0.1400 
     28 CB         -4.9255  -18.1218  -43.7743 C.3       9 UNK        -0.1800 
     29 N          -4.0351  -18.2622  -46.0468 N.am      9 UNK        -0.5000 
     30 C          -3.8453  -18.8089  -47.2566 C.2       8 UNK         0.5000 
     31 O          -3.8732  -20.0179  -47.4721 O.2       8 UNK        -0.5000 
     32 CA         -3.5165  -17.8489  -48.4126 C.3       8 UNK         0.1400 
     33 CB         -4.7985  -17.3466  -49.0905 C.3       8 UNK        -0.1800 
     34 N          -2.7310  -16.6935  -47.9888 N.am      8 UNK        -0.5000 
     35 C          -1.5181  -16.7448  -47.4259 C.2       7 UNK         0.5000 
     36 O          -0.9202  -17.7946  -47.1806 O.2       7 UNK        -0.5000 
     37 CA         -0.8815  -15.3986  -47.0383 C.3       7 UNK         0.1400 
     38 CB         -1.4963  -14.1808  -47.7634 C.3       7 UNK        -0.1800 
     39 N          -0.8886  -15.1719  -45.5898 N.am      7 UNK        -0.5000 
     40 C          -1.9449  -15.1562  -44.7601 C.2       6 UNK         0.5000 
     41 O          -3.0832  -15.4949  -45.0873 O.2       6 UNK        -0.5000 
     42 CA         -1.6935  -14.6122  -43.3367 C.3       6 UNK         0.1400 
     43 CB         -1.3926  -15.7364  -42.3342 C.3       6 UNK        -0.1800 
     44 N          -0.5988  -13.6382  -43.3203 N.am      6 UNK        -0.5000 
     45 C          -0.7157  -12.3721  -43.7409 C.2       5 UNK         0.5000 
     46 O          -1.8007  -11.8382  -43.9783 O.2       5 UNK        -0.5000 
     47 CA          0.5923  -11.5950  -44.0039 C.3       5 UNK         0.1400 
     48 CB          0.4138  -10.0648  -43.9015 C.3       5 UNK        -0.1800 
     49 N           1.7489  -12.0452  -43.2192 N.am      5 UNK        -0.5000 
     50 C           1.9291  -11.9331  -41.8951 C.2       4 UNK         0.5000 
     51 O           1.0769  -11.5054  -41.1144 O.2       4 UNK        -0.5000 
     52 CA          3.3242  -12.3536  -41.3837 C.3       4 UNK         0.1400 
     53 CB          3.4693  -12.2673  -39.8487 C.3       4 UNK        -0.1800 
     54 N           3.7363  -13.6692  -41.8896 N.am      4 UNK        -0.5000 
     55 C           3.1616  -14.8488  -41.6139 C.2       3 UNK         0.5000 
     56 O           2.1980  -14.9864  -40.8579 O.2       3 UNK        -0.5000 
     57 CA          3.7588  -16.0712  -42.3460 C.3       3 UNK         0.1400 
     58 CB          3.0895  -17.3938  -41.9255 C.3       3 UNK        -0.1800 
     59 N           3.7431  -15.9465  -43.8105 N.am      3 UNK        -0.5000 
     60 C           2.7008  -15.6084  -44.5876 C.2       2 UNK         0.5000 
     61 O           1.6030  -15.2608  -44.1564 O.2       2 UNK        -0.5000 
     62 CA          2.8920  -15.6317  -46.1134 C.3       2 UNK         0.1400 
     63 CB          2.8430  -14.2072  -46.6878 C.3       2 UNK        -0.1800 
     64 N           4.1234  -16.2772  -46.5495 N.am      2 UNK        -0.5000 
     65 C           4.2990  -17.6021  -46.6422 C.2       1 UNK         0.5000 
     66 O           3.4408  -18.4322  -46.3421 O.2       1 UNK        -0.5000 
     67 C          -0.9894  -22.7281  -47.6670 C.2       11 UNK         0.5000 
     68 O          -0.8045  -23.6564  -48.4559 O.2       11 UNK        -0.5000 
     69 N          -2.1187  -22.6035  -46.9518 N.am      12 UNK        -0.5000 
     70 CA         -3.2195  -23.5701  -46.9074 C.3       12 UNK         0.1400 
     71 CB         -4.3185  -23.0614  -45.9638 C.3       12 UNK        -0.1800 
     72 C          -2.7790  -24.9784  -46.4701 C.2       12 UNK         0.5000 
     73 O          -3.2718  -25.9655  -47.0135 O.2       12 UNK        -0.5000 
     74 N          -1.8365  -25.0414  -45.5214 N.am      13 UNK        -0.5000 
     75 CA         -1.2730  -26.2861  -44.9996 C.3       13 UNK         0.1400 
     76 CB         -0.5364  -25.9773  -43.6869 C.3       13 UNK        -0.1800 
     77 C          -0.3292  -26.9986  -45.9887 C.2       13 UNK         0.5000 
     78 O          -0.1181  -28.2042  -45.8500 O.2       13 UNK        -0.5000 
     79 N           0.2360  -26.2483  -46.9438 N.am      14 UNK        -0.5000 
     80 CA          1.2390  -26.7322  -47.8891 C.3       14 UNK         0.1400 
     81 CB          2.3779  -25.7037  -47.9734 C.3       14 UNK        -0.1800 
     82 C           0.6487  -26.9921  -49.2832 C.2       14 UNK         0.5000 
     83 O           0.9340  -28.0373  -49.8693 O.2       14 UNK        -0.5000 
     84 N          -0.1305  -26.0338  -49.8007 N.am      15 UNK        -0.5000 
     85 CA         -0.5505  -25.9822  -51.2032 C.3       15 UNK         0.1400 
     86 CB          0.1782  -24.8011  -51.8660 C.3       15 UNK        -0.1800 
     87 C          -2.0712  -25.8361  -51.3853 C.2       15 UNK         0.5000 
     88 O          -2.5200  -25.7544  -52.5293 O.2       15 UNK        -0.5000 
     89 N          -2.8363  -25.7734  -50.2829 N.am      16 UNK        -0.5000 
     90 CA         -4.2844  -25.5098  -50.2429 C.3       16 UNK         0.1400 
     91 CB         -5.0823  -26.6560  -50.8995 C.3       16 UNK        -0.1800 
     92 C          -4.6571  -24.1185  -50.8041 C.2       16 UNK         0.5000 
     93 O          -5.7402  -23.9441  -51.3655 O.2       16 UNK        -0.5000 
     94 N          -3.7499  -23.1444  -50.6254 N.am      17 UNK        -0.5000 
     95 CA         -3.8153  -21.7886  -51.1806 C.3       17 UNK         0.1400 
     96 CB         -2.5483  -21.0235  -50.7824 C.3       17 UNK        -0.1800 
     97 C          -5.0648  -20.9771  -50.7958 C.2       17 UNK         0.5000 
     98 O          -5.4369  -20.0735  -51.5435 O.2       17 UNK        -0.5000 
     99 N          -5.7092  -21.3257  -49.6740 N.am      18 UNK        -0.5000 
    100 CA        -6.9751  -20.7567  -49.2080 C.3       18 UNK         0.1400 
    101 CB        -7.3069  -21.3217  -47.8194 C.3       18 UNK        -0.1800 
    102 C         -8.1489  -20.9776  -50.1807 C.2       18 UNK         0.5000 
    103 O         -9.0331  -20.1245  -50.2546 O.2       18 UNK        -0.5000 
    104 N         -8.1244  -22.0864  -50.9354 N.am      19 UNK        -0.5000 
    105 CA        -9.1163  -22.3929  -51.9693 C.3       19 UNK         0.1400 
    106 CB        -9.0445  -23.8889  -52.3109 C.3       19 UNK        -0.1800 
    107 C         -8.9295  -21.5397  -53.2392 C.2       19 UNK         0.5000 
    108 O         -9.9022  -21.2897  -53.9517 O.2       19 UNK        -0.5000 
    109 N         -7.6879  -21.1073  -53.4931 N.am      20 UNK        -0.5000 
    110 CA        -7.2986  -20.2773  -54.6331 C.3       20 UNK         0.1400 
    111 CB        -5.9157  -20.7479  -55.1146 C.3       20 UNK        -0.1800 
    112 C         -7.2509  -18.7764  -54.2882 C.2       20 UNK         0.5000 
    113 O         -7.0434  -17.9647  -55.1907 O.2       20 UNK        -0.5000 
    114 N         -7.3708  -18.4341  -52.9956 N.am      21 UNK        -0.5000 
    115 CA        -7.1502  -17.1088  -52.4011 C.3       21 UNK         0.1400 
    116 CB        -8.2760  -16.1363  -52.8073 C.3       21 UNK        -0.1800 
    117 C         -5.7350  -16.5607  -52.6997 C.2       21 UNK         0.5000 
    118 O         -5.5709  -15.3710  -52.9743 O.2       21 UNK        -0.5000 
    119 N         -4.7448  -17.4641  -52.6766 N.am      22 UNK        -0.5000 
    120 CA        -3.3531  -17.2599  -53.1172 C.3       22 UNK         0.1400 
    121 C         -3.1724  -17.0394  -54.6542 C.2       22 UNK         0.5000 
    122 N         -4.1920  -17.1995  -55.4899 N.am      22 UNK        -0.7600 
    123 O         -2.0712  -16.7502  -55.1128 O.2       22 UNK        -0.5000 
    124 C124       -2.5729  -16.2138  -52.2539 C.3       23 UNK        -0.0398 
    125 S125       -1.2720  -16.9842  -51.2325 S.3       23 UNK        -0.2404 
    126 C126        0.1705  -16.8545  -52.3382 C.3       23 UNK        -0.0205 
    127 H127        9.1209  -16.2967  -44.8751 H         1 UNK         0.0600 
    128 H128        8.0451  -14.9018  -45.0114 H         1 UNK         0.0600 
    129 H129        8.7644  -15.6079  -46.4616 H         1 UNK         0.0600 
    130 H130        7.3071  -16.8250  -47.6147 H         1 UNK         0.3000 
    131 H131        5.8850  -19.0157  -46.6355 H         1 UNK         0.0600 
    132 H132        6.5346  -18.9054  -48.9714 H         1 UNK         0.0800 
    133 H133        4.8074  -19.0834  -48.8816 H         1 UNK         0.0800 
    134 H134        5.2482  -16.8730  -52.1206 H         1 UNK         0.0800 
    135 H135        5.8094  -18.4255  -51.5632 H         1 UNK         0.0800 
    136 H136        2.8084  -16.2404  -51.9111 H         1 UNK         0.1150 
    137 H137        0.0650  -19.5350  -51.8925 H         1 UNK         0.1150 
    138 H138        4.2142  -20.2034  -51.0685 H         1 UNK         0.1150 
    139 H139        0.8389  -21.7596  -51.6353 H         1 UNK         0.0800 
    140 H140        2.5394  -22.0822  -51.8580 H         1 UNK         0.0800 
    141 H141        1.1029  -20.0565  -48.5055 H         1 UNK         0.0800 
    142 H142       -0.1457  -20.8263  -49.4318 H         1 UNK         0.0800 
    143 H143        0.9625  -22.2638  -47.0078 H         1 UNK         0.0600 
    144 H144       -0.4827  -19.7664  -46.7544 H         1 UNK         0.3000 
    145 H145       -0.5869  -20.0464  -43.1733 H         1 UNK         0.0600 
    146 H146        1.5129  -19.0034  -43.9147 H         1 UNK         0.0600 
    147 H147        0.7328  -18.2643  -45.2963 H         1 UNK         0.0600 
    148 H148        0.2974  -17.7587  -43.6739 H         1 UNK         0.0600 
    149 H149       -1.8023  -18.3796  -45.2635 H         1 UNK         0.3000 
    150 H150       -4.9816  -19.8334  -45.0590 H         1 UNK         0.0600 
    151 H151       -5.1740  -18.6839  -42.8732 H         1 UNK         0.0600 
    152 H152       -5.8504  -17.6827  -44.1483 H         1 UNK         0.0600 
    153 H153       -4.2631  -17.3081  -43.4791 H         1 UNK         0.0600 
    154 H154       -3.9370  -17.2582  -45.9384 H         1 UNK         0.3000 
    155 H155       -2.9268  -18.3995  -49.1474 H         1 UNK         0.0600 
    156 H156       -4.5807  -16.5806  -49.8330 H         1 UNK         0.0600 
    157 H157       -5.5002  -16.9224  -48.3713 H         1 UNK         0.0600 
    158 H158       -5.3024  -18.1570  -49.6116 H         1 UNK         0.0600 
    159 H159       -3.1565  -15.7875  -48.1167 H         1 UNK         0.3000 
    160 H160        0.1574  -15.4595  -47.3551 H         1 UNK         0.0600 
    161 H161       -2.5261  -13.9915  -47.4585 H         1 UNK         0.0600 
    162 H162       -1.4858  -14.3194  -48.8457 H         1 UNK         0.0600 
    163 H163       -0.9235  -13.2776  -47.5521 H         1 UNK         0.0600 
    164 H164        0.0159  -14.9884  -45.1667 H         1 UNK         0.3000 
    165 H165       -2.6155  -14.1222  -43.0166 H         1 UNK         0.0600 
    166 H166       -0.3636  -16.0829  -42.4127 H         1 UNK         0.0600 
    167 H167       -1.5350  -15.3870  -41.3116 H         1 UNK         0.0600 
    168 H168       -2.0501  -16.5943  -42.4798 H         1 UNK         0.0600 
    169 H169        0.3329  -14.0194  -43.1919 H         1 UNK         0.3000 
    170 H170        0.8462  -11.8132  -45.0420 H         1 UNK         0.0600 
    171 H171       -0.3266   -9.7073  -44.6180 H         1 UNK         0.0600 
    172 H172        0.0790   -9.7607  -42.9095 H         1 UNK         0.0600 
    173 H173        1.3463   -9.5430  -44.1165 H         1 UNK         0.0600 
    174 H174        2.5030  -12.4480  -43.7559 H         1 UNK         0.3000 
    175 H175        4.0259  -11.6345  -41.8090 H         1 UNK         0.0600 
    176 H176        2.7555  -12.9088  -39.3316 H         1 UNK         0.0600 
    177 H177        4.4713  -12.5551  -39.5305 H         1 UNK         0.0600 
    178 H178        3.2993  -11.2480  -39.5001 H         1 UNK         0.0600 
    179 H179        4.5125  -13.6653  -42.5366 H         1 UNK         0.3000 
    180 H180        4.8085  -16.1281  -42.0539 H         1 UNK         0.0600 
    181 H181        2.0171  -17.3780  -42.1157 H         1 UNK         0.0600 
    182 H182        3.2271  -17.5774  -40.8594 H         1 UNK         0.0600 
    183 H183        3.5169  -18.2421  -42.4601 H         1 UNK         0.0600 
    184 H184        4.6041  -16.2201  -44.2704 H         1 UNK         0.3000 
    185 H185        2.0574  -16.2004  -46.5238 H         1 UNK         0.0600 
    186 H186        2.9023  -14.2207  -47.7764 H         1 UNK         0.0600 
    187 H187        1.9113  -13.7056  -46.4236 H         1 UNK         0.0600 
    188 H188        3.6641  -13.5941  -46.3144 H         1 UNK         0.0600 
    189 H189        4.8855  -15.6751  -46.8255 H         1 UNK         0.3000 
    190 H190       -2.2153  -21.7889  -46.3634 H         1 UNK         0.3000 
    191 H191       -3.6367  -23.6421  -47.9103 H         1 UNK         0.0600 
    192 H192       -5.1641  -23.7500  -45.9399 H         1 UNK         0.0600 
    193 H193       -4.7021  -22.0957  -46.2816 H         1 UNK         0.0600 
    194 H194       -3.9539  -22.9536  -44.9417 H         1 UNK         0.0600 
    195 H195       -1.4776  -24.1800  -45.1329 H         1 UNK         0.3000 
    196 H196       -2.0944  -26.9708  -44.7777 H         1 UNK         0.0600 
    197 H197       -0.1175  -26.8846  -43.2493 H         1 UNK         0.0600 
    198 H198       -1.2112  -25.5438  -42.9485 H         1 UNK         0.0600 
    199 H199        0.2855  -25.2771  -43.8424 H         1 UNK         0.0600 
    200 H200       -0.0317  -25.2776  -47.0196 H         1 UNK         0.3000 
    201 H201        1.6724  -27.6701  -47.5349 H         1 UNK         0.0600 
    202 H202        2.8656  -25.5773  -47.0068 H         1 UNK         0.0600 
    203 H203        2.0160  -24.7270  -48.2941 H         1 UNK         0.0600 
    204 H204        3.1419  -26.0209  -48.6844 H         1 UNK         0.0600 
    205 H205       -0.3116  -25.1920  -49.2568 H         1 UNK         0.3000 
    206 H206       -0.2659  -26.8962  -51.7279 H         1 UNK         0.0600 
    207 H207        1.2596  -24.8920  -51.7614 H         1 UNK         0.0600 
    208 H208       -0.0412  -24.7445  -52.9328 H         1 UNK         0.0600 
    209 H209       -0.1239  -23.8558  -51.4155 H         1 UNK         0.0600 
    210 H210       -2.3845  -25.8863  -49.3855 H         1 UNK         0.3000 
    211 H211       -4.5712  -25.4901  -49.1927 H         1 UNK         0.0600 
    212 H212       -4.9306  -26.6948  -51.9783 H         1 UNK         0.0600 
    213 H213       -6.1524  -26.5339  -50.7277 H         1 UNK         0.0600 
    214 H214       -4.7968  -27.6225  -50.4843 H         1 UNK         0.0600 
    215 H215       -2.8884  -23.3891  -50.1588 H         1 UNK         0.3000 
    216 H216       -3.8249  -21.8878  -52.2677 H         1 UNK         0.0600 
    217 H217       -2.5386  -20.0221  -51.2144 H         1 UNK         0.0600 
    218 H218       -1.6541  -21.5375  -51.1343 H         1 UNK         0.0600 
    219 H219       -2.4787  -20.9137  -49.7001 H         1 UNK         0.0600 
    220 H220       -5.3055  -22.0525  -49.1044 H         1 UNK         0.3000 
    221 H221       -6.8471  -19.6794  -49.1048 H         1 UNK         0.0600 
    222 H222       -7.3325  -22.4120  -47.8211 H         1 UNK         0.0600 
    223 H223       -6.5725  -20.9986  -47.0827 H         1 UNK         0.0600 
    224 H224       -8.2798  -20.9695  -47.4737 H         1 UNK         0.0600 
    225 H225       -7.3433  -22.7292  -50.8521 H         1 UNK         0.3000 
    226 H226      -10.1112  -22.1838  -51.5703 H         1 UNK         0.0600 
    227 H227       -9.1998  -24.5047  -51.4249 H         1 UNK         0.0600 
    228 H228       -9.8136  -24.1606  -53.0350 H         1 UNK         0.0600 
    229 H229       -8.0796  -24.1585  -52.7418 H         1 UNK         0.0600 
    230 H230       -6.9540  -21.3421  -52.8393 H         1 UNK         0.3000 
    231 H231       -8.0093  -20.4064  -55.4520 H         1 UNK         0.0600 
    232 H232       -5.5960  -20.1917  -55.9969 H         1 UNK         0.0600 
    233 H233       -5.9310  -21.8035  -55.3866 H         1 UNK         0.0600 
    234 H234       -5.1528  -20.6102  -54.3471 H         1 UNK         0.0600 
    235 H235       -7.4851  -19.1887  -52.3335 H         1 UNK         0.3000 
    236 H236       -7.2028  -17.2449  -51.3200 H         1 UNK         0.0600 
    237 H237       -9.2566  -16.5501  -52.5721 H         1 UNK         0.0600 
    238 H238       -8.1870  -15.1901  -52.2725 H         1 UNK         0.0600 
    239 H239       -8.2535  -15.9124  -53.8742 H         1 UNK         0.0600 
    240 H240       -4.9852  -18.4160  -52.4126 H         1 UNK         0.3000 
    241 H241       -2.8956  -18.2374  -52.9630 H         1 UNK         0.0600 
    242 H242       -5.1260  -17.4209  -55.1647 H         1 UNK         0.3800 
    243 H243       -4.0363  -17.0609  -56.4755 H         1 UNK         0.3800 
    244 H244       -2.1245  -15.4235  -52.8584 H         1 UNK         0.0800 
    245 H245       -3.2417  -15.6877  -51.5736 H         1 UNK         0.0800 
    246 H246        0.5036  -15.8160  -52.3640 H         1 UNK         0.0800 
    247 H247       -0.1245  -17.1137  -53.3549 H         1 UNK         0.0800 
@<TRIPOS>BOND
     1    1    2 1    
     2    1  127 1    
     3    1  128 1    
     4    1  129 1    
     5    2    3 2    
     6    2    4 am   BACKBONE|DICT|INTERRES
     7    4    5 1    
     8    4  130 1    
     9    5    6 1    
    10    5   65 1    
    11    5  131 1    
    12    6    7 1    
    13    6  132 1    
    14    6  133 1    
    15    7    8 1    
    16    8    9 1    
    17    8  134 1    
    18    8  135 1    
    19    9   10 ar   
    20    9   14 ar   
    21   10   11 ar   
    22   10  136 1    
    23   11   12 ar   
    24   11  126 1    
    25   12   13 ar   
    26   12  137 1    
    27   13   14 ar   
    28   13   15 1    
    29   14  138 1    
    30   15   16 1    
    31   15  139 1    
    32   15  140 1    
    33   16   17 1    
    34   17   18 1    
    35   17  141 1    
    36   17  142 1    
    37   18   19 1    
    38   18   67 1    
    39   18  143 1    
    40   19   20 am   BACKBONE|DICT|INTERRES
    41   19  144 1    
    42   20   21 2    
    43   20   22 1    
    44   22   23 1    
    45   22   24 1    
    46   22  145 1    
    47   23  146 1    
    48   23  147 1    
    49   23  148 1    
    50   24   25 am   BACKBONE|DICT|INTERRES
    51   24  149 1    
    52   25   26 2    
    53   25   27 1    
    54   27   28 1    
    55   27   29 1    
    56   27  150 1    
    57   28  151 1    
    58   28  152 1    
    59   28  153 1    
    60   29   30 am   BACKBONE|DICT|INTERRES
    61   29  154 1    
    62   30   31 2    
    63   30   32 1    
    64   32   33 1    
    65   32   34 1    
    66   32  155 1    
    67   33  156 1    
    68   33  157 1    
    69   33  158 1    
    70   34   35 am   BACKBONE|DICT|INTERRES
    71   34  159 1    
    72   35   36 2    
    73   35   37 1    
    74   37   38 1    
    75   37   39 1    
    76   37  160 1    
    77   38  161 1    
    78   38  162 1    
    79   38  163 1    
    80   39   40 am   BACKBONE|DICT|INTERRES
    81   39  164 1    
    82   40   41 2    
    83   40   42 1    
    84   42   43 1    
    85   42   44 1    
    86   42  165 1    
    87   43  166 1    
    88   43  167 1    
    89   43  168 1    
    90   44   45 am   BACKBONE|DICT|INTERRES
    91   44  169 1    
    92   45   46 2    
    93   45   47 1    
    94   47   48 1    
    95   47   49 1    
    96   47  170 1    
    97   48  171 1    
    98   48  172 1    
    99   48  173 1    
   100   49   50 am   BACKBONE|DICT|INTERRES
   101   49  174 1    
   102   50   51 2    
   103   50   52 1    
   104   52   53 1    
   105   52   54 1    
   106   52  175 1    
   107   53  176 1    
   108   53  177 1    
   109   53  178 1    
   110   54   55 am   BACKBONE|DICT|INTERRES
   111   54  179 1    
   112   55   56 2    
   113   55   57 1    
   114   57   58 1    
   115   57   59 1    
   116   57  180 1    
   117   58  181 1    
   118   58  182 1    
   119   58  183 1    
   120   59   60 am   BACKBONE|DICT|INTERRES
   121   59  184 1    
   122   60   61 2    
   123   60   62 1    
   124   62   63 1    
   125   62   64 1    
   126   62  185 1    
   127   63  186 1    
   128   63  187 1    
   129   63  188 1    
   130   64   65 am   BACKBONE|DICT|INTERRES
   131   64  189 1    
   132   65   66 2    
   133   67   68 2    
   134   67   69 am   BACKBONE|DICT|INTERRES
   135   69   70 1    
   136   69  190 1    
   137   70   71 1    
   138   70   72 1    
   139   70  191 1    
   140   71  192 1    
   141   71  193 1    
   142   71  194 1    
   143   72   73 2    
   144   72   74 am   BACKBONE|DICT|INTERRES
   145   74   75 1    
   146   74  195 1    
   147   75   76 1    
   148   75   77 1    
   149   75  196 1    
   150   76  197 1    
   151   76  198 1    
   152   76  199 1    
   153   77   78 2    
   154   77   79 am   BACKBONE|DICT|INTERRES
   155   79   80 1    
   156   79  200 1    
   157   80   81 1    
   158   80   82 1    
   159   80  201 1    
   160   81  202 1    
   161   81  203 1    
   162   81  204 1    
   163   82   83 2    
   164   82   84 am   BACKBONE|DICT|INTERRES
   165   84   85 1    
   166   84  205 1    
   167   85   86 1    
   168   85   87 1    
   169   85  206 1    
   170   86  207 1    
   171   86  208 1    
   172   86  209 1    
   173   87   88 2    
   174   87   89 am   BACKBONE|DICT|INTERRES
   175   89   90 1    
   176   89  210 1    
   177   90   91 1    
   178   90   92 1    
   179   90  211 1    
   180   91  212 1    
   181   91  213 1    
   182   91  214 1    
   183   92   93 2    
   184   92   94 am   BACKBONE|DICT|INTERRES
   185   94   95 1    
   186   94  215 1    
   187   95   96 1    
   188   95   97 1    
   189   95  216 1    
   190   96  217 1    
   191   96  218 1    
   192   96  219 1    
   193   97   98 2    
   194   97   99 am   BACKBONE|DICT|INTERRES
   195   99  100 1    
   196   99  220 1    
   197  100  101 1    
   198  100  102 1    
   199  100  221 1    
   200  101  222 1    
   201  101  223 1    
   202  101  224 1    
   203  102  103 2    
   204  102  104 am   BACKBONE|DICT|INTERRES
   205  104  105 1    
   206  104  225 1    
   207  105  106 1    
   208  105  107 1    
   209  105  226 1    
   210  106  227 1    
   211  106  228 1    
   212  106  229 1    
   213  107  108 2    
   214  107  109 am   BACKBONE|DICT|INTERRES
   215  109  110 1    
   216  109  230 1    
   217  110  111 1    
   218  110  112 1    
   219  110  231 1    
   220  111  232 1    
   221  111  233 1    
   222  111  234 1    
   223  112  113 2    
   224  112  114 am   BACKBONE|DICT|INTERRES
   225  114  115 1    
   226  114  235 1    
   227  115  116 1    
   228  115  117 1    
   229  115  236 1    
   230  116  237 1    
   231  116  238 1    
   232  116  239 1    
   233  117  118 2    
   234  117  119 am   BACKBONE|DICT|INTERRES
   235  119  120 1    
   236  119  240 1    
   237  120  121 1    
   238  120  124 1    
   239  120  241 1    
   240  121  122 am   BACKBONE|DICT|INTERRES
   241  121  123 2    
   242  122  242 1    
   243  122  243 1    
   244  124  125 1    
   245  124  244 1    
   246  124  245 1    
   247  125  126 1    
   248  126  246 1    
   249  126  247 1    
@<TRIPOS>SUBSTRUCTURE
     1 UNK         1 GROUP             0       ****    0 ROOT    
