@<TRIPOS>MOLECULE
3R540
247   249    1
SMALL
USER_CHARGES


@<TRIPOS>ATOM
      1 CA         -3.3547  -15.8209  -45.0868 C.3       0 UNK        -0.1800 
      2 C          -2.4062  -14.9821  -45.9317 C.2       0 UNK         0.5000 
      3 O          -2.5746  -13.7657  -46.0049 O.2       0 UNK        -0.5000 
      4 N          -1.4090  -15.6250  -46.5572 N.am      1 UNK        -0.5000 
      5 CA         -0.4369  -15.0156  -47.4801 C.3       1 UNK         0.1400 
      6 C6          0.4910  -16.0977  -48.0953 C.3       23 UNK        -0.0398 
      7 S7          1.5947  -15.4803  -49.4139 S.3       23 UNK        -0.2404 
      8 C8          0.7045  -15.9835  -50.9237 C.3       23 UNK        -0.0205 
      9 C9          0.6228  -17.4936  -51.1306 C.ar      23 UNK        -0.0193 
     10 C10        -0.5351  -18.0461  -51.6830 C.ar      23 UNK        -0.1150 
     11 C11        -0.6302  -19.4202  -51.9162 C.ar      23 UNK        -0.0193 
     12 C12         0.4441  -20.2511  -51.5771 C.ar      23 UNK        -0.1150 
     13 C13         1.6141  -19.7130  -51.0309 C.ar      23 UNK        -0.0193 
     14 C14         1.6966  -18.3345  -50.8172 C.ar      23 UNK        -0.1150 
     15 C15         2.8155  -20.5981  -50.7164 C.3       23 UNK        -0.0205 
     16 S16         2.4793  -21.9040  -49.4897 S.3       23 UNK        -0.2404 
     17 C17         1.9656  -20.9621  -48.0096 C.3       23 UNK        -0.0398 
     18 CA          0.7152  -21.5825  -47.3394 C.3       11 UNK         0.1400 
     19 N           0.5551  -21.1369  -45.9511 N.am      11 UNK        -0.5000 
     20 C          -0.3850  -21.5953  -45.1090 C.2       10 UNK         0.5000 
     21 O          -1.1599  -22.5078  -45.3933 O.2       10 UNK        -0.5000 
     22 CA         -0.5352  -20.9094  -43.7383 C.3       10 UNK         0.1400 
     23 CB          0.0230  -21.8163  -42.6312 C.3       10 UNK        -0.1800 
     24 N           0.0781  -19.5842  -43.6303 N.am      10 UNK        -0.5000 
     25 C          -0.1853  -18.5186  -44.4004 C.2       9 UNK         0.5000 
     26 O          -0.9788  -18.5145  -45.3446 O.2       9 UNK        -0.5000 
     27 CA          0.6269  -17.2486  -44.1072 C.3       9 UNK         0.1400 
     28 CB         -0.0687  -16.3928  -43.0407 C.3       9 UNK        -0.1800 
     29 N           2.0090  -17.5047  -43.7077 N.am      9 UNK        -0.5000 
     30 C           2.9288  -18.1287  -44.4592 C.2       8 UNK         0.5000 
     31 O           2.6947  -18.6087  -45.5697 O.2       8 UNK        -0.5000 
     32 CA          4.3371  -18.2516  -43.8558 C.3       8 UNK         0.1400 
     33 CB          5.1325  -16.9516  -44.0514 C.3       8 UNK        -0.1800 
     34 N           4.2683  -18.5650  -42.4298 N.am      8 UNK        -0.5000 
     35 C           4.2251  -19.8081  -41.9329 C.2       7 UNK         0.5000 
     36 O           4.3253  -20.8255  -42.6201 O.2       7 UNK        -0.5000 
     37 CA          4.0207  -19.9430  -40.4109 C.3       7 UNK         0.1400 
     38 CB          5.3755  -19.9771  -39.6869 C.3       7 UNK        -0.1800 
     39 N           3.1928  -18.8834  -39.8285 N.am      7 UNK        -0.5000 
     40 C           1.9017  -18.6755  -40.1220 C.2       6 UNK         0.5000 
     41 O           1.2693  -19.3376  -40.9441 O.2       6 UNK        -0.5000 
     42 CA          1.2078  -17.5038  -39.4049 C.3       6 UNK         0.1400 
     43 CB          0.7324  -17.9365  -38.0100 C.3       6 UNK        -0.1800 
     44 N           2.0065  -16.2811  -39.2798 N.am      6 UNK        -0.5000 
     45 C           2.6913  -15.6526  -40.2452 C.2       5 UNK         0.5000 
     46 O           2.8627  -16.1042  -41.3796 O.2       5 UNK        -0.5000 
     47 CA          3.2302  -14.2587  -39.8719 C.3       5 UNK         0.1400 
     48 CB          4.2861  -13.7423  -40.8618 C.3       5 UNK        -0.1800 
     49 N           2.1275  -13.2982  -39.7934 N.am      5 UNK        -0.5000 
     50 C           1.2984  -13.1799  -38.7455 C.2       4 UNK         0.5000 
     51 O           1.4296  -13.8300  -37.7065 O.2       4 UNK        -0.5000 
     52 CA          0.1225  -12.1905  -38.8618 C.3       4 UNK         0.1400 
     53 CB          0.4600  -10.8726  -38.1469 C.3       4 UNK        -0.1800 
     54 N          -0.2806  -11.8915  -40.2365 N.am      4 UNK        -0.5000 
     55 C          -0.8655  -12.7497  -41.0837 C.2       3 UNK         0.5000 
     56 O          -1.1134  -13.9237  -40.8073 O.2       3 UNK        -0.5000 
     57 CA         -1.2436  -12.2067  -42.4794 C.3       3 UNK         0.1400 
     58 CB         -1.3489  -10.6664  -42.5418 C.3       3 UNK        -0.1800 
     59 N          -0.3510  -12.6891  -43.5368 N.am      3 UNK        -0.5000 
     60 C           0.9882  -12.6008  -43.5807 C.2       2 UNK         0.5000 
     61 O           1.6733  -12.1149  -42.6786 O.2       2 UNK        -0.5000 
     62 CA          1.6778  -13.1490  -44.8457 C.3       2 UNK         0.1400 
     63 CB          2.9784  -13.8984  -44.5159 C.3       2 UNK        -0.1800 
     64 N           0.8053  -14.0566  -45.5926 N.am      2 UNK        -0.5000 
     65 C           0.3740  -13.8600  -46.8438 C.2       1 UNK         0.5000 
     66 O           0.5795  -12.8295  -47.4866 O.2       1 UNK        -0.5000 
     67 C          -0.5619  -21.3536  -48.1795 C.2       11 UNK         0.5000 
     68 O          -0.9099  -22.2126  -48.9907 O.2       11 UNK        -0.5000 
     69 N          -1.2731  -20.2428  -47.9214 N.am      12 UNK        -0.5000 
     70 CA         -2.5523  -19.9333  -48.5597 C.3       12 UNK         0.1400 
     71 CB         -3.0040  -18.5141  -48.1838 C.3       12 UNK        -0.1800 
     72 C          -3.6386  -20.9664  -48.2174 C.2       12 UNK         0.5000 
     73 O          -4.3276  -21.4461  -49.1162 O.2       12 UNK        -0.5000 
     74 N          -3.7423  -21.3182  -46.9291 N.am      13 UNK        -0.5000 
     75 CA         -4.6671  -22.3320  -46.4254 C.3       13 UNK         0.1400 
     76 CB         -4.6939  -22.2874  -44.8894 C.3       13 UNK        -0.1800 
     77 C          -4.3189  -23.7413  -46.9363 C.2       13 UNK         0.5000 
     78 O          -5.2065  -24.4436  -47.4251 O.2       13 UNK        -0.5000 
     79 N          -3.0312  -24.1049  -46.8360 N.am      14 UNK        -0.5000 
     80 CA         -2.4757  -25.3997  -47.2326 C.3       14 UNK         0.1400 
     81 CB         -0.9877  -25.4578  -46.8561 C.3       14 UNK        -0.1800 
     82 C          -2.6679  -25.7189  -48.7244 C.2       14 UNK         0.5000 
     83 O          -3.0262  -26.8492  -49.0597 O.2       14 UNK        -0.5000 
     84 N          -2.4867  -24.7151  -49.5926 N.am      15 UNK        -0.5000 
     85 CA         -2.7349  -24.7965  -51.0332 C.3       15 UNK         0.1400 
     86 CB         -1.8460  -23.7711  -51.7485 C.3       15 UNK        -0.1800 
     87 C          -4.2353  -24.6432  -51.3713 C.2       15 UNK         0.5000 
     88 O          -4.6115  -23.7915  -52.1806 O.2       15 UNK        -0.5000 
     89 N          -5.0537  -25.4916  -50.7311 N.am      16 UNK        -0.5000 
     90 CA         -6.4940  -25.6920  -50.9096 C.3       16 UNK         0.1400 
     91 CB         -6.7485  -26.5135  -52.1892 C.3       16 UNK        -0.1800 
     92 C          -7.3274  -24.3956  -50.8351 C.2       16 UNK         0.5000 
     93 O          -8.1941  -24.1721  -51.6828 O.2       16 UNK        -0.5000 
     94 N          -7.0465  -23.5753  -49.8102 N.am      17 UNK        -0.5000 
     95 CA         -7.6808  -22.2834  -49.5206 C.3       17 UNK         0.1400 
     96 CB         -9.1430  -22.4837  -49.0693 C.3       17 UNK        -0.1800 
     97 C          -7.5330  -21.2802  -50.6849 C.2       17 UNK         0.5000 
     98 O          -8.5280  -20.7792  -51.2131 O.2       17 UNK        -0.5000 
     99 N          -6.2709  -21.0200  -51.0473 N.am      18 UNK        -0.5000 
    100 CA        -5.7947  -20.1172  -52.0935 C.3       18 UNK         0.1400 
    101 CB        -6.0718  -18.6480  -51.7137 C.3       18 UNK        -0.1800 
    102 C         -6.3103  -20.5001  -53.4929 C.2       18 UNK         0.5000 
    103 O         -6.9840  -19.7027  -54.1502 O.2       18 UNK        -0.5000 
    104 N         -5.9855  -21.7281  -53.9178 N.am      19 UNK        -0.5000 
    105 CA        -6.2765  -22.2499  -55.2536 C.3       19 UNK         0.1400 
    106 CB        -5.8969  -23.7371  -55.2936 C.3       19 UNK        -0.1800 
    107 C         -5.5476  -21.4832  -56.3764 C.2       19 UNK         0.5000 
    108 O         -4.5205  -20.8433  -56.1348 O.2       19 UNK        -0.5000 
    109 N         -6.0697  -21.6099  -57.6057 N.am      20 UNK        -0.5000 
    110 CA        -5.5605  -20.9649  -58.8238 C.3       20 UNK         0.1400 
    111 CB        -6.4988  -21.2986  -59.9946 C.3       20 UNK        -0.1800 
    112 C         -4.1030  -21.3257  -59.1828 C.2       20 UNK         0.5000 
    113 O         -3.4333  -20.5423  -59.8583 O.2       20 UNK        -0.5000 
    114 N         -3.6217  -22.4740  -58.6834 N.am      21 UNK        -0.5000 
    115 CA        -2.2336  -22.9378  -58.7698 C.3       21 UNK         0.1400 
    116 CB        -2.1366  -24.3263  -58.1182 C.3       21 UNK        -0.1800 
    117 C         -1.2046  -21.9739  -58.1377 C.2       21 UNK         0.5000 
    118 O         -0.0365  -22.0038  -58.5296 O.2       21 UNK        -0.5000 
    119 N         -1.6508  -21.1262  -57.1991 N.am      22 UNK        -0.5000 
    120 CA        -0.8568  -20.0371  -56.6061 C.3       22 UNK         0.1400 
    121 C         -0.6369  -18.8186  -57.5534 C.2       22 UNK         0.5000 
    122 N         -1.3008  -18.7248  -58.7017 N.am      22 UNK        -0.7600 
    123 O          0.1630  -17.9390  -57.2430 O.2       22 UNK        -0.5000 
    124 C124       -1.4414  -19.5692  -55.2484 C.3       23 UNK        -0.0398 
    125 S125       -1.6142  -20.9298  -54.0476 S.3       23 UNK        -0.2404 
    126 C126       -1.9061  -19.9980  -52.5132 C.3       23 UNK        -0.0205 
    127 H127       -3.0514  -16.8665  -45.0450 H         1 UNK         0.0600 
    128 H128       -4.3613  -15.7774  -45.5027 H         1 UNK         0.0600 
    129 H129       -3.3906  -15.4364  -44.0674 H         1 UNK         0.0600 
    130 H130       -1.3392  -16.6284  -46.4378 H         1 UNK         0.3000 
    131 H131       -1.0202  -14.5806  -48.2946 H         1 UNK         0.0600 
    132 H132        1.1206  -16.5483  -47.3267 H         1 UNK         0.0800 
    133 H133       -0.1058  -16.9168  -48.4965 H         1 UNK         0.0800 
    134 H134       -0.2945  -15.5450  -50.8974 H         1 UNK         0.0800 
    135 H135        1.2105  -15.5471  -51.7859 H         1 UNK         0.0800 
    136 H136       -1.3639  -17.4012  -51.9398 H         1 UNK         0.1150 
    137 H137        0.3721  -21.3165  -51.7467 H         1 UNK         0.1150 
    138 H138        2.6063  -17.9133  -50.4136 H         1 UNK         0.1150 
    139 H139        3.1497  -21.0695  -51.6414 H         1 UNK         0.0800 
    140 H140        3.6559  -19.9994  -50.3615 H         1 UNK         0.0800 
    141 H141        1.8007  -19.9107  -48.2509 H         1 UNK         0.0800 
    142 H142        2.8062  -20.9784  -47.3144 H         1 UNK         0.0800 
    143 H143        0.8704  -22.6620  -47.2866 H         1 UNK         0.0600 
    144 H144        1.1475  -20.3745  -45.6479 H         1 UNK         0.3000 
    145 H145       -1.6061  -20.7841  -43.5671 H         1 UNK         0.0600 
    146 H146       -0.2390  -21.4375  -41.6435 H         1 UNK         0.0600 
    147 H147       -0.3830  -22.8264  -42.7034 H         1 UNK         0.0600 
    148 H148        1.1100  -21.8922  -42.6852 H         1 UNK         0.0600 
    149 H149        0.7214  -19.4618  -42.8534 H         1 UNK         0.3000 
    150 H150        0.6743  -16.6800  -45.0324 H         1 UNK         0.0600 
    151 H151       -1.0455  -16.0514  -43.3800 H         1 UNK         0.0600 
    152 H152        0.5151  -15.5090  -42.7849 H         1 UNK         0.0600 
    153 H153       -0.2301  -16.9583  -42.1251 H         1 UNK         0.0600 
    154 H154        2.2993  -17.1169  -42.8128 H         1 UNK         0.3000 
    155 H155        4.8608  -19.0482  -44.3888 H         1 UNK         0.0600 
    156 H156        4.7079  -16.1256  -43.4807 H         1 UNK         0.0600 
    157 H157        6.1674  -17.0758  -43.7322 H         1 UNK         0.0600 
    158 H158        5.1490  -16.6549  -45.1010 H         1 UNK         0.0600 
    159 H159        4.1157  -17.7844  -41.8024 H         1 UNK         0.3000 
    160 H160        3.5146  -20.8944  -40.2331 H         1 UNK         0.0600 
    161 H161        5.9178  -19.0377  -39.8032 H         1 UNK         0.0600 
    162 H162        6.0092  -20.7732  -40.0809 H         1 UNK         0.0600 
    163 H163        5.2486  -20.1628  -38.6202 H         1 UNK         0.0600 
    164 H164        3.6352  -18.2755  -39.1547 H         1 UNK         0.3000 
    165 H165        0.3223  -17.2431  -39.9843 H         1 UNK         0.0600 
    166 H166        0.1304  -17.1584  -37.5397 H         1 UNK         0.0600 
    167 H167        0.1138  -18.8336  -38.0673 H         1 UNK         0.0600 
    168 H168        1.5718  -18.1568  -37.3491 H         1 UNK         0.0600 
    169 H169        1.8940  -15.7740  -38.4092 H         1 UNK         0.3000 
    170 H170        3.7128  -14.3396  -38.8955 H         1 UNK         0.0600 
    171 H171        3.8612  -13.5806  -41.8496 H         1 UNK         0.0600 
    172 H172        4.7122  -12.7972  -40.5245 H         1 UNK         0.0600 
    173 H173        5.1074  -14.4526  -40.9676 H         1 UNK         0.0600 
    174 H174        1.9299  -12.7675  -40.6350 H         1 UNK         0.3000 
    175 H175       -0.7321  -12.6436  -38.3547 H         1 UNK         0.0600 
    176 H176       -0.3942  -10.1949  -38.1432 H         1 UNK         0.0600 
    177 H177        1.2959  -10.3591  -38.6242 H         1 UNK         0.0600 
    178 H178        0.7352  -11.0507  -37.1063 H         1 UNK         0.0600 
    179 H179       -0.0842  -10.9583  -40.5682 H         1 UNK         0.3000 
    180 H180       -2.2323  -12.6108  -42.7031 H         1 UNK         0.0600 
    181 H181       -0.3826  -10.1784  -42.4093 H         1 UNK         0.0600 
    182 H182       -2.0251  -10.2854  -41.7751 H         1 UNK         0.0600 
    183 H183       -1.7465  -10.3459  -43.5050 H         1 UNK         0.0600 
    184 H184       -0.8149  -13.0948  -44.3383 H         1 UNK         0.3000 
    185 H185        1.9378  -12.2813  -45.4548 H         1 UNK         0.0600 
    186 H186        3.7289  -13.2173  -44.1143 H         1 UNK         0.0600 
    187 H187        2.8093  -14.6849  -43.7807 H         1 UNK         0.0600 
    188 H188        3.4092  -14.3583  -45.4057 H         1 UNK         0.0600 
    189 H189        0.5462  -14.9084  -45.1216 H         1 UNK         0.3000 
    190 H190       -0.9656  -19.6209  -47.1832 H         1 UNK         0.3000 
    191 H191       -2.4007  -19.9590  -49.6379 H         1 UNK         0.0600 
    192 H192       -2.2942  -17.7681  -48.5387 H         1 UNK         0.0600 
    193 H193       -3.9677  -18.2796  -48.6379 H         1 UNK         0.0600 
    194 H194       -3.1128  -18.3955  -47.1053 H         1 UNK         0.0600 
    195 H195       -3.1020  -20.9118  -46.2635 H         1 UNK         0.3000 
    196 H196       -5.6678  -22.0843  -46.7841 H         1 UNK         0.0600 
    197 H197       -5.3974  -23.0205  -44.4918 H         1 UNK         0.0600 
    198 H198       -5.0082  -21.3076  -44.5289 H         1 UNK         0.0600 
    199 H199       -3.7163  -22.5048  -44.4581 H         1 UNK         0.0600 
    200 H200       -2.3780  -23.4544  -46.4035 H         1 UNK         0.3000 
    201 H201       -3.0011  -26.1674  -46.6611 H         1 UNK         0.0600 
    202 H202       -0.8443  -25.3066  -45.7859 H         1 UNK         0.0600 
    203 H203       -0.4123  -24.6960  -47.3824 H         1 UNK         0.0600 
    204 H204       -0.5574  -26.4279  -47.1085 H         1 UNK         0.0600 
    205 H205       -2.1810  -23.8118  -49.2428 H         1 UNK         0.3000 
    206 H206       -2.4333  -25.7840  -51.3890 H         1 UNK         0.0600 
    207 H207       -0.7890  -23.9629  -51.5614 H         1 UNK         0.0600 
    208 H208       -1.9982  -23.7954  -52.8284 H         1 UNK         0.0600 
    209 H209       -2.0653  -22.7648  -51.4005 H         1 UNK         0.0600 
    210 H210       -4.6111  -26.1162  -50.0649 H         1 UNK         0.3000 
    211 H211       -6.8220  -26.2996  -50.0650 H         1 UNK         0.0600 
    212 H212       -6.3910  -25.9957  -53.0774 H         1 UNK         0.0600 
    213 H213       -7.8113  -26.7166  -52.3272 H         1 UNK         0.0600 
    214 H214       -6.2409  -27.4770  -52.1422 H         1 UNK         0.0600 
    215 H215       -6.3061  -23.8530  -49.1745 H         1 UNK         0.3000 
    216 H216       -7.1378  -21.8550  -48.6775 H         1 UNK         0.0600 
    217 H217       -9.5885  -21.5363  -48.7631 H         1 UNK         0.0600 
    218 H218       -9.2022  -23.1604  -48.2168 H         1 UNK         0.0600 
    219 H219       -9.7640  -22.8937  -49.8664 H         1 UNK         0.0600 
    220 H220       -5.5336  -21.4624  -50.5011 H         1 UNK         0.3000 
    221 H221       -4.7142  -20.2464  -52.1245 H         1 UNK         0.0600 
    222 H222       -7.1401  -18.4352  -51.6630 H         1 UNK         0.0600 
    223 H223       -5.6345  -18.4036  -50.7455 H         1 UNK         0.0600 
    224 H224       -5.6367  -17.9682  -52.4473 H         1 UNK         0.0600 
    225 H225       -5.4492  -22.3365  -53.3052 H         1 UNK         0.3000 
    226 H226       -7.3517  -22.1586  -55.4207 H         1 UNK         0.0600 
    227 H227       -6.4767  -24.2984  -54.5628 H         1 UNK         0.0600 
    228 H228       -6.0993  -24.1767  -56.2710 H         1 UNK         0.0600 
    229 H229       -4.8389  -23.8889  -55.0742 H         1 UNK         0.0600 
    230 H230       -6.9032  -22.1689  -57.7204 H         1 UNK         0.3000 
    231 H231       -5.5909  -19.8857  -58.6576 H         1 UNK         0.0600 
    232 H232       -6.5355  -22.3722  -60.1873 H         1 UNK         0.0600 
    233 H233       -6.1673  -20.8119  -60.9130 H         1 UNK         0.0600 
    234 H234       -7.5154  -20.9561  -59.7972 H         1 UNK         0.0600 
    235 H235       -4.2495  -23.0433  -58.1361 H         1 UNK         0.3000 
    236 H236       -1.9830  -23.0346  -59.8283 H         1 UNK         0.0600 
    237 H237       -2.7952  -25.0423  -58.6116 H         1 UNK         0.0600 
    238 H238       -1.1210  -24.7207  -58.1858 H         1 UNK         0.0600 
    239 H239       -2.4060  -24.2921  -57.0612 H         1 UNK         0.0600 
    240 H240       -2.6243  -21.1644  -56.9143 H         1 UNK         0.3000 
    241 H241        0.1399  -20.4360  -56.4043 H         1 UNK         0.0600 
    242 H242       -1.9654  -19.4356  -58.9892 H         1 UNK         0.3800 
    243 H243       -1.1375  -17.9302  -59.2997 H         1 UNK         0.3800 
    244 H244       -0.8020  -18.8030  -54.8046 H         1 UNK         0.0800 
    245 H245       -2.4221  -19.1110  -55.3920 H         1 UNK         0.0800 
    246 H246       -2.6330  -19.2096  -52.7140 H         1 UNK         0.0800 
    247 H247       -2.3710  -20.6558  -51.7833 H         1 UNK         0.0800 
@<TRIPOS>BOND
     1    1    2 1    
     2    1  127 1    
     3    1  128 1    
     4    1  129 1    
     5    2    3 2    
     6    2    4 am   BACKBONE|DICT|INTERRES
     7    4    5 1    
     8    4  130 1    
     9    5    6 1    
    10    5   65 1    
    11    5  131 1    
    12    6    7 1    
    13    6  132 1    
    14    6  133 1    
    15    7    8 1    
    16    8    9 1    
    17    8  134 1    
    18    8  135 1    
    19    9   10 ar   
    20    9   14 ar   
    21   10   11 ar   
    22   10  136 1    
    23   11   12 ar   
    24   11  126 1    
    25   12   13 ar   
    26   12  137 1    
    27   13   14 ar   
    28   13   15 1    
    29   14  138 1    
    30   15   16 1    
    31   15  139 1    
    32   15  140 1    
    33   16   17 1    
    34   17   18 1    
    35   17  141 1    
    36   17  142 1    
    37   18   19 1    
    38   18   67 1    
    39   18  143 1    
    40   19   20 am   BACKBONE|DICT|INTERRES
    41   19  144 1    
    42   20   21 2    
    43   20   22 1    
    44   22   23 1    
    45   22   24 1    
    46   22  145 1    
    47   23  146 1    
    48   23  147 1    
    49   23  148 1    
    50   24   25 am   BACKBONE|DICT|INTERRES
    51   24  149 1    
    52   25   26 2    
    53   25   27 1    
    54   27   28 1    
    55   27   29 1    
    56   27  150 1    
    57   28  151 1    
    58   28  152 1    
    59   28  153 1    
    60   29   30 am   BACKBONE|DICT|INTERRES
    61   29  154 1    
    62   30   31 2    
    63   30   32 1    
    64   32   33 1    
    65   32   34 1    
    66   32  155 1    
    67   33  156 1    
    68   33  157 1    
    69   33  158 1    
    70   34   35 am   BACKBONE|DICT|INTERRES
    71   34  159 1    
    72   35   36 2    
    73   35   37 1    
    74   37   38 1    
    75   37   39 1    
    76   37  160 1    
    77   38  161 1    
    78   38  162 1    
    79   38  163 1    
    80   39   40 am   BACKBONE|DICT|INTERRES
    81   39  164 1    
    82   40   41 2    
    83   40   42 1    
    84   42   43 1    
    85   42   44 1    
    86   42  165 1    
    87   43  166 1    
    88   43  167 1    
    89   43  168 1    
    90   44   45 am   BACKBONE|DICT|INTERRES
    91   44  169 1    
    92   45   46 2    
    93   45   47 1    
    94   47   48 1    
    95   47   49 1    
    96   47  170 1    
    97   48  171 1    
    98   48  172 1    
    99   48  173 1    
   100   49   50 am   BACKBONE|DICT|INTERRES
   101   49  174 1    
   102   50   51 2    
   103   50   52 1    
   104   52   53 1    
   105   52   54 1    
   106   52  175 1    
   107   53  176 1    
   108   53  177 1    
   109   53  178 1    
   110   54   55 am   BACKBONE|DICT|INTERRES
   111   54  179 1    
   112   55   56 2    
   113   55   57 1    
   114   57   58 1    
   115   57   59 1    
   116   57  180 1    
   117   58  181 1    
   118   58  182 1    
   119   58  183 1    
   120   59   60 am   BACKBONE|DICT|INTERRES
   121   59  184 1    
   122   60   61 2    
   123   60   62 1    
   124   62   63 1    
   125   62   64 1    
   126   62  185 1    
   127   63  186 1    
   128   63  187 1    
   129   63  188 1    
   130   64   65 am   BACKBONE|DICT|INTERRES
   131   64  189 1    
   132   65   66 2    
   133   67   68 2    
   134   67   69 am   BACKBONE|DICT|INTERRES
   135   69   70 1    
   136   69  190 1    
   137   70   71 1    
   138   70   72 1    
   139   70  191 1    
   140   71  192 1    
   141   71  193 1    
   142   71  194 1    
   143   72   73 2    
   144   72   74 am   BACKBONE|DICT|INTERRES
   145   74   75 1    
   146   74  195 1    
   147   75   76 1    
   148   75   77 1    
   149   75  196 1    
   150   76  197 1    
   151   76  198 1    
   152   76  199 1    
   153   77   78 2    
   154   77   79 am   BACKBONE|DICT|INTERRES
   155   79   80 1    
   156   79  200 1    
   157   80   81 1    
   158   80   82 1    
   159   80  201 1    
   160   81  202 1    
   161   81  203 1    
   162   81  204 1    
   163   82   83 2    
   164   82   84 am   BACKBONE|DICT|INTERRES
   165   84   85 1    
   166   84  205 1    
   167   85   86 1    
   168   85   87 1    
   169   85  206 1    
   170   86  207 1    
   171   86  208 1    
   172   86  209 1    
   173   87   88 2    
   174   87   89 am   BACKBONE|DICT|INTERRES
   175   89   90 1    
   176   89  210 1    
   177   90   91 1    
   178   90   92 1    
   179   90  211 1    
   180   91  212 1    
   181   91  213 1    
   182   91  214 1    
   183   92   93 2    
   184   92   94 am   BACKBONE|DICT|INTERRES
   185   94   95 1    
   186   94  215 1    
   187   95   96 1    
   188   95   97 1    
   189   95  216 1    
   190   96  217 1    
   191   96  218 1    
   192   96  219 1    
   193   97   98 2    
   194   97   99 am   BACKBONE|DICT|INTERRES
   195   99  100 1    
   196   99  220 1    
   197  100  101 1    
   198  100  102 1    
   199  100  221 1    
   200  101  222 1    
   201  101  223 1    
   202  101  224 1    
   203  102  103 2    
   204  102  104 am   BACKBONE|DICT|INTERRES
   205  104  105 1    
   206  104  225 1    
   207  105  106 1    
   208  105  107 1    
   209  105  226 1    
   210  106  227 1    
   211  106  228 1    
   212  106  229 1    
   213  107  108 2    
   214  107  109 am   BACKBONE|DICT|INTERRES
   215  109  110 1    
   216  109  230 1    
   217  110  111 1    
   218  110  112 1    
   219  110  231 1    
   220  111  232 1    
   221  111  233 1    
   222  111  234 1    
   223  112  113 2    
   224  112  114 am   BACKBONE|DICT|INTERRES
   225  114  115 1    
   226  114  235 1    
   227  115  116 1    
   228  115  117 1    
   229  115  236 1    
   230  116  237 1    
   231  116  238 1    
   232  116  239 1    
   233  117  118 2    
   234  117  119 am   BACKBONE|DICT|INTERRES
   235  119  120 1    
   236  119  240 1    
   237  120  121 1    
   238  120  124 1    
   239  120  241 1    
   240  121  122 am   BACKBONE|DICT|INTERRES
   241  121  123 2    
   242  122  242 1    
   243  122  243 1    
   244  124  125 1    
   245  124  244 1    
   246  124  245 1    
   247  125  126 1    
   248  126  246 1    
   249  126  247 1    
@<TRIPOS>SUBSTRUCTURE
     1 UNK         1 GROUP             0       ****    0 ROOT    
