@<TRIPOS>MOLECULE
3R540
247   249    1
SMALL
USER_CHARGES


@<TRIPOS>ATOM
      1 CA          1.2971  -11.4485  -49.1530 C.3       0 UNK        -0.1800 
      2 C           2.6810  -11.6382  -48.5490 C.2       0 UNK         0.5000 
      3 O           3.3475  -10.6577  -48.2180 O.2       0 UNK        -0.5000 
      4 N           3.1141  -12.8978  -48.4120 N.am      1 UNK        -0.5000 
      5 CA          4.4308  -13.2988  -47.8956 C.3       1 UNK         0.1400 
      6 C6          4.7076  -14.8049  -48.1219 C.3       23 UNK        -0.0398 
      7 S7          4.6356  -15.2995  -49.8787 S.3       23 UNK        -0.2404 
      8 C8          3.4599  -16.6900  -49.8395 C.3       23 UNK        -0.0205 
      9 C9          2.0608  -16.2755  -50.2725 C.ar      23 UNK        -0.0193 
     10 C10         1.5926  -16.6293  -51.5407 C.ar      23 UNK        -0.1150 
     11 C11         0.2884  -16.3141  -51.9315 C.ar      23 UNK        -0.0193 
     12 C12        -0.5399  -15.6071  -51.0572 C.ar      23 UNK        -0.1150 
     13 C13        -0.0828  -15.2386  -49.7901 C.ar      23 UNK        -0.0193 
     14 C14         1.2188  -15.5754  -49.4036 C.ar      23 UNK        -0.1150 
     15 C15        -1.0064  -14.4978  -48.8326 C.3       23 UNK        -0.0205 
     16 S16        -2.3686  -15.5520  -48.2336 S.3       23 UNK        -0.2404 
     17 C17        -1.4554  -16.9308  -47.4703 C.3       23 UNK        -0.0398 
     18 CA         -1.6750  -18.2777  -48.2019 C.3       11 UNK         0.1400 
     19 N          -0.4662  -19.1011  -48.1760 N.am      11 UNK        -0.5000 
     20 C          -0.2988  -20.2587  -48.8297 C.2       10 UNK         0.5000 
     21 O          -1.1383  -20.7604  -49.5750 O.2       10 UNK        -0.5000 
     22 CA          1.0186  -21.0047  -48.5554 C.3       10 UNK         0.1400 
     23 CB          2.1138  -20.5297  -49.5216 C.3       10 UNK        -0.1800 
     24 N           1.4815  -20.8361  -47.1757 N.am      10 UNK        -0.5000 
     25 C           0.8221  -21.2445  -46.0839 C.2       9 UNK         0.5000 
     26 O          -0.2537  -21.8419  -46.1240 O.2       9 UNK        -0.5000 
     27 CA          1.4328  -20.8812  -44.7200 C.3       9 UNK         0.1400 
     28 CB          2.6372  -21.7772  -44.3782 C.3       9 UNK        -0.1800 
     29 N           1.7548  -19.4570  -44.5763 N.am      9 UNK        -0.5000 
     30 C           2.7001  -18.7230  -45.1811 C.2       8 UNK         0.5000 
     31 O           3.4628  -19.1529  -46.0470 O.2       8 UNK        -0.5000 
     32 CA          2.7930  -17.2450  -44.7543 C.3       8 UNK         0.1400 
     33 CB          1.8843  -16.3808  -45.6380 C.3       8 UNK        -0.1800 
     34 N           2.4334  -17.0388  -43.3512 N.am      8 UNK        -0.5000 
     35 C           3.1676  -17.4579  -42.3101 C.2       7 UNK         0.5000 
     36 O           4.2844  -17.9655  -42.4155 O.2       7 UNK        -0.5000 
     37 CA          2.5220  -17.3225  -40.9205 C.3       7 UNK         0.1400 
     38 CB          2.7648  -15.9236  -40.3327 C.3       7 UNK        -0.1800 
     39 N           1.0849  -17.6019  -40.9676 N.am      7 UNK        -0.5000 
     40 C           0.5610  -18.8313  -41.0905 C.2       6 UNK         0.5000 
     41 O           1.2329  -19.8623  -41.1033 O.2       6 UNK        -0.5000 
     42 CA         -0.9676  -18.9305  -41.2500 C.3       6 UNK         0.1400 
     43 CB         -1.6419  -19.1148  -39.8825 C.3       6 UNK        -0.1800 
     44 N          -1.5461  -17.7633  -41.9152 N.am      6 UNK        -0.5000 
     45 C          -1.4203  -17.4893  -43.2204 C.2       5 UNK         0.5000 
     46 O          -0.8297  -18.2133  -44.0229 O.2       5 UNK        -0.5000 
     47 CA         -2.0346  -16.1641  -43.7032 C.3       5 UNK         0.1400 
     48 CB         -3.4958  -16.3723  -44.1300 C.3       5 UNK        -0.1800 
     49 N          -1.9592  -15.0880  -42.7135 N.am      5 UNK        -0.5000 
     50 C          -0.8135  -14.5536  -42.2739 C.2       4 UNK         0.5000 
     51 O           0.3043  -14.9626  -42.6018 O.2       4 UNK        -0.5000 
     52 CA         -0.9368  -13.4008  -41.2724 C.3       4 UNK         0.1400 
     53 CB         -0.7506  -13.9136  -39.8358 C.3       4 UNK        -0.1800 
     54 N           0.0981  -12.4184  -41.5724 N.am      4 UNK        -0.5000 
     55 C          -0.1119  -11.1171  -41.8033 C.2       3 UNK         0.5000 
     56 O          -1.2134  -10.5744  -41.7044 O.2       3 UNK        -0.5000 
     57 CA          1.1082  -10.2657  -42.2115 C.3       3 UNK         0.1400 
     58 CB          1.5888   -9.4163  -41.0241 C.3       3 UNK        -0.1800 
     59 N           2.2401  -11.0464  -42.7195 N.am      3 UNK        -0.5000 
     60 C           2.2723  -11.6685  -43.9044 C.2       2 UNK         0.5000 
     61 O           1.3362  -11.6715  -44.7090 O.2       2 UNK        -0.5000 
     62 CA          3.5682  -12.4244  -44.2284 C.3       2 UNK         0.1400 
     63 CB          3.7054  -13.6884  -43.3607 C.3       2 UNK        -0.1800 
     64 N           3.5637  -12.7888  -45.6406 N.am      2 UNK        -0.5000 
     65 C           4.6497  -12.9540  -46.4040 C.2       1 UNK         0.5000 
     66 O           5.8004  -12.8565  -45.9749 O.2       1 UNK        -0.5000 
     67 C          -2.8786  -19.0385  -47.6098 C.2       11 UNK         0.5000 
     68 O          -3.9237  -19.1316  -48.2534 O.2       11 UNK        -0.5000 
     69 N          -2.6862  -19.6053  -46.4075 N.am      12 UNK        -0.5000 
     70 CA         -3.6778  -20.4229  -45.7098 C.3       12 UNK         0.1400 
     71 CB         -3.1970  -20.7271  -44.2829 C.3       12 UNK        -0.1800 
     72 C          -4.0100  -21.7191  -46.4658 C.2       12 UNK         0.5000 
     73 O          -5.1839  -22.0729  -46.5633 O.2       12 UNK        -0.5000 
     74 N          -2.9842  -22.3777  -47.0239 N.am      13 UNK        -0.5000 
     75 CA         -3.1304  -23.5764  -47.8492 C.3       13 UNK         0.1400 
     76 CB         -1.7489  -24.1582  -48.1787 C.3       13 UNK        -0.1800 
     77 C          -3.9341  -23.3192  -49.1354 C.2       13 UNK         0.5000 
     78 O          -4.7815  -24.1393  -49.4876 O.2       13 UNK        -0.5000 
     79 N          -3.6796  -22.1856  -49.8022 N.am      14 UNK        -0.5000 
     80 CA         -4.4226  -21.7486  -50.9836 C.3       14 UNK         0.1400 
     81 CB         -3.6759  -20.5984  -51.6716 C.3       14 UNK        -0.1800 
     82 C          -5.8723  -21.3541  -50.6530 C.2       14 UNK         0.5000 
     83 O          -6.7801  -21.7291  -51.3944 O.2       14 UNK        -0.5000 
     84 N          -6.0749  -20.6497  -49.5296 N.am      15 UNK        -0.5000 
     85 CA         -7.3925  -20.2600  -49.0177 C.3       15 UNK         0.1400 
     86 CB         -7.2221  -19.2989  -47.8317 C.3       15 UNK        -0.1800 
     87 C          -8.2661  -21.4664  -48.6218 C.2       15 UNK         0.5000 
     88 O          -9.4687  -21.4612  -48.8867 O.2       15 UNK        -0.5000 
     89 N          -7.6393  -22.4918  -48.0300 N.am      16 UNK        -0.5000 
     90 CA         -8.2594  -23.7731  -47.6856 C.3       16 UNK         0.1400 
     91 CB         -7.3753  -24.4804  -46.6454 C.3       16 UNK        -0.1800 
     92 C          -8.4853  -24.6967  -48.9007 C.2       16 UNK         0.5000 
     93 O          -9.1804  -25.7039  -48.7626 O.2       16 UNK        -0.5000 
     94 N          -7.8741  -24.3616  -50.0475 N.am      17 UNK        -0.5000 
     95 CA         -7.8144  -25.1336  -51.2939 C.3       17 UNK         0.1400 
     96 CB         -9.2147  -25.2970  -51.9201 C.3       17 UNK        -0.1800 
     97 C          -7.0557  -26.4709  -51.1438 C.2       17 UNK         0.5000 
     98 O          -7.3023  -27.4121  -51.9001 O.2       17 UNK        -0.5000 
     99 N          -6.1276  -26.5224  -50.1791 N.am      18 UNK        -0.5000 
    100 CA        -5.1689  -27.6082  -49.9901 C.3       18 UNK         0.1400 
    101 CB        -4.6483  -27.5771  -48.5447 C.3       18 UNK        -0.1800 
    102 C         -4.0093  -27.4866  -50.9939 C.2       18 UNK         0.5000 
    103 O         -3.5340  -28.5023  -51.5029 O.2       18 UNK        -0.5000 
    104 N         -3.6102  -26.2419  -51.2854 N.am      19 UNK        -0.5000 
    105 CA        -2.7400  -25.8844  -52.3992 C.3       19 UNK         0.1400 
    106 CB        -1.7665  -24.7803  -51.9549 C.3       19 UNK        -0.1800 
    107 C         -3.6106  -25.3909  -53.5642 C.2       19 UNK         0.5000 
    108 O         -4.6529  -24.7719  -53.3352 O.2       19 UNK        -0.5000 
    109 N         -3.1458  -25.6397  -54.7898 N.am      20 UNK        -0.5000 
    110 CA        -3.7703  -25.1952  -56.0313 C.3       20 UNK         0.1400 
    111 CB        -4.7434  -26.2794  -56.5336 C.3       20 UNK        -0.1800 
    112 C         -2.6375  -24.8876  -57.0274 C.2       20 UNK         0.5000 
    113 O         -2.3309  -25.7303  -57.8703 O.2       20 UNK        -0.5000 
    114 N         -1.9540  -23.7420  -56.9143 N.am      21 UNK        -0.5000 
    115 CA        -2.1533  -22.6460  -55.9652 C.3       21 UNK         0.1400 
    116 CB        -3.0638  -21.5820  -56.6060 C.3       21 UNK        -0.1800 
    117 C         -0.7852  -22.0687  -55.5642 C.2       21 UNK         0.5000 
    118 O          0.2499  -22.5437  -56.0393 O.2       21 UNK        -0.5000 
    119 N         -0.8060  -21.0599  -54.6865 N.am      22 UNK        -0.5000 
    120 CA         0.3823  -20.3780  -54.1462 C.3       22 UNK         0.1400 
    121 C          1.2178  -19.5430  -55.1641 C.2       22 UNK         0.5000 
    122 N          0.7213  -19.2560  -56.3613 N.am      22 UNK        -0.7600 
    123 O          2.3411  -19.1522  -54.8592 O.2       22 UNK        -0.5000 
    124 C124        0.0277  -19.5516  -52.8835 C.3       23 UNK        -0.0398 
    125 S125       -1.2415  -18.2637  -53.1712 S.3       23 UNK        -0.2404 
    126 C126       -0.2360  -16.7483  -53.2903 C.3       23 UNK        -0.0205 
    127 H127        0.9562  -12.3471  -49.6673 H         1 UNK         0.0600 
    128 H128        0.5772  -11.2035  -48.3721 H         1 UNK         0.0600 
    129 H129        1.3091  -10.6333  -49.8765 H         1 UNK         0.0600 
    130 H130        2.5413  -13.6504  -48.7634 H         1 UNK         0.3000 
    131 H131        5.1789  -12.7349  -48.4570 H         1 UNK         0.0600 
    132 H132        4.0141  -15.4056  -47.5337 H         1 UNK         0.0800 
    133 H133        5.7049  -15.0645  -47.7611 H         1 UNK         0.0800 
    134 H134        3.8382  -17.4673  -50.5053 H         1 UNK         0.0800 
    135 H135        3.4258  -17.1487  -48.8506 H         1 UNK         0.0800 
    136 H136        2.2377  -17.1709  -52.2184 H         1 UNK         0.1150 
    137 H137       -1.5510  -15.3648  -51.3534 H         1 UNK         0.1150 
    138 H138        1.5698  -15.3037  -48.4209 H         1 UNK         0.1150 
    139 H139       -0.4511  -14.1114  -47.9763 H         1 UNK         0.0800 
    140 H140       -1.4282  -13.6293  -49.3403 H         1 UNK         0.0800 
    141 H141       -1.7345  -16.9968  -46.4222 H         1 UNK         0.0800 
    142 H142       -0.3984  -16.6745  -47.4576 H         1 UNK         0.0800 
    143 H143       -1.8885  -18.0812  -49.2556 H         1 UNK         0.0600 
    144 H144        0.2821  -18.7927  -47.5755 H         1 UNK         0.3000 
    145 H145        0.8449  -22.0688  -48.7250 H         1 UNK         0.0600 
    146 H146        3.0421  -21.0798  -49.3671 H         1 UNK         0.0600 
    147 H147        1.8138  -20.6851  -50.5585 H         1 UNK         0.0600 
    148 H148        2.3282  -19.4680  -49.3964 H         1 UNK         0.0600 
    149 H149        2.3500  -20.3274  -47.0312 H         1 UNK         0.3000 
    150 H150        0.6620  -21.0777  -43.9727 H         1 UNK         0.0600 
    151 H151        2.3526  -22.8300  -44.3899 H         1 UNK         0.0600 
    152 H152        3.0192  -21.5543  -43.3817 H         1 UNK         0.0600 
    153 H153        3.4566  -21.6542  -45.0867 H         1 UNK         0.0600 
    154 H154        1.1149  -18.9524  -43.9741 H         1 UNK         0.3000 
    155 H155        3.8256  -16.9215  -44.9013 H         1 UNK         0.0600 
    156 H156        2.0840  -15.3192  -45.4987 H         1 UNK         0.0600 
    157 H157        0.8316  -16.5523  -45.4174 H         1 UNK         0.0600 
    158 H158        2.0438  -16.6119  -46.6898 H         1 UNK         0.0600 
    159 H159        1.5564  -16.5660  -43.1647 H         1 UNK         0.3000 
    160 H160        2.9960  -18.0510  -40.2590 H         1 UNK         0.0600 
    161 H161        2.3247  -15.1395  -40.9475 H         1 UNK         0.0600 
    162 H162        3.8327  -15.7153  -40.2569 H         1 UNK         0.0600 
    163 H163        2.3461  -15.8397  -39.3299 H         1 UNK         0.0600 
    164 H164        0.4690  -16.8035  -41.0072 H         1 UNK         0.3000 
    165 H165       -1.1802  -19.8133  -41.8572 H         1 UNK         0.0600 
    166 H166       -1.4789  -18.2538  -39.2329 H         1 UNK         0.0600 
    167 H167       -2.7174  -19.2569  -39.9896 H         1 UNK         0.0600 
    168 H168       -1.2489  -19.9932  -39.3687 H         1 UNK         0.0600 
    169 H169       -2.0575  -17.1146  -41.3353 H         1 UNK         0.3000 
    170 H170       -1.4613  -15.8331  -44.5698 H         1 UNK         0.0600 
    171 H171       -3.5858  -17.1804  -44.8570 H         1 UNK         0.0600 
    172 H172       -4.1308  -16.6276  -43.2809 H         1 UNK         0.0600 
    173 H173       -3.9013  -15.4738  -44.5955 H         1 UNK         0.0600 
    174 H174       -2.8377  -14.7081  -42.3908 H         1 UNK         0.3000 
    175 H175       -1.9316  -12.9604  -41.3659 H         1 UNK         0.0600 
    176 H176       -0.8488  -13.1014  -39.1154 H         1 UNK         0.0600 
    177 H177       -1.5027  -14.6627  -39.5853 H         1 UNK         0.0600 
    178 H178        0.2295  -14.3688  -39.6914 H         1 UNK         0.0600 
    179 H179        1.0165  -12.8003  -41.7486 H         1 UNK         0.3000 
    180 H180        0.7801   -9.5887  -43.0031 H         1 UNK         0.0600 
    181 H181        1.9440  -10.0389  -40.2020 H         1 UNK         0.0600 
    182 H182        0.7824   -8.7916  -40.6376 H         1 UNK         0.0600 
    183 H183        2.4003   -8.7501  -41.3175 H         1 UNK         0.0600 
    184 H184        3.0503  -11.0968  -42.1185 H         1 UNK         0.3000 
    185 H185        4.4069  -11.7530  -44.0319 H         1 UNK         0.0600 
    186 H186        4.5728  -14.2825  -43.6486 H         1 UNK         0.0600 
    187 H187        3.8249  -13.4330  -42.3076 H         1 UNK         0.0600 
    188 H188        2.8234  -14.3212  -43.4439 H         1 UNK         0.0600 
    189 H189        2.6457  -12.7966  -46.0667 H         1 UNK         0.3000 
    190 H190       -1.7920  -19.4999  -45.9488 H         1 UNK         0.3000 
    191 H191       -4.5988  -19.8411  -45.6367 H         1 UNK         0.0600 
    192 H192       -3.1424  -19.8180  -43.6863 H         1 UNK         0.0600 
    193 H193       -3.8856  -21.4020  -43.7729 H         1 UNK         0.0600 
    194 H194       -2.2123  -21.1952  -44.2765 H         1 UNK         0.0600 
    195 H195       -2.0380  -22.0488  -46.8529 H         1 UNK         0.3000 
    196 H196       -3.6769  -24.3156  -47.2602 H         1 UNK         0.0600 
    197 H197       -1.8441  -25.0978  -48.7242 H         1 UNK         0.0600 
    198 H198       -1.1804  -24.3650  -47.2718 H         1 UNK         0.0600 
    199 H199       -1.1615  -23.4775  -48.7949 H         1 UNK         0.0600 
    200 H200       -2.9249  -21.5817  -49.4893 H         1 UNK         0.3000 
    201 H201       -4.4641  -22.5845  -51.6846 H         1 UNK         0.0600 
    202 H202       -2.6890  -20.9211  -52.0013 H         1 UNK         0.0600 
    203 H203       -3.5425  -19.7457  -51.0047 H         1 UNK         0.0600 
    204 H204       -4.2156  -20.2489  -52.5524 H         1 UNK         0.0600 
    205 H205       -5.2689  -20.3333  -48.9973 H         1 UNK         0.3000 
    206 H206       -7.9118  -19.7242  -49.8150 H         1 UNK         0.0600 
    207 H207       -6.6682  -18.4065  -48.1236 H         1 UNK         0.0600 
    208 H208       -8.1905  -18.9712  -47.4518 H         1 UNK         0.0600 
    209 H209       -6.6876  -19.7693  -47.0064 H         1 UNK         0.0600 
    210 H210       -6.6622  -22.3814  -47.7717 H         1 UNK         0.3000 
    211 H211       -9.2340  -23.5790  -47.2335 H         1 UNK         0.0600 
    212 H212       -6.3826  -24.6953  -47.0434 H         1 UNK         0.0600 
    213 H213       -7.8158  -25.4275  -46.3317 H         1 UNK         0.0600 
    214 H214       -7.2521  -23.8687  -45.7515 H         1 UNK         0.0600 
    215 H215       -7.3290  -23.5091  -50.0507 H         1 UNK         0.3000 
    216 H216       -7.2180  -24.5338  -51.9831 H         1 UNK         0.0600 
    217 H217       -9.1462  -25.7199  -52.9230 H         1 UNK         0.0600 
    218 H218       -9.8498  -25.9587  -51.3309 H         1 UNK         0.0600 
    219 H219       -9.7204  -24.3355  -52.0090 H         1 UNK         0.0600 
    220 H220       -5.9407  -25.6672  -49.6646 H         1 UNK         0.3000 
    221 H221       -5.6711  -28.5635  -50.1565 H         1 UNK         0.0600 
    222 H222       -4.1250  -26.6467  -48.3223 H         1 UNK         0.0600 
    223 H223       -5.4652  -27.6799  -47.8301 H         1 UNK         0.0600 
    224 H224       -3.9518  -28.3967  -48.3643 H         1 UNK         0.0600 
    225 H225       -4.1063  -25.4724  -50.8493 H         1 UNK         0.3000 
    226 H226       -2.1595  -26.7505  -52.7240 H         1 UNK         0.0600 
    227 H227       -1.1527  -25.1103  -51.1172 H         1 UNK         0.0600 
    228 H228       -1.0884  -24.5088  -52.7650 H         1 UNK         0.0600 
    229 H229       -2.2890  -23.8734  -51.6522 H         1 UNK         0.0600 
    230 H230       -2.2679  -26.1297  -54.8999 H         1 UNK         0.3000 
    231 H231       -4.3478  -24.2829  -55.8720 H         1 UNK         0.0600 
    232 H232       -5.1880  -25.9925  -57.4872 H         1 UNK         0.0600 
    233 H233       -5.5596  -26.4312  -55.8269 H         1 UNK         0.0600 
    234 H234       -4.2441  -27.2386  -56.6758 H         1 UNK         0.0600 
    235 H235       -1.1356  -23.6159  -57.4948 H         1 UNK         0.3000 
    236 H236       -2.6133  -23.0013  -55.0437 H         1 UNK         0.0600 
    237 H237       -3.2789  -20.7680  -55.9129 H         1 UNK         0.0600 
    238 H238       -2.6054  -21.1462  -57.4947 H         1 UNK         0.0600 
    239 H239       -4.0223  -22.0072  -56.9033 H         1 UNK         0.0600 
    240 H240       -1.6920  -20.6982  -54.3656 H         1 UNK         0.3000 
    241 H241        1.0587  -21.1689  -53.8159 H         1 UNK         0.0600 
    242 H242       -0.2003  -19.5659  -56.6221 H         1 UNK         0.3800 
    243 H243        1.2737  -18.7203  -57.0120 H         1 UNK         0.3800 
    244 H244       -0.3584  -20.2225  -52.1161 H         1 UNK         0.0800 
    245 H245        0.9244  -19.1144  -52.4469 H         1 UNK         0.0800 
    246 H246        0.5854  -16.8978  -53.9921 H         1 UNK         0.0800 
    247 H247       -0.8515  -15.9521  -53.7114 H         1 UNK         0.0800 
@<TRIPOS>BOND
     1    1    2 1    
     2    1  127 1    
     3    1  128 1    
     4    1  129 1    
     5    2    3 2    
     6    2    4 am   BACKBONE|DICT|INTERRES
     7    4    5 1    
     8    4  130 1    
     9    5    6 1    
    10    5   65 1    
    11    5  131 1    
    12    6    7 1    
    13    6  132 1    
    14    6  133 1    
    15    7    8 1    
    16    8    9 1    
    17    8  134 1    
    18    8  135 1    
    19    9   10 ar   
    20    9   14 ar   
    21   10   11 ar   
    22   10  136 1    
    23   11   12 ar   
    24   11  126 1    
    25   12   13 ar   
    26   12  137 1    
    27   13   14 ar   
    28   13   15 1    
    29   14  138 1    
    30   15   16 1    
    31   15  139 1    
    32   15  140 1    
    33   16   17 1    
    34   17   18 1    
    35   17  141 1    
    36   17  142 1    
    37   18   19 1    
    38   18   67 1    
    39   18  143 1    
    40   19   20 am   BACKBONE|DICT|INTERRES
    41   19  144 1    
    42   20   21 2    
    43   20   22 1    
    44   22   23 1    
    45   22   24 1    
    46   22  145 1    
    47   23  146 1    
    48   23  147 1    
    49   23  148 1    
    50   24   25 am   BACKBONE|DICT|INTERRES
    51   24  149 1    
    52   25   26 2    
    53   25   27 1    
    54   27   28 1    
    55   27   29 1    
    56   27  150 1    
    57   28  151 1    
    58   28  152 1    
    59   28  153 1    
    60   29   30 am   BACKBONE|DICT|INTERRES
    61   29  154 1    
    62   30   31 2    
    63   30   32 1    
    64   32   33 1    
    65   32   34 1    
    66   32  155 1    
    67   33  156 1    
    68   33  157 1    
    69   33  158 1    
    70   34   35 am   BACKBONE|DICT|INTERRES
    71   34  159 1    
    72   35   36 2    
    73   35   37 1    
    74   37   38 1    
    75   37   39 1    
    76   37  160 1    
    77   38  161 1    
    78   38  162 1    
    79   38  163 1    
    80   39   40 am   BACKBONE|DICT|INTERRES
    81   39  164 1    
    82   40   41 2    
    83   40   42 1    
    84   42   43 1    
    85   42   44 1    
    86   42  165 1    
    87   43  166 1    
    88   43  167 1    
    89   43  168 1    
    90   44   45 am   BACKBONE|DICT|INTERRES
    91   44  169 1    
    92   45   46 2    
    93   45   47 1    
    94   47   48 1    
    95   47   49 1    
    96   47  170 1    
    97   48  171 1    
    98   48  172 1    
    99   48  173 1    
   100   49   50 am   BACKBONE|DICT|INTERRES
   101   49  174 1    
   102   50   51 2    
   103   50   52 1    
   104   52   53 1    
   105   52   54 1    
   106   52  175 1    
   107   53  176 1    
   108   53  177 1    
   109   53  178 1    
   110   54   55 am   BACKBONE|DICT|INTERRES
   111   54  179 1    
   112   55   56 2    
   113   55   57 1    
   114   57   58 1    
   115   57   59 1    
   116   57  180 1    
   117   58  181 1    
   118   58  182 1    
   119   58  183 1    
   120   59   60 am   BACKBONE|DICT|INTERRES
   121   59  184 1    
   122   60   61 2    
   123   60   62 1    
   124   62   63 1    
   125   62   64 1    
   126   62  185 1    
   127   63  186 1    
   128   63  187 1    
   129   63  188 1    
   130   64   65 am   BACKBONE|DICT|INTERRES
   131   64  189 1    
   132   65   66 2    
   133   67   68 2    
   134   67   69 am   BACKBONE|DICT|INTERRES
   135   69   70 1    
   136   69  190 1    
   137   70   71 1    
   138   70   72 1    
   139   70  191 1    
   140   71  192 1    
   141   71  193 1    
   142   71  194 1    
   143   72   73 2    
   144   72   74 am   BACKBONE|DICT|INTERRES
   145   74   75 1    
   146   74  195 1    
   147   75   76 1    
   148   75   77 1    
   149   75  196 1    
   150   76  197 1    
   151   76  198 1    
   152   76  199 1    
   153   77   78 2    
   154   77   79 am   BACKBONE|DICT|INTERRES
   155   79   80 1    
   156   79  200 1    
   157   80   81 1    
   158   80   82 1    
   159   80  201 1    
   160   81  202 1    
   161   81  203 1    
   162   81  204 1    
   163   82   83 2    
   164   82   84 am   BACKBONE|DICT|INTERRES
   165   84   85 1    
   166   84  205 1    
   167   85   86 1    
   168   85   87 1    
   169   85  206 1    
   170   86  207 1    
   171   86  208 1    
   172   86  209 1    
   173   87   88 2    
   174   87   89 am   BACKBONE|DICT|INTERRES
   175   89   90 1    
   176   89  210 1    
   177   90   91 1    
   178   90   92 1    
   179   90  211 1    
   180   91  212 1    
   181   91  213 1    
   182   91  214 1    
   183   92   93 2    
   184   92   94 am   BACKBONE|DICT|INTERRES
   185   94   95 1    
   186   94  215 1    
   187   95   96 1    
   188   95   97 1    
   189   95  216 1    
   190   96  217 1    
   191   96  218 1    
   192   96  219 1    
   193   97   98 2    
   194   97   99 am   BACKBONE|DICT|INTERRES
   195   99  100 1    
   196   99  220 1    
   197  100  101 1    
   198  100  102 1    
   199  100  221 1    
   200  101  222 1    
   201  101  223 1    
   202  101  224 1    
   203  102  103 2    
   204  102  104 am   BACKBONE|DICT|INTERRES
   205  104  105 1    
   206  104  225 1    
   207  105  106 1    
   208  105  107 1    
   209  105  226 1    
   210  106  227 1    
   211  106  228 1    
   212  106  229 1    
   213  107  108 2    
   214  107  109 am   BACKBONE|DICT|INTERRES
   215  109  110 1    
   216  109  230 1    
   217  110  111 1    
   218  110  112 1    
   219  110  231 1    
   220  111  232 1    
   221  111  233 1    
   222  111  234 1    
   223  112  113 2    
   224  112  114 am   BACKBONE|DICT|INTERRES
   225  114  115 1    
   226  114  235 1    
   227  115  116 1    
   228  115  117 1    
   229  115  236 1    
   230  116  237 1    
   231  116  238 1    
   232  116  239 1    
   233  117  118 2    
   234  117  119 am   BACKBONE|DICT|INTERRES
   235  119  120 1    
   236  119  240 1    
   237  120  121 1    
   238  120  124 1    
   239  120  241 1    
   240  121  122 am   BACKBONE|DICT|INTERRES
   241  121  123 2    
   242  122  242 1    
   243  122  243 1    
   244  124  125 1    
   245  124  244 1    
   246  124  245 1    
   247  125  126 1    
   248  126  246 1    
   249  126  247 1    
@<TRIPOS>SUBSTRUCTURE
     1 UNK         1 GROUP             0       ****    0 ROOT    
