@<TRIPOS>MOLECULE
3R540
247   249    1
SMALL
USER_CHARGES


@<TRIPOS>ATOM
      1 CA         -0.9237  -13.5658  -46.3775 C.3       0 UNK        -0.1800 
      2 C          -0.0059  -13.9837  -47.5163 C.2       0 UNK         0.5000 
      3 O           0.3394  -13.1563  -48.3602 O.2       0 UNK        -0.5000 
      4 N           0.4205  -15.2516  -47.5315 N.am      1 UNK        -0.5000 
      5 CA          1.3052  -15.8490  -48.5365 C.3       1 UNK         0.1400 
      6 C6          1.0412  -17.3743  -48.6554 C.3       23 UNK        -0.0398 
      7 S7          1.3314  -18.0078  -50.3427 S.3       23 UNK        -0.2404 
      8 C8         -0.3685  -18.2990  -50.9306 C.3       23 UNK        -0.0205 
      9 C9         -1.1506  -17.0021  -51.0752 C.ar      23 UNK        -0.0193 
     10 C10        -1.0273  -16.2338  -52.2337 C.ar      23 UNK        -0.1150 
     11 C11        -1.7512  -15.0475  -52.3765 C.ar      23 UNK        -0.0193 
     12 C12        -2.5894  -14.6251  -51.3408 C.ar      23 UNK        -0.1150 
     13 C13        -2.7273  -15.3803  -50.1717 C.ar      23 UNK        -0.0193 
     14 C14        -2.0034  -16.5737  -50.0549 C.ar      23 UNK        -0.1150 
     15 C15        -3.6819  -14.8664  -49.0893 C.3       23 UNK        -0.0205 
     16 S16        -3.5861  -15.6768  -47.4514 S.3       23 UNK        -0.2404 
     17 C17        -4.4626  -17.2465  -47.7516 C.3       23 UNK        -0.0398 
     18 CA         -3.7376  -18.4476  -47.0989 C.3       11 UNK         0.1400 
     19 N          -3.7216  -18.3625  -45.6320 N.am      11 UNK        -0.5000 
     20 C          -3.1568  -19.2526  -44.8053 C.2       10 UNK         0.5000 
     21 O          -2.6170  -20.2909  -45.1903 O.2       10 UNK        -0.5000 
     22 CA         -3.2025  -18.9230  -43.3024 C.3       10 UNK         0.1400 
     23 CB         -3.2042  -20.1958  -42.4378 C.3       10 UNK        -0.1800 
     24 N          -2.0576  -18.1006  -42.9276 N.am      10 UNK        -0.5000 
     25 C          -1.9119  -16.7996  -43.2087 C.2       9 UNK         0.5000 
     26 O          -2.7905  -16.1091  -43.7257 O.2       9 UNK        -0.5000 
     27 CA         -0.5459  -16.1706  -42.8754 C.3       9 UNK         0.1400 
     28 CB         -0.4988  -15.7054  -41.4127 C.3       9 UNK        -0.1800 
     29 N           0.5744  -17.0776  -43.1321 N.am      9 UNK        -0.5000 
     30 C           0.9363  -17.5163  -44.3470 C.2       8 UNK         0.5000 
     31 O           0.4069  -17.1411  -45.3932 O.2       8 UNK        -0.5000 
     32 CA          2.0717  -18.5525  -44.3995 C.3       8 UNK         0.1400 
     33 CB          3.4431  -17.8602  -44.4293 C.3       8 UNK        -0.1800 
     34 N           2.0125  -19.4668  -43.2581 N.am      8 UNK        -0.5000 
     35 C           1.2763  -20.5876  -43.2250 C.2       7 UNK         0.5000 
     36 O           0.6400  -21.0168  -44.1847 O.2       7 UNK        -0.5000 
     37 CA          1.2357  -21.3697  -41.8974 C.3       7 UNK         0.1400 
     38 CB          2.2710  -22.5044  -41.9119 C.3       7 UNK        -0.1800 
     39 N           1.4626  -20.5342  -40.7176 N.am      7 UNK        -0.5000 
     40 C           0.6233  -19.5862  -40.2781 C.2       6 UNK         0.5000 
     41 O          -0.4516  -19.3233  -40.8142 O.2       6 UNK        -0.5000 
     42 CA          1.0971  -18.7525  -39.0722 C.3       6 UNK         0.1400 
     43 CB          0.6663  -19.4158  -37.7559 C.3       6 UNK        -0.1800 
     44 N           2.5470  -18.5317  -39.0550 N.am      6 UNK        -0.5000 
     45 C           3.2274  -17.8837  -40.0087 C.2       5 UNK         0.5000 
     46 O           2.7041  -17.4126  -41.0246 O.2       5 UNK        -0.5000 
     47 CA          4.7533  -17.8115  -39.8337 C.3       5 UNK         0.1400 
     48 CB          5.4118  -19.0553  -40.4508 C.3       5 UNK        -0.1800 
     49 N           5.2732  -16.6240  -40.5041 N.am      5 UNK        -0.5000 
     50 C           5.2517  -15.3884  -39.9871 C.2       4 UNK         0.5000 
     51 O           4.9618  -15.1301  -38.8186 O.2       4 UNK        -0.5000 
     52 CA          5.5167  -14.2538  -40.9815 C.3       4 UNK         0.1400 
     53 CB          6.9654  -14.2831  -41.5083 C.3       4 UNK        -0.1800 
     54 N           4.5456  -14.3981  -42.0618 N.am      4 UNK        -0.5000 
     55 C           4.2748  -13.5055  -43.0162 C.2       3 UNK         0.5000 
     56 O           4.8362  -12.4137  -43.1336 O.2       3 UNK        -0.5000 
     57 CA          3.1329  -13.8965  -43.9714 C.3       3 UNK         0.1400 
     58 CB          1.8200  -13.2396  -43.5226 C.3       3 UNK        -0.1800 
     59 N           3.3764  -13.5536  -45.3716 N.am      3 UNK        -0.5000 
     60 C           4.4246  -13.9356  -46.1158 C.2       2 UNK         0.5000 
     61 O           5.3848  -14.5796  -45.6890 O.2       2 UNK        -0.5000 
     62 CA          4.3054  -13.5984  -47.6174 C.3       2 UNK         0.1400 
     63 CB          5.5548  -13.9794  -48.4395 C.3       2 UNK        -0.1800 
     64 N           3.0879  -14.2016  -48.1761 N.am      2 UNK        -0.5000 
     65 C           2.7783  -15.5080  -48.2118 C.2       1 UNK         0.5000 
     66 O           3.5775  -16.4052  -47.9401 O.2       1 UNK        -0.5000 
     67 C          -4.3229  -19.7692  -47.6337 C.2       11 UNK         0.5000 
     68 O          -3.7977  -20.3062  -48.6076 O.2       11 UNK        -0.5000 
     69 N          -5.3647  -20.2896  -46.9695 N.am      12 UNK        -0.5000 
     70 CA         -5.9983  -21.5665  -47.3017 C.3       12 UNK         0.1400 
     71 CB         -7.2855  -21.7252  -46.4799 C.3       12 UNK        -0.1800 
     72 C          -5.0714  -22.7783  -47.0921 C.2       12 UNK         0.5000 
     73 O          -5.1532  -23.7367  -47.8595 O.2       12 UNK        -0.5000 
     74 N          -4.1932  -22.7122  -46.0827 N.am      13 UNK        -0.5000 
     75 CA         -3.1723  -23.7270  -45.8314 C.3       13 UNK         0.1400 
     76 CB         -2.6952  -23.6421  -44.3723 C.3       13 UNK        -0.1800 
     77 C          -1.9981  -23.5680  -46.8091 C.2       13 UNK         0.5000 
     78 O          -1.5721  -24.5529  -47.4126 O.2       13 UNK        -0.5000 
     79 N          -1.5256  -22.3242  -46.9702 N.am      14 UNK        -0.5000 
     80 CA         -0.3926  -21.9555  -47.8178 C.3       14 UNK         0.1400 
     81 CB         -0.0849  -20.4660  -47.6288 C.3       14 UNK        -0.1800 
     82 C          -0.6090  -22.2669  -49.3095 C.2       14 UNK         0.5000 
     83 O           0.2971  -22.7931  -49.9558 O.2       14 UNK        -0.5000 
     84 N          -1.8080  -21.9577  -49.8218 N.am      15 UNK        -0.5000 
     85 CA         -2.2025  -22.2020  -51.2100 C.3       15 UNK         0.1400 
     86 CB         -3.1871  -21.1092  -51.6541 C.3       15 UNK        -0.1800 
     87 C          -2.7966  -23.6070  -51.4376 C.2       15 UNK         0.5000 
     88 O          -3.2258  -23.8907  -52.5572 O.2       15 UNK        -0.5000 
     89 N          -2.8268  -24.4468  -50.3897 N.am      16 UNK        -0.5000 
     90 CA         -3.2901  -25.8386  -50.3689 C.3       16 UNK         0.1400 
     91 CB         -2.3303  -26.7315  -51.1826 C.3       16 UNK        -0.1800 
     92 C          -4.7578  -25.9749  -50.8183 C.2       16 UNK         0.5000 
     93 O          -5.0390  -26.5827  -51.8510 O.2       16 UNK        -0.5000 
     94 N          -5.6648  -25.3471  -50.0569 N.am      17 UNK        -0.5000 
     95 CA         -7.1051  -25.2239  -50.3199 C.3       17 UNK         0.1400 
     96 CB         -7.8029  -26.5988  -50.2582 C.3       17 UNK        -0.1800 
     97 C          -7.4015  -24.4489  -51.6220 C.2       17 UNK         0.5000 
     98 O          -8.3776  -24.7409  -52.3143 O.2       17 UNK        -0.5000 
     99 N          -6.5253  -23.4796  -51.9249 N.am      18 UNK        -0.5000 
    100 CA        -6.4935  -22.6314  -53.1189 C.3       18 UNK         0.1400 
    101 CB        -7.7571  -21.7523  -53.2182 C.3       18 UNK        -0.1800 
    102 C         -6.1862  -23.3892  -54.4283 C.2       18 UNK         0.5000 
    103 O         -6.4187  -22.8399  -55.5056 O.2       18 UNK        -0.5000 
    104 N         -5.6181  -24.6021  -54.3391 N.am      19 UNK        -0.5000 
    105 CA        -5.1636  -25.3903  -55.4893 C.3       19 UNK         0.1400 
    106 CB        -4.7919  -26.8075  -55.0316 C.3       19 UNK        -0.1800 
    107 C         -3.9807  -24.7395  -56.2320 C.2       19 UNK         0.5000 
    108 O         -3.8768  -24.8827  -57.4506 O.2       19 UNK        -0.5000 
    109 N         -3.1353  -24.0060  -55.4945 N.am      20 UNK        -0.5000 
    110 CA        -2.0362  -23.2027  -56.0359 C.3       20 UNK         0.1400 
    111 CB        -0.9713  -23.0315  -54.9416 C.3       20 UNK        -0.1800 
    112 C         -2.4927  -21.8235  -56.5621 C.2       20 UNK         0.5000 
    113 O         -1.6627  -21.0935  -57.1061 O.2       20 UNK        -0.5000 
    114 N         -3.7821  -21.4934  -56.3807 N.am      21 UNK        -0.5000 
    115 CA        -4.4470  -20.2096  -56.6311 C.3       21 UNK         0.1400 
    116 CB        -4.2913  -19.7695  -58.1022 C.3       21 UNK        -0.1800 
    117 C         -4.0142  -19.1042  -55.6450 C.2       21 UNK         0.5000 
    118 O         -3.0891  -19.2913  -54.8502 O.2       21 UNK        -0.5000 
    119 N         -4.7293  -17.9724  -55.6923 N.am      22 UNK        -0.5000 
    120 CA        -4.5436  -16.7552  -54.8782 C.3       22 UNK         0.1400 
    121 C         -4.8525  -16.9244  -53.3589 C.2       22 UNK         0.5000 
    122 N         -4.4030  -17.9929  -52.7174 N.am      22 UNK        -0.7600 
    123 O         -5.5421  -16.0967  -52.7699 O.2       22 UNK        -0.5000 
    124 C124       -3.1635  -16.0907  -55.1374 C.3       23 UNK        -0.0398 
    125 S125       -3.1154  -14.3183  -54.6955 S.3       23 UNK        -0.2404 
    126 C126       -1.6258  -14.2213  -53.6485 C.3       23 UNK        -0.0205 
    127 H127       -1.8753  -13.2153  -46.7763 H         1 UNK         0.0600 
    128 H128       -0.4763  -12.7505  -45.8102 H         1 UNK         0.0600 
    129 H129       -1.1259  -14.3934  -45.6971 H         1 UNK         0.0600 
    130 H130        0.1789  -15.8718  -46.7612 H         1 UNK         0.3000 
    131 H131        1.0697  -15.3885  -49.4988 H         1 UNK         0.0600 
    132 H132        1.6345  -17.9515  -47.9448 H         1 UNK         0.0800 
    133 H133        0.0114  -17.5971  -48.3809 H         1 UNK         0.0800 
    134 H134       -0.3264  -18.8083  -51.8947 H         1 UNK         0.0800 
    135 H135       -0.8810  -18.9832  -50.2535 H         1 UNK         0.0800 
    136 H136       -0.3712  -16.5657  -53.0260 H         1 UNK         0.1150 
    137 H137       -3.1504  -13.7081  -51.4552 H         1 UNK         0.1150 
    138 H138       -2.0901  -17.1798  -49.1703 H         1 UNK         0.1150 
    139 H139       -3.4837  -13.8047  -48.9351 H         1 UNK         0.0800 
    140 H140       -4.7053  -14.9343  -49.4610 H         1 UNK         0.0800 
    141 H141       -4.5557  -17.3919  -48.8298 H         1 UNK         0.0800 
    142 H142       -5.4810  -17.1550  -47.3703 H         1 UNK         0.0800 
    143 H143       -2.6928  -18.4285  -47.4104 H         1 UNK         0.0600 
    144 H144       -4.0658  -17.4972  -45.2367 H         1 UNK         0.3000 
    145 H145       -4.1231  -18.3736  -43.0949 H         1 UNK         0.0600 
    146 H146       -3.3149  -19.9520  -41.3811 H         1 UNK         0.0600 
    147 H147       -4.0294  -20.8551  -42.7097 H         1 UNK         0.0600 
    148 H148       -2.2782  -20.7614  -42.5509 H         1 UNK         0.0600 
    149 H149       -1.3041  -18.5785  -42.4438 H         1 UNK         0.3000 
    150 H150       -0.4229  -15.2968  -43.5154 H         1 UNK         0.0600 
    151 H151       -1.2545  -14.9420  -41.2242 H         1 UNK         0.0600 
    152 H152        0.4708  -15.2754  -41.1617 H         1 UNK         0.0600 
    153 H153       -0.6877  -16.5286  -40.7239 H         1 UNK         0.0600 
    154 H154        1.0994  -17.3926  -42.3246 H         1 UNK         0.3000 
    155 H155        1.9636  -19.1175  -45.3277 H         1 UNK         0.0600 
    156 H156        3.6398  -17.3025  -43.5144 H         1 UNK         0.0600 
    157 H157        4.2457  -18.5870  -44.5543 H         1 UNK         0.0600 
    158 H158        3.5094  -17.1593  -45.2624 H         1 UNK         0.0600 
    159 H159        2.4777  -19.1650  -42.4132 H         1 UNK         0.3000 
    160 H160        0.2416  -21.8140  -41.8106 H         1 UNK         0.0600 
    161 H161        3.2895  -22.1191  -41.9760 H         1 UNK         0.0600 
    162 H162        2.1150  -23.1641  -42.7666 H         1 UNK         0.0600 
    163 H163        2.1982  -23.1170  -41.0131 H         1 UNK         0.0600 
    164 H164        2.3253  -20.6811  -40.2152 H         1 UNK         0.3000 
    165 H165        0.6137  -17.7760  -39.1349 H         1 UNK         0.0600 
    166 H166        0.9201  -18.7924  -36.8983 H         1 UNK         0.0600 
    167 H167       -0.4130  -19.5729  -37.7333 H         1 UNK         0.0600 
    168 H168        1.1426  -20.3874  -37.6186 H         1 UNK         0.0600 
    169 H169        3.0477  -18.9000  -38.2588 H         1 UNK         0.3000 
    170 H170        4.9954  -17.7692  -38.7696 H         1 UNK         0.0600 
    171 H171        5.1813  -19.1511  -41.5130 H         1 UNK         0.0600 
    172 H172        6.4963  -19.0183  -40.3463 H         1 UNK         0.0600 
    173 H173        5.0709  -19.9663  -39.9574 H         1 UNK         0.0600 
    174 H174        5.5198  -16.7370  -41.4761 H         1 UNK         0.3000 
    175 H175        5.3398  -13.3041  -40.4723 H         1 UNK         0.0600 
    176 H176        7.1798  -13.4142  -42.1303 H         1 UNK         0.0600 
    177 H177        7.1639  -15.1740  -42.1048 H         1 UNK         0.0600 
    178 H178        7.6796  -14.2714  -40.6840 H         1 UNK         0.0600 
    179 H179        3.9777  -15.2337  -42.0029 H         1 UNK         0.3000 
    180 H180        2.9998  -14.9784  -43.9309 H         1 UNK         0.0600 
    181 H181        1.8727  -12.1519  -43.5858 H         1 UNK         0.0600 
    182 H182        1.5845  -13.4968  -42.4894 H         1 UNK         0.0600 
    183 H183        0.9859  -13.5710  -44.1374 H         1 UNK         0.0600 
    184 H184        2.6527  -13.0142  -45.8214 H         1 UNK         0.3000 
    185 H185        4.1827  -12.5168  -47.6898 H         1 UNK         0.0600 
    186 H186        6.4331  -13.4451  -48.0759 H         1 UNK         0.0600 
    187 H187        5.7780  -15.0449  -48.3824 H         1 UNK         0.0600 
    188 H188        5.4280  -13.7199  -49.4904 H         1 UNK         0.0600 
    189 H189        2.3342  -13.5564  -48.3926 H         1 UNK         0.3000 
    190 H190       -5.7306  -19.7909  -46.1718 H         1 UNK         0.3000 
    191 H191       -6.2700  -21.5414  -48.3594 H         1 UNK         0.0600 
    192 H192       -7.9864  -20.9155  -46.6841 H         1 UNK         0.0600 
    193 H193       -7.7915  -22.6604  -46.7240 H         1 UNK         0.0600 
    194 H194       -7.0816  -21.7320  -45.4084 H         1 UNK         0.0600 
    195 H195       -4.1206  -21.8566  -45.5488 H         1 UNK         0.3000 
    196 H196       -3.6108  -24.7159  -45.9827 H         1 UNK         0.0600 
    197 H197       -1.9847  -24.4394  -44.1513 H         1 UNK         0.0600 
    198 H198       -3.5284  -23.7464  -43.6773 H         1 UNK         0.0600 
    199 H199       -2.1967  -22.6965  -44.1587 H         1 UNK         0.0600 
    200 H200       -1.9253  -21.5805  -46.4029 H         1 UNK         0.3000 
    201 H201        0.4717  -22.5283  -47.4757 H         1 UNK         0.0600 
    202 H202        0.0850  -20.2181  -46.5825 H         1 UNK         0.0600 
    203 H203       -0.9023  -19.8411  -47.9858 H         1 UNK         0.0600 
    204 H204        0.8141  -20.1929  -48.1806 H         1 UNK         0.0600 
    205 H205       -2.4988  -21.4941  -49.2348 H         1 UNK         0.3000 
    206 H206       -1.3172  -22.1223  -51.8425 H         1 UNK         0.0600 
    207 H207       -3.3889  -21.1778  -52.7236 H         1 UNK         0.0600 
    208 H208       -4.1394  -21.1855  -51.1288 H         1 UNK         0.0600 
    209 H209       -2.7819  -20.1150  -51.4682 H         1 UNK         0.0600 
    210 H210       -2.4560  -24.1073  -49.5118 H         1 UNK         0.3000 
    211 H211       -3.2473  -26.1671  -49.3293 H         1 UNK         0.0600 
    212 H212       -2.3173  -26.4602  -52.2389 H         1 UNK         0.0600 
    213 H213       -2.6247  -27.7796  -51.1183 H         1 UNK         0.0600 
    214 H214       -1.3103  -26.6563  -50.8058 H         1 UNK         0.0600 
    215 H215       -5.3401  -24.8383  -49.2339 H         1 UNK         0.3000 
    216 H216       -7.5083  -24.6156  -49.5091 H         1 UNK         0.0600 
    217 H217       -8.8869  -26.4881  -50.3013 H         1 UNK         0.0600 
    218 H218       -7.5677  -27.1185  -49.3295 H         1 UNK         0.0600 
    219 H219       -7.5088  -27.2426  -51.0875 H         1 UNK         0.0600 
    220 H220       -5.7468  -23.3621  -51.2929 H         1 UNK         0.3000 
    221 H221       -5.6505  -21.9563  -52.9763 H         1 UNK         0.0600 
    222 H222       -8.6446  -22.3407  -53.4519 H         1 UNK         0.0600 
    223 H223       -7.9416  -21.2200  -52.2851 H         1 UNK         0.0600 
    224 H224       -7.6503  -21.0006  -54.0012 H         1 UNK         0.0600 
    225 H225       -5.4173  -24.9860  -53.4231 H         1 UNK         0.3000 
    226 H226       -5.9955  -25.4672  -56.1924 H         1 UNK         0.0600 
    227 H227       -5.6320  -27.2966  -54.5383 H         1 UNK         0.0600 
    228 H228       -4.5049  -27.4296  -55.8802 H         1 UNK         0.0600 
    229 H229       -3.9528  -26.7958  -54.3347 H         1 UNK         0.0600 
    230 H230       -3.2743  -23.9649  -54.4872 H         1 UNK         0.3000 
    231 H231       -1.5815  -23.7408  -56.8701 H         1 UNK         0.0600 
    232 H232       -1.3371  -22.3996  -54.1334 H         1 UNK         0.0600 
    233 H233       -0.0723  -22.5608  -55.3411 H         1 UNK         0.0600 
    234 H234       -0.6762  -23.9908  -54.5159 H         1 UNK         0.0600 
    235 H235       -4.3753  -22.1879  -55.9462 H         1 UNK         0.3000 
    236 H236       -5.5073  -20.3912  -56.4496 H         1 UNK         0.0600 
    237 H237       -3.2767  -19.4386  -58.3253 H         1 UNK         0.0600 
    238 H238       -4.5374  -20.5826  -58.7853 H         1 UNK         0.0600 
    239 H239       -4.9586  -18.9401  -58.3379 H         1 UNK         0.0600 
    240 H240       -5.4985  -17.9264  -56.3452 H         1 UNK         0.3000 
    241 H241       -5.3020  -16.0690  -55.2581 H         1 UNK         0.0600 
    242 H242       -3.8224  -18.6534  -53.2246 H         1 UNK         0.3800 
    243 H243       -4.5971  -18.1144  -51.7385 H         1 UNK         0.3800 
    244 H244       -2.3716  -16.6406  -54.6295 H         1 UNK         0.0800 
    245 H245       -2.9228  -16.1509  -56.1995 H         1 UNK         0.0800 
    246 H246       -1.4508  -13.1784  -53.3808 H         1 UNK         0.0800 
    247 H247       -0.7580  -14.5353  -54.2307 H         1 UNK         0.0800 
@<TRIPOS>BOND
     1    1    2 1    
     2    1  127 1    
     3    1  128 1    
     4    1  129 1    
     5    2    3 2    
     6    2    4 am   BACKBONE|DICT|INTERRES
     7    4    5 1    
     8    4  130 1    
     9    5    6 1    
    10    5   65 1    
    11    5  131 1    
    12    6    7 1    
    13    6  132 1    
    14    6  133 1    
    15    7    8 1    
    16    8    9 1    
    17    8  134 1    
    18    8  135 1    
    19    9   10 ar   
    20    9   14 ar   
    21   10   11 ar   
    22   10  136 1    
    23   11   12 ar   
    24   11  126 1    
    25   12   13 ar   
    26   12  137 1    
    27   13   14 ar   
    28   13   15 1    
    29   14  138 1    
    30   15   16 1    
    31   15  139 1    
    32   15  140 1    
    33   16   17 1    
    34   17   18 1    
    35   17  141 1    
    36   17  142 1    
    37   18   19 1    
    38   18   67 1    
    39   18  143 1    
    40   19   20 am   BACKBONE|DICT|INTERRES
    41   19  144 1    
    42   20   21 2    
    43   20   22 1    
    44   22   23 1    
    45   22   24 1    
    46   22  145 1    
    47   23  146 1    
    48   23  147 1    
    49   23  148 1    
    50   24   25 am   BACKBONE|DICT|INTERRES
    51   24  149 1    
    52   25   26 2    
    53   25   27 1    
    54   27   28 1    
    55   27   29 1    
    56   27  150 1    
    57   28  151 1    
    58   28  152 1    
    59   28  153 1    
    60   29   30 am   BACKBONE|DICT|INTERRES
    61   29  154 1    
    62   30   31 2    
    63   30   32 1    
    64   32   33 1    
    65   32   34 1    
    66   32  155 1    
    67   33  156 1    
    68   33  157 1    
    69   33  158 1    
    70   34   35 am   BACKBONE|DICT|INTERRES
    71   34  159 1    
    72   35   36 2    
    73   35   37 1    
    74   37   38 1    
    75   37   39 1    
    76   37  160 1    
    77   38  161 1    
    78   38  162 1    
    79   38  163 1    
    80   39   40 am   BACKBONE|DICT|INTERRES
    81   39  164 1    
    82   40   41 2    
    83   40   42 1    
    84   42   43 1    
    85   42   44 1    
    86   42  165 1    
    87   43  166 1    
    88   43  167 1    
    89   43  168 1    
    90   44   45 am   BACKBONE|DICT|INTERRES
    91   44  169 1    
    92   45   46 2    
    93   45   47 1    
    94   47   48 1    
    95   47   49 1    
    96   47  170 1    
    97   48  171 1    
    98   48  172 1    
    99   48  173 1    
   100   49   50 am   BACKBONE|DICT|INTERRES
   101   49  174 1    
   102   50   51 2    
   103   50   52 1    
   104   52   53 1    
   105   52   54 1    
   106   52  175 1    
   107   53  176 1    
   108   53  177 1    
   109   53  178 1    
   110   54   55 am   BACKBONE|DICT|INTERRES
   111   54  179 1    
   112   55   56 2    
   113   55   57 1    
   114   57   58 1    
   115   57   59 1    
   116   57  180 1    
   117   58  181 1    
   118   58  182 1    
   119   58  183 1    
   120   59   60 am   BACKBONE|DICT|INTERRES
   121   59  184 1    
   122   60   61 2    
   123   60   62 1    
   124   62   63 1    
   125   62   64 1    
   126   62  185 1    
   127   63  186 1    
   128   63  187 1    
   129   63  188 1    
   130   64   65 am   BACKBONE|DICT|INTERRES
   131   64  189 1    
   132   65   66 2    
   133   67   68 2    
   134   67   69 am   BACKBONE|DICT|INTERRES
   135   69   70 1    
   136   69  190 1    
   137   70   71 1    
   138   70   72 1    
   139   70  191 1    
   140   71  192 1    
   141   71  193 1    
   142   71  194 1    
   143   72   73 2    
   144   72   74 am   BACKBONE|DICT|INTERRES
   145   74   75 1    
   146   74  195 1    
   147   75   76 1    
   148   75   77 1    
   149   75  196 1    
   150   76  197 1    
   151   76  198 1    
   152   76  199 1    
   153   77   78 2    
   154   77   79 am   BACKBONE|DICT|INTERRES
   155   79   80 1    
   156   79  200 1    
   157   80   81 1    
   158   80   82 1    
   159   80  201 1    
   160   81  202 1    
   161   81  203 1    
   162   81  204 1    
   163   82   83 2    
   164   82   84 am   BACKBONE|DICT|INTERRES
   165   84   85 1    
   166   84  205 1    
   167   85   86 1    
   168   85   87 1    
   169   85  206 1    
   170   86  207 1    
   171   86  208 1    
   172   86  209 1    
   173   87   88 2    
   174   87   89 am   BACKBONE|DICT|INTERRES
   175   89   90 1    
   176   89  210 1    
   177   90   91 1    
   178   90   92 1    
   179   90  211 1    
   180   91  212 1    
   181   91  213 1    
   182   91  214 1    
   183   92   93 2    
   184   92   94 am   BACKBONE|DICT|INTERRES
   185   94   95 1    
   186   94  215 1    
   187   95   96 1    
   188   95   97 1    
   189   95  216 1    
   190   96  217 1    
   191   96  218 1    
   192   96  219 1    
   193   97   98 2    
   194   97   99 am   BACKBONE|DICT|INTERRES
   195   99  100 1    
   196   99  220 1    
   197  100  101 1    
   198  100  102 1    
   199  100  221 1    
   200  101  222 1    
   201  101  223 1    
   202  101  224 1    
   203  102  103 2    
   204  102  104 am   BACKBONE|DICT|INTERRES
   205  104  105 1    
   206  104  225 1    
   207  105  106 1    
   208  105  107 1    
   209  105  226 1    
   210  106  227 1    
   211  106  228 1    
   212  106  229 1    
   213  107  108 2    
   214  107  109 am   BACKBONE|DICT|INTERRES
   215  109  110 1    
   216  109  230 1    
   217  110  111 1    
   218  110  112 1    
   219  110  231 1    
   220  111  232 1    
   221  111  233 1    
   222  111  234 1    
   223  112  113 2    
   224  112  114 am   BACKBONE|DICT|INTERRES
   225  114  115 1    
   226  114  235 1    
   227  115  116 1    
   228  115  117 1    
   229  115  236 1    
   230  116  237 1    
   231  116  238 1    
   232  116  239 1    
   233  117  118 2    
   234  117  119 am   BACKBONE|DICT|INTERRES
   235  119  120 1    
   236  119  240 1    
   237  120  121 1    
   238  120  124 1    
   239  120  241 1    
   240  121  122 am   BACKBONE|DICT|INTERRES
   241  121  123 2    
   242  122  242 1    
   243  122  243 1    
   244  124  125 1    
   245  124  244 1    
   246  124  245 1    
   247  125  126 1    
   248  126  246 1    
   249  126  247 1    
@<TRIPOS>SUBSTRUCTURE
     1 UNK         1 GROUP             0       ****    0 ROOT    
