@<TRIPOS>MOLECULE
3R540
247   249    1
SMALL
USER_CHARGES


@<TRIPOS>ATOM
      1 CA         -2.0027  -11.6301  -48.7703 C.3       0 UNK        -0.1800 
      2 C          -1.3411  -12.5593  -47.7637 C.2       0 UNK         0.5000 
      3 O          -1.3896  -12.2937  -46.5631 O.2       0 UNK        -0.5000 
      4 N          -0.7396  -13.6562  -48.2457 N.am      1 UNK        -0.5000 
      5 CA         -0.0018  -14.6560  -47.4566 C.3       1 UNK         0.1400 
      6 C6          0.6449  -15.7367  -48.3553 C.3       23 UNK        -0.0398 
      7 S7          1.8896  -15.0126  -49.4738 S.3       23 UNK        -0.2404 
      8 C8          3.2885  -16.1716  -49.2883 C.3       23 UNK        -0.0205 
      9 C9          3.0837  -17.5413  -49.9361 C.ar      23 UNK        -0.0193 
     10 C10         2.3079  -17.7037  -51.0912 C.ar      23 UNK        -0.1150 
     11 C11         2.1964  -18.9523  -51.7073 C.ar      23 UNK        -0.0193 
     12 C12         2.8747  -20.0476  -51.1700 C.ar      23 UNK        -0.1150 
     13 C13         3.6533  -19.9051  -50.0189 C.ar      23 UNK        -0.0193 
     14 C14         3.7477  -18.6522  -49.4039 C.ar      23 UNK        -0.1150 
     15 C15         4.4285  -21.0965  -49.4730 C.3       23 UNK        -0.0205 
     16 S16         3.3387  -22.4414  -48.9114 S.3       23 UNK        -0.2404 
     17 C17         2.6302  -21.7036  -47.4053 C.3       23 UNK        -0.0398 
     18 CA          1.3029  -22.3748  -46.9823 C.3       11 UNK         0.1400 
     19 N           1.0330  -22.1722  -45.5570 N.am      11 UNK        -0.5000 
     20 C           0.0560  -22.7778  -44.8679 C.2       10 UNK         0.5000 
     21 O          -0.7062  -23.6155  -45.3510 O.2       10 UNK        -0.5000 
     22 CA         -0.1274  -22.3388  -43.4038 C.3       10 UNK         0.1400 
     23 CB          0.8818  -23.0520  -42.4921 C.3       10 UNK        -0.1800 
     24 N          -0.0095  -20.8891  -43.2347 N.am      10 UNK        -0.5000 
     25 C          -0.8472  -19.9950  -43.7798 C.2       9 UNK         0.5000 
     26 O          -1.8428  -20.3031  -44.4313 O.2       9 UNK        -0.5000 
     27 CA         -0.4882  -18.5097  -43.6311 C.3       9 UNK         0.1400 
     28 CB         -0.9143  -17.9600  -42.2631 C.3       9 UNK        -0.1800 
     29 N           0.9309  -18.2544  -43.8499 N.am      9 UNK        -0.5000 
     30 C           1.5724  -18.4399  -45.0102 C.2       8 UNK         0.5000 
     31 O           1.0342  -18.8466  -46.0393 O.2       8 UNK        -0.5000 
     32 CA          3.0863  -18.1760  -45.0022 C.3       8 UNK         0.1400 
     33 CB          3.3853  -16.6760  -45.1494 C.3       8 UNK        -0.1800 
     34 N           3.7240  -18.6862  -43.7883 N.am      8 UNK        -0.5000 
     35 C           3.8301  -19.9840  -43.4722 C.2       7 UNK         0.5000 
     36 O           3.4359  -20.8994  -44.1951 O.2       7 UNK        -0.5000 
     37 CA          4.4430  -20.3062  -42.0969 C.3       7 UNK         0.1400 
     38 CB          5.9740  -20.1889  -42.1407 C.3       7 UNK        -0.1800 
     39 N           3.9176  -19.4482  -41.0324 N.am      7 UNK        -0.5000 
     40 C           2.6511  -19.4850  -40.5952 C.2       6 UNK         0.5000 
     41 O           1.8002  -20.2582  -41.0336 O.2       6 UNK        -0.5000 
     42 CA          2.2529  -18.4615  -39.5139 C.3       6 UNK         0.1400 
     43 CB          2.6252  -18.9838  -38.1181 C.3       6 UNK        -0.1800 
     44 N           2.8125  -17.1161  -39.6932 N.am      6 UNK        -0.5000 
     45 C           2.7019  -16.3709  -40.8011 C.2       5 UNK         0.5000 
     46 O           2.2355  -16.7892  -41.8607 O.2       5 UNK        -0.5000 
     47 CA          3.2345  -14.9275  -40.7212 C.3       5 UNK         0.1400 
     48 CB          4.7588  -14.9150  -40.9157 C.3       5 UNK        -0.1800 
     49 N           2.6299  -14.0506  -41.7282 N.am      5 UNK        -0.5000 
     50 C           1.3271  -13.7461  -41.8199 C.2       4 UNK         0.5000 
     51 O           0.4881  -14.1055  -40.9893 O.2       4 UNK        -0.5000 
     52 CA          0.9056  -12.8743  -43.0241 C.3       4 UNK         0.1400 
     53 CB          1.7755  -13.1011  -44.2763 C.3       4 UNK        -0.1800 
     54 N          -0.4945  -13.1008  -43.3827 N.am      4 UNK        -0.5000 
     55 C          -1.5368  -12.4265  -42.8764 C.2       3 UNK         0.5000 
     56 O          -1.4170  -11.5180  -42.0518 O.2       3 UNK        -0.5000 
     57 CA         -2.9492  -12.8014  -43.3733 C.3       3 UNK         0.1400 
     58 CB         -3.7073  -11.5590  -43.8730 C.3       3 UNK        -0.1800 
     59 N          -2.9136  -13.7809  -44.4595 N.am      3 UNK        -0.5000 
     60 C          -3.3146  -15.0564  -44.3709 C.2       2 UNK         0.5000 
     61 O          -3.7907  -15.5534  -43.3503 O.2       2 UNK        -0.5000 
     62 CA         -3.1583  -15.9388  -45.6295 C.3       2 UNK         0.1400 
     63 CB         -4.5065  -16.1000  -46.3499 C.3       2 UNK        -0.1800 
     64 N          -2.1657  -15.4516  -46.5918 N.am      2 UNK        -0.5000 
     65 C          -0.8552  -15.3045  -46.3473 C.2       1 UNK         0.5000 
     66 O          -0.3295  -15.5890  -45.2736 O.2       1 UNK        -0.5000 
     67 C           0.1149  -21.9254  -47.8616 C.2       11 UNK         0.5000 
     68 O          -0.2975  -22.6655  -48.7553 O.2       11 UNK        -0.5000 
     69 N          -0.4521  -20.7505  -47.5530 N.am      12 UNK        -0.5000 
     70 CA         -1.6507  -20.2209  -48.1973 C.3       12 UNK         0.1400 
     71 CB         -1.8777  -18.7694  -47.7601 C.3       12 UNK        -0.1800 
     72 C          -2.8965  -21.0748  -47.9127 C.2       12 UNK         0.5000 
     73 O          -3.6582  -21.3431  -48.8396 O.2       12 UNK        -0.5000 
     74 N          -3.0798  -21.5132  -46.6588 N.am      13 UNK        -0.5000 
     75 CA         -4.1777  -22.3829  -46.2252 C.3       13 UNK         0.1400 
     76 CB         -4.1462  -22.5527  -44.6999 C.3       13 UNK        -0.1800 
     77 C          -4.1740  -23.7535  -46.9246 C.2       13 UNK         0.5000 
     78 O          -5.2395  -24.2377  -47.3066 O.2       13 UNK        -0.5000 
     79 N          -2.9794  -24.3197  -47.1488 N.am      14 UNK        -0.5000 
     80 CA         -2.7687  -25.5358  -47.9413 C.3       14 UNK         0.1400 
     81 CB         -1.3096  -25.9921  -47.7925 C.3       14 UNK        -0.1800 
     82 C          -3.1436  -25.3696  -49.4306 C.2       14 UNK         0.5000 
     83 O          -3.4848  -26.3559  -50.0833 O.2       14 UNK        -0.5000 
     84 N          -3.1171  -24.1251  -49.9234 N.am      15 UNK        -0.5000 
     85 CA         -3.5733  -23.7077  -51.2480 C.3       15 UNK         0.1400 
     86 CB         -2.5619  -22.6955  -51.8137 C.3       15 UNK        -0.1800 
     87 C          -5.0090  -23.1345  -51.2130 C.2       15 UNK         0.5000 
     88 O          -5.3836  -22.3882  -52.1183 O.2       15 UNK        -0.5000 
     89 N          -5.7847  -23.4715  -50.1697 N.am      16 UNK        -0.5000 
     90 CA         -7.1815  -23.0859  -49.9349 C.3       16 UNK         0.1400 
     91 CB         -8.1067  -23.7332  -50.9867 C.3       16 UNK        -0.1800 
     92 C          -7.3752  -21.5601  -49.8036 C.2       16 UNK         0.5000 
     93 O          -8.3018  -20.9994  -50.3884 O.2       16 UNK        -0.5000 
     94 N          -6.4753  -20.9259  -49.0390 N.am      17 UNK        -0.5000 
     95 CA         -6.3176  -19.4789  -48.8487 C.3       17 UNK         0.1400 
     96 CB         -7.5838  -18.8284  -48.2531 C.3       17 UNK        -0.1800 
     97 C          -5.8072  -18.7950  -50.1329 C.2       17 UNK         0.5000 
     98 O          -6.2930  -17.7266  -50.5072 O.2       17 UNK        -0.5000 
     99 N          -4.8253  -19.4474  -50.7747 N.am      18 UNK        -0.5000 
    100 CA        -4.1575  -19.0650  -52.0232 C.3       18 UNK         0.1400 
    101 CB        -3.2837  -17.8125  -51.8027 C.3       18 UNK        -0.1800 
    102 C         -5.1232  -18.9314  -53.2227 C.2       18 UNK         0.5000 
    103 O         -4.9463  -18.0545  -54.0710 O.2       18 UNK        -0.5000 
    104 N         -6.1315  -19.8095  -53.2793 N.am      19 UNK        -0.5000 
    105 CA        -7.1829  -19.8236  -54.2924 C.3       19 UNK         0.1400 
    106 CB        -8.4591  -20.4210  -53.6778 C.3       19 UNK        -0.1800 
    107 C         -6.7164  -20.5952  -55.5378 C.2       19 UNK         0.5000 
    108 O         -7.0686  -21.7633  -55.7110 O.2       19 UNK        -0.5000 
    109 N         -5.8873  -19.9363  -56.3595 N.am      20 UNK        -0.5000 
    110 CA        -5.2954  -20.3793  -57.6337 C.3       20 UNK         0.1400 
    111 CB        -6.3810  -20.7422  -58.6645 C.3       20 UNK        -0.1800 
    112 C         -4.2492  -21.5065  -57.5112 C.2       20 UNK         0.5000 
    113 O         -3.2644  -21.4960  -58.2514 O.2       20 UNK        -0.5000 
    114 N         -4.4342  -22.4212  -56.5506 N.am      21 UNK        -0.5000 
    115 CA        -3.5330  -23.5274  -56.2083 C.3       21 UNK         0.1400 
    116 CB        -4.2081  -24.3948  -55.1352 C.3       21 UNK        -0.1800 
    117 C         -2.1305  -23.0801  -55.7439 C.2       21 UNK         0.5000 
    118 O         -1.1977  -23.8835  -55.7702 O.2       21 UNK        -0.5000 
    119 N         -2.0060  -21.8046  -55.3554 N.am      22 UNK        -0.5000 
    120 CA        -0.7369  -21.1131  -55.0901 C.3       22 UNK         0.1400 
    121 C          0.1351  -20.8677  -56.3607 C.2       22 UNK         0.5000 
    122 N         -0.3945  -20.9840  -57.5742 N.am      22 UNK        -0.7600 
    123 O          1.3190  -20.5664  -56.2422 O.2       22 UNK        -0.5000 
    124 C124       -0.9753  -19.7882  -54.3057 C.3       23 UNK        -0.0398 
    125 S125       -0.2616  -19.8200  -52.6292 S.3       23 UNK        -0.2404 
    126 C126        1.3759  -19.1111  -52.9753 C.3       23 UNK        -0.0205 
    127 H127       -3.0670  -11.5395  -48.5529 H         1 UNK         0.0600 
    128 H128       -1.8931  -11.9941  -49.7921 H         1 UNK         0.0600 
    129 H129       -1.5562  -10.6375  -48.7125 H         1 UNK         0.0600 
    130 H130       -0.7244  -13.8038  -49.2449 H         1 UNK         0.3000 
    131 H131        0.8030  -14.1216  -46.9486 H         1 UNK         0.0600 
    132 H132        1.1155  -16.5147  -47.7509 H         1 UNK         0.0800 
    133 H133       -0.1092  -16.2363  -48.9649 H         1 UNK         0.0800 
    134 H134        4.1678  -15.7153  -49.7443 H         1 UNK         0.0800 
    135 H135        3.5201  -16.2823  -48.2290 H         1 UNK         0.0800 
    136 H136        1.8026  -16.8556  -51.5300 H         1 UNK         0.1150 
    137 H137        2.8010  -21.0127  -51.6518 H         1 UNK         0.1150 
    138 H138        4.3642  -18.5347  -48.5237 H         1 UNK         0.1150 
    139 H139        5.0807  -21.4798  -50.2589 H         1 UNK         0.0800 
    140 H140        5.0827  -20.7973  -48.6525 H         1 UNK         0.0800 
    141 H141        2.5036  -20.6270  -47.5293 H         1 UNK         0.0800 
    142 H142        3.3796  -21.8306  -46.6239 H         1 UNK         0.0800 
    143 H143        1.4124  -23.4533  -47.1173 H         1 UNK         0.0600 
    144 H144        1.6382  -21.5201  -45.0701 H         1 UNK         0.3000 
    145 H145       -1.1315  -22.6315  -43.0913 H         1 UNK         0.0600 
    146 H146        0.6951  -22.8211  -41.4432 H         1 UNK         0.0600 
    147 H147        0.8131  -24.1348  -42.6036 H         1 UNK         0.0600 
    148 H148        1.9077  -22.7610  -42.7204 H         1 UNK         0.0600 
    149 H149        0.7627  -20.5586  -42.6630 H         1 UNK         0.3000 
    150 H150       -1.0376  -17.9668  -44.3988 H         1 UNK         0.0600 
    151 H151       -1.9842  -18.0986  -42.1034 H         1 UNK         0.0600 
    152 H152       -0.7102  -16.8910  -42.1902 H         1 UNK         0.0600 
    153 H153       -0.3898  -18.4584  -41.4482 H         1 UNK         0.0600 
    154 H154        1.4481  -17.8513  -43.0704 H         1 UNK         0.3000 
    155 H155        3.5158  -18.6956  -45.8614 H         1 UNK         0.0600 
    156 H156        3.1021  -16.1197  -44.2565 H         1 UNK         0.0600 
    157 H157        4.4462  -16.5020  -45.3288 H         1 UNK         0.0600 
    158 H158        2.8353  -16.2434  -45.9847 H         1 UNK         0.0600 
    159 H159        3.9982  -17.9994  -43.1013 H         1 UNK         0.3000 
    160 H160        4.1889  -21.3406  -41.8555 H         1 UNK         0.0600 
    161 H161        6.2965  -19.1674  -42.3462 H         1 UNK         0.0600 
    162 H162        6.3917  -20.8283  -42.9195 H         1 UNK         0.0600 
    163 H163        6.4196  -20.4976  -41.1949 H         1 UNK         0.0600 
    164 H164        4.5504  -18.7756  -40.6254 H         1 UNK         0.3000 
    165 H165        1.1668  -18.3605  -39.5539 H         1 UNK         0.0600 
    166 H166        2.2371  -18.3316  -37.3355 H         1 UNK         0.0600 
    167 H167        2.2065  -19.9768  -37.9475 H         1 UNK         0.0600 
    168 H168        3.7059  -19.0567  -37.9904 H         1 UNK         0.0600 
    169 H169        3.2357  -16.7024  -38.8751 H         1 UNK         0.3000 
    170 H170        2.9966  -14.5244  -39.7349 H         1 UNK         0.0600 
    171 H171        5.0421  -15.3026  -41.8955 H         1 UNK         0.0600 
    172 H172        5.1601  -13.9054  -40.8254 H         1 UNK         0.0600 
    173 H173        5.2578  -15.5278  -40.1639 H         1 UNK         0.0600 
    174 H174        3.2454  -13.7293  -42.4599 H         1 UNK         0.3000 
    175 H175        1.0354  -11.8334  -42.7217 H         1 UNK         0.0600 
    176 H176        1.3982  -12.5255  -45.1220 H         1 UNK         0.0600 
    177 H177        1.7920  -14.1502  -44.5690 H         1 UNK         0.0600 
    178 H178        2.8057  -12.7829  -44.1145 H         1 UNK         0.0600 
    179 H179       -0.6723  -13.8782  -44.0070 H         1 UNK         0.3000 
    180 H180       -3.4885  -13.2025  -42.5132 H         1 UNK         0.0600 
    181 H181       -3.1908  -11.0833  -44.7077 H         1 UNK         0.0600 
    182 H182       -3.8114  -10.8147  -43.0827 H         1 UNK         0.0600 
    183 H183       -4.7125  -11.8187  -44.2054 H         1 UNK         0.0600 
    184 H184       -2.4975  -13.4502  -45.3248 H         1 UNK         0.3000 
    185 H185       -2.8420  -16.9249  -45.2899 H         1 UNK         0.0600 
    186 H186       -5.2663  -16.4952  -45.6744 H         1 UNK         0.0600 
    187 H187       -4.8726  -15.1471  -46.7339 H         1 UNK         0.0600 
    188 H188       -4.4293  -16.7931  -47.1877 H         1 UNK         0.0600 
    189 H189       -2.5183  -15.1521  -47.4890 H         1 UNK         0.3000 
    190 H190       -0.0228  -20.1682  -46.8377 H         1 UNK         0.3000 
    191 H191       -1.4803  -20.2266  -49.2763 H         1 UNK         0.0600 
    192 H192       -1.0083  -18.1563  -47.9891 H         1 UNK         0.0600 
    193 H193       -2.7338  -18.3328  -48.2757 H         1 UNK         0.0600 
    194 H194       -2.0606  -18.6976  -46.6884 H         1 UNK         0.0600 
    195 H195       -2.4448  -21.1953  -45.9296 H         1 UNK         0.3000 
    196 H196       -5.1131  -21.8840  -46.4856 H         1 UNK         0.0600 
    197 H197       -4.9654  -23.1873  -44.3598 H         1 UNK         0.0600 
    198 H198       -4.2495  -21.5926  -44.1943 H         1 UNK         0.0600 
    199 H199       -3.2156  -23.0104  -44.3651 H         1 UNK         0.0600 
    200 H200       -2.1512  -23.8827  -46.7558 H         1 UNK         0.3000 
    201 H201       -3.4115  -26.3162  -47.5290 H         1 UNK         0.0600 
    202 H202       -1.0580  -26.1737  -46.7474 H         1 UNK         0.0600 
    203 H203       -0.6131  -25.2482  -48.1790 H         1 UNK         0.0600 
    204 H204       -1.1330  -26.9208  -48.3363 H         1 UNK         0.0600 
    205 H205       -2.8339  -23.3737  -49.3069 H         1 UNK         0.3000 
    206 H206       -3.5962  -24.5671  -51.9204 H         1 UNK         0.0600 
    207 H207       -1.5754  -23.1459  -51.9243 H         1 UNK         0.0600 
    208 H208       -2.8639  -22.3384  -52.7970 H         1 UNK         0.0600 
    209 H209       -2.4546  -21.8248  -51.1675 H         1 UNK         0.0600 
    210 H210       -5.3728  -24.0376  -49.4377 H         1 UNK         0.3000 
    211 H211       -7.4531  -23.5040  -48.9646 H         1 UNK         0.0600 
    212 H212       -7.9001  -23.3665  -51.9918 H         1 UNK         0.0600 
    213 H213       -9.1549  -23.5236  -50.7702 H         1 UNK         0.0600 
    214 H214       -7.9897  -24.8167  -50.9974 H         1 UNK         0.0600 
    215 H215       -5.6988  -21.4781  -48.6946 H         1 UNK         0.3000 
    216 H216       -5.5239  -19.3578  -48.1103 H         1 UNK         0.0600 
    217 H217       -7.3876  -17.7947  -47.9660 H         1 UNK         0.0600 
    218 H218       -7.9150  -19.3561  -47.3588 H         1 UNK         0.0600 
    219 H219       -8.4111  -18.8147  -48.9626 H         1 UNK         0.0600 
    220 H220       -4.5024  -20.3128  -50.3552 H         1 UNK         0.3000 
    221 H221       -3.4905  -19.8904  -52.2700 H         1 UNK         0.0600 
    222 H222       -3.8863  -16.9332  -51.5739 H         1 UNK         0.0600 
    223 H223       -2.5820  -17.9628  -50.9820 H         1 UNK         0.0600 
    224 H224       -2.6940  -17.5822  -52.6905 H         1 UNK         0.0600 
    225 H225       -6.1378  -20.5774  -52.6148 H         1 UNK         0.3000 
    226 H226       -7.4133  -18.7999  -54.5952 H         1 UNK         0.0600 
    227 H227       -8.8143  -19.8128  -52.8458 H         1 UNK         0.0600 
    228 H228       -9.2635  -20.4691  -54.4126 H         1 UNK         0.0600 
    229 H229       -8.2921  -21.4313  -53.3041 H         1 UNK         0.0600 
    230 H230       -5.6040  -19.0103  -56.0610 H         1 UNK         0.3000 
    231 H231       -4.7609  -19.5101  -58.0205 H         1 UNK         0.0600 
    232 H232       -6.9460  -21.6270  -58.3703 H         1 UNK         0.0600 
    233 H233       -5.9362  -20.9517  -59.6382 H         1 UNK         0.0600 
    234 H234       -7.0864  -19.9224  -58.7998 H         1 UNK         0.0600 
    235 H235       -5.3039  -22.3629  -56.0276 H         1 UNK         0.3000 
    236 H236       -3.3961  -24.1336  -57.1058 H         1 UNK         0.0600 
    237 H237       -5.1421  -24.8198  -55.5032 H         1 UNK         0.0600 
    238 H238       -3.5679  -25.2258  -54.8364 H         1 UNK         0.0600 
    239 H239       -4.4364  -23.8148  -54.2417 H         1 UNK         0.0600 
    240 H240       -2.8340  -21.2306  -55.3836 H         1 UNK         0.3000 
    241 H241       -0.1459  -21.7896  -54.4694 H         1 UNK         0.0600 
    242 H242       -1.3719  -21.2218  -57.7083 H         1 UNK         0.3800 
    243 H243        0.1885  -20.8241  -58.3804 H         1 UNK         0.3800 
    244 H244       -0.5906  -18.9135  -54.8342 H         1 UNK         0.0800 
    245 H245       -2.0407  -19.5857  -54.1982 H         1 UNK         0.0800 
    246 H246        1.9092  -19.7553  -53.6758 H         1 UNK         0.0800 
    247 H247        1.2589  -18.1462  -53.4711 H         1 UNK         0.0800 
@<TRIPOS>BOND
     1    1    2 1    
     2    1  127 1    
     3    1  128 1    
     4    1  129 1    
     5    2    3 2    
     6    2    4 am   BACKBONE|DICT|INTERRES
     7    4    5 1    
     8    4  130 1    
     9    5    6 1    
    10    5   65 1    
    11    5  131 1    
    12    6    7 1    
    13    6  132 1    
    14    6  133 1    
    15    7    8 1    
    16    8    9 1    
    17    8  134 1    
    18    8  135 1    
    19    9   10 ar   
    20    9   14 ar   
    21   10   11 ar   
    22   10  136 1    
    23   11   12 ar   
    24   11  126 1    
    25   12   13 ar   
    26   12  137 1    
    27   13   14 ar   
    28   13   15 1    
    29   14  138 1    
    30   15   16 1    
    31   15  139 1    
    32   15  140 1    
    33   16   17 1    
    34   17   18 1    
    35   17  141 1    
    36   17  142 1    
    37   18   19 1    
    38   18   67 1    
    39   18  143 1    
    40   19   20 am   BACKBONE|DICT|INTERRES
    41   19  144 1    
    42   20   21 2    
    43   20   22 1    
    44   22   23 1    
    45   22   24 1    
    46   22  145 1    
    47   23  146 1    
    48   23  147 1    
    49   23  148 1    
    50   24   25 am   BACKBONE|DICT|INTERRES
    51   24  149 1    
    52   25   26 2    
    53   25   27 1    
    54   27   28 1    
    55   27   29 1    
    56   27  150 1    
    57   28  151 1    
    58   28  152 1    
    59   28  153 1    
    60   29   30 am   BACKBONE|DICT|INTERRES
    61   29  154 1    
    62   30   31 2    
    63   30   32 1    
    64   32   33 1    
    65   32   34 1    
    66   32  155 1    
    67   33  156 1    
    68   33  157 1    
    69   33  158 1    
    70   34   35 am   BACKBONE|DICT|INTERRES
    71   34  159 1    
    72   35   36 2    
    73   35   37 1    
    74   37   38 1    
    75   37   39 1    
    76   37  160 1    
    77   38  161 1    
    78   38  162 1    
    79   38  163 1    
    80   39   40 am   BACKBONE|DICT|INTERRES
    81   39  164 1    
    82   40   41 2    
    83   40   42 1    
    84   42   43 1    
    85   42   44 1    
    86   42  165 1    
    87   43  166 1    
    88   43  167 1    
    89   43  168 1    
    90   44   45 am   BACKBONE|DICT|INTERRES
    91   44  169 1    
    92   45   46 2    
    93   45   47 1    
    94   47   48 1    
    95   47   49 1    
    96   47  170 1    
    97   48  171 1    
    98   48  172 1    
    99   48  173 1    
   100   49   50 am   BACKBONE|DICT|INTERRES
   101   49  174 1    
   102   50   51 2    
   103   50   52 1    
   104   52   53 1    
   105   52   54 1    
   106   52  175 1    
   107   53  176 1    
   108   53  177 1    
   109   53  178 1    
   110   54   55 am   BACKBONE|DICT|INTERRES
   111   54  179 1    
   112   55   56 2    
   113   55   57 1    
   114   57   58 1    
   115   57   59 1    
   116   57  180 1    
   117   58  181 1    
   118   58  182 1    
   119   58  183 1    
   120   59   60 am   BACKBONE|DICT|INTERRES
   121   59  184 1    
   122   60   61 2    
   123   60   62 1    
   124   62   63 1    
   125   62   64 1    
   126   62  185 1    
   127   63  186 1    
   128   63  187 1    
   129   63  188 1    
   130   64   65 am   BACKBONE|DICT|INTERRES
   131   64  189 1    
   132   65   66 2    
   133   67   68 2    
   134   67   69 am   BACKBONE|DICT|INTERRES
   135   69   70 1    
   136   69  190 1    
   137   70   71 1    
   138   70   72 1    
   139   70  191 1    
   140   71  192 1    
   141   71  193 1    
   142   71  194 1    
   143   72   73 2    
   144   72   74 am   BACKBONE|DICT|INTERRES
   145   74   75 1    
   146   74  195 1    
   147   75   76 1    
   148   75   77 1    
   149   75  196 1    
   150   76  197 1    
   151   76  198 1    
   152   76  199 1    
   153   77   78 2    
   154   77   79 am   BACKBONE|DICT|INTERRES
   155   79   80 1    
   156   79  200 1    
   157   80   81 1    
   158   80   82 1    
   159   80  201 1    
   160   81  202 1    
   161   81  203 1    
   162   81  204 1    
   163   82   83 2    
   164   82   84 am   BACKBONE|DICT|INTERRES
   165   84   85 1    
   166   84  205 1    
   167   85   86 1    
   168   85   87 1    
   169   85  206 1    
   170   86  207 1    
   171   86  208 1    
   172   86  209 1    
   173   87   88 2    
   174   87   89 am   BACKBONE|DICT|INTERRES
   175   89   90 1    
   176   89  210 1    
   177   90   91 1    
   178   90   92 1    
   179   90  211 1    
   180   91  212 1    
   181   91  213 1    
   182   91  214 1    
   183   92   93 2    
   184   92   94 am   BACKBONE|DICT|INTERRES
   185   94   95 1    
   186   94  215 1    
   187   95   96 1    
   188   95   97 1    
   189   95  216 1    
   190   96  217 1    
   191   96  218 1    
   192   96  219 1    
   193   97   98 2    
   194   97   99 am   BACKBONE|DICT|INTERRES
   195   99  100 1    
   196   99  220 1    
   197  100  101 1    
   198  100  102 1    
   199  100  221 1    
   200  101  222 1    
   201  101  223 1    
   202  101  224 1    
   203  102  103 2    
   204  102  104 am   BACKBONE|DICT|INTERRES
   205  104  105 1    
   206  104  225 1    
   207  105  106 1    
   208  105  107 1    
   209  105  226 1    
   210  106  227 1    
   211  106  228 1    
   212  106  229 1    
   213  107  108 2    
   214  107  109 am   BACKBONE|DICT|INTERRES
   215  109  110 1    
   216  109  230 1    
   217  110  111 1    
   218  110  112 1    
   219  110  231 1    
   220  111  232 1    
   221  111  233 1    
   222  111  234 1    
   223  112  113 2    
   224  112  114 am   BACKBONE|DICT|INTERRES
   225  114  115 1    
   226  114  235 1    
   227  115  116 1    
   228  115  117 1    
   229  115  236 1    
   230  116  237 1    
   231  116  238 1    
   232  116  239 1    
   233  117  118 2    
   234  117  119 am   BACKBONE|DICT|INTERRES
   235  119  120 1    
   236  119  240 1    
   237  120  121 1    
   238  120  124 1    
   239  120  241 1    
   240  121  122 am   BACKBONE|DICT|INTERRES
   241  121  123 2    
   242  122  242 1    
   243  122  243 1    
   244  124  125 1    
   245  124  244 1    
   246  124  245 1    
   247  125  126 1    
   248  126  246 1    
   249  126  247 1    
@<TRIPOS>SUBSTRUCTURE
     1 UNK         1 GROUP             0       ****    0 ROOT    
