@<TRIPOS>MOLECULE
3R540
247   249    1
SMALL
USER_CHARGES


@<TRIPOS>ATOM
      1 CA          6.4964  -16.1002  -43.9230 C.3       0 UNK        -0.1800 
      2 C           5.0666  -15.5792  -43.9050 C.2       0 UNK         0.5000 
      3 O           4.4463  -15.5337  -42.8435 O.2       0 UNK        -0.5000 
      4 N           4.5413  -15.2019  -45.0766 N.am      1 UNK        -0.5000 
      5 CA          3.1825  -14.6838  -45.2607 C.3       1 UNK         0.1400 
      6 C6          2.7895  -14.6075  -46.7542 C.3       23 UNK        -0.0398 
      7 S7          2.6469  -16.2709  -47.4617 S.3       23 UNK        -0.2404 
      8 C8          2.6158  -15.9304  -49.2455 C.3       23 UNK        -0.0205 
      9 C9          2.2479  -17.1863  -50.0230 C.ar      23 UNK        -0.0193 
     10 C10         1.1627  -17.1811  -50.9036 C.ar      23 UNK        -0.1150 
     11 C11         0.7860  -18.3471  -51.5867 C.ar      23 UNK        -0.0193 
     12 C12         1.5149  -19.5221  -51.3672 C.ar      23 UNK        -0.1150 
     13 C13         2.6076  -19.5395  -50.4938 C.ar      23 UNK        -0.0193 
     14 C14         2.9798  -18.3630  -49.8439 C.ar      23 UNK        -0.1150 
     15 C15         3.3779  -20.8285  -50.2301 C.3       23 UNK        -0.0205 
     16 S16         3.1879  -21.4072  -48.5077 S.3       23 UNK        -0.2404 
     17 C17         1.3763  -21.5356  -48.3965 C.3       23 UNK        -0.0398 
     18 CA          0.8952  -22.6476  -47.4376 C.3       11 UNK         0.1400 
     19 N           1.1550  -22.3294  -46.0316 N.am      11 UNK        -0.5000 
     20 C           0.9820  -23.1692  -45.0011 C.2       10 UNK         0.5000 
     21 O           0.6157  -24.3376  -45.1427 O.2       10 UNK        -0.5000 
     22 CA          1.1669  -22.5916  -43.5806 C.3       10 UNK         0.1400 
     23 CB          1.8792  -23.5748  -42.6303 C.3       10 UNK        -0.1800 
     24 N           1.7866  -21.2600  -43.5617 N.am      10 UNK        -0.5000 
     25 C           3.0495  -20.9278  -43.8711 C.2       9 UNK         0.5000 
     26 O           3.9341  -21.7457  -44.1232 O.2       9 UNK        -0.5000 
     27 CA          3.3731  -19.4230  -43.9616 C.3       9 UNK         0.1400 
     28 CB          3.6299  -19.0291  -45.4237 C.3       9 UNK        -0.1800 
     29 N           2.3033  -18.5744  -43.4295 N.am      9 UNK        -0.5000 
     30 C           2.1751  -18.2313  -42.1400 C.2       8 UNK         0.5000 
     31 O           2.9743  -18.5595  -41.2627 O.2       8 UNK        -0.5000 
     32 CA          0.9196  -17.4219  -41.7562 C.3       8 UNK         0.1400 
     33 CB          1.1920  -15.9124  -41.7990 C.3       8 UNK        -0.1800 
     34 N          -0.2348  -17.7240  -42.6051 N.am      8 UNK        -0.5000 
     35 C          -0.9339  -18.8657  -42.5401 C.2       7 UNK         0.5000 
     36 O          -0.6717  -19.7848  -41.7649 O.2       7 UNK        -0.5000 
     37 CA         -2.0963  -19.0293  -43.5347 C.3       7 UNK         0.1400 
     38 CB         -3.3990  -18.4664  -42.9489 C.3       7 UNK        -0.1800 
     39 N          -1.8432  -18.4036  -44.8329 N.am      7 UNK        -0.5000 
     40 C          -0.8809  -18.7729  -45.6877 C.2       6 UNK         0.5000 
     41 O          -0.1118  -19.7125  -45.4788 O.2       6 UNK        -0.5000 
     42 CA         -0.7612  -17.9847  -47.0025 C.3       6 UNK         0.1400 
     43 CB         -1.3098  -18.8143  -48.1735 C.3       6 UNK        -0.1800 
     44 N          -1.4237  -16.6779  -46.9943 N.am      6 UNK        -0.5000 
     45 C          -1.0639  -15.6136  -46.2662 C.2       5 UNK         0.5000 
     46 O          -0.1359  -15.6074  -45.4522 O.2       5 UNK        -0.5000 
     47 CA         -1.9235  -14.3508  -46.4571 C.3       5 UNK         0.1400 
     48 CB         -2.3879  -13.7921  -45.1044 C.3       5 UNK        -0.1800 
     49 N          -1.2309  -13.3068  -47.2158 N.am      5 UNK        -0.5000 
     50 C          -0.9494  -13.3908  -48.5267 C.2       4 UNK         0.5000 
     51 O          -1.1651  -14.3962  -49.2019 O.2       4 UNK        -0.5000 
     52 CA         -0.3793  -12.1472  -49.2379 C.3       4 UNK         0.1400 
     53 CB         -1.4127  -11.5804  -50.2257 C.3       4 UNK        -0.1800 
     54 N           0.0124  -11.0788  -48.3192 N.am      4 UNK        -0.5000 
     55 C           1.2439  -10.9201  -47.8232 C.2       3 UNK         0.5000 
     56 O           2.1898  -11.6599  -48.0957 O.2       3 UNK        -0.5000 
     57 CA          1.4668   -9.7628  -46.8281 C.3       3 UNK         0.1400 
     58 CB          0.3698   -8.6732  -46.8489 C.3       3 UNK        -0.1800 
     59 N           1.6671  -10.2999  -45.4808 N.am      3 UNK        -0.5000 
     60 C           0.7907  -11.0283  -44.7765 C.2       2 UNK         0.5000 
     61 O          -0.3787  -11.2212  -45.1144 O.2       2 UNK        -0.5000 
     62 CA          1.3674  -11.7685  -43.5608 C.3       2 UNK         0.1400 
     63 CB          0.3446  -11.9504  -42.4266 C.3       2 UNK        -0.1800 
     64 N           1.8158  -13.0768  -44.0278 N.am      2 UNK        -0.5000 
     65 C           3.0042  -13.3054  -44.5992 C.2       1 UNK         0.5000 
     66 O           3.9091  -12.4685  -44.6612 O.2       1 UNK        -0.5000 
     67 C          -0.5990  -22.9320  -47.6796 C.2       11 UNK         0.5000 
     68 O          -0.9208  -23.7773  -48.5122 O.2       11 UNK        -0.5000 
     69 N          -1.4832  -22.2545  -46.9308 N.am      12 UNK        -0.5000 
     70 CA         -2.9322  -22.4503  -47.0013 C.3       12 UNK         0.1400 
     71 CB         -3.6482  -21.3593  -46.1936 C.3       12 UNK        -0.1800 
     72 C          -3.3667  -23.8472  -46.5273 C.2       12 UNK         0.5000 
     73 O          -4.3013  -24.4104  -47.0927 O.2       12 UNK        -0.5000 
     74 N          -2.6601  -24.3923  -45.5278 N.am      13 UNK        -0.5000 
     75 CA         -2.8554  -25.7543  -45.0361 C.3       13 UNK         0.1400 
     76 CB         -2.2375  -25.8894  -43.6356 C.3       13 UNK        -0.1800 
     77 C          -2.2639  -26.7944  -46.0030 C.2       13 UNK         0.5000 
     78 O          -2.8997  -27.8186  -46.2513 O.2       13 UNK        -0.5000 
     79 N          -1.0703  -26.5041  -46.5415 N.am      14 UNK        -0.5000 
     80 CA         -0.3468  -27.3676  -47.4758 C.3       14 UNK         0.1400 
     81 CB          1.0835  -26.8375  -47.6582 C.3       14 UNK        -0.1800 
     82 C          -1.0528  -27.5139  -48.8368 C.2       14 UNK         0.5000 
     83 O          -1.1989  -28.6340  -49.3276 O.2       14 UNK        -0.5000 
     84 N          -1.4830  -26.3855  -49.4173 N.am      15 UNK        -0.5000 
     85 CA         -2.1750  -26.3317  -50.7071 C.3       15 UNK         0.1400 
     86 CB         -1.9578  -24.9444  -51.3342 C.3       15 UNK        -0.1800 
     87 C          -3.6815  -26.6272  -50.5963 C.2       15 UNK         0.5000 
     88 O          -4.3160  -26.8833  -51.6200 O.2       15 UNK        -0.5000 
     89 N          -4.2364  -26.5339  -49.3787 N.am      16 UNK        -0.5000 
     90 CA         -5.6428  -26.6853  -48.9755 C.3       16 UNK         0.1400 
     91 CB         -6.1870  -28.0820  -49.3299 C.3       16 UNK        -0.1800 
     92 C          -6.5751  -25.5709  -49.4956 C.2       16 UNK         0.5000 
     93 O          -7.3965  -25.0604  -48.7337 O.2       16 UNK        -0.5000 
     94 N          -6.4286  -25.2067  -50.7740 N.am      17 UNK        -0.5000 
     95 CA         -7.1851  -24.1564  -51.4552 C.3       17 UNK         0.1400 
     96 CB         -7.3579  -24.5637  -52.9278 C.3       17 UNK        -0.1800 
     97 C          -6.5110  -22.7737  -51.3671 C.2       17 UNK         0.5000 
     98 O          -7.1121  -21.7939  -51.8078 O.2       17 UNK        -0.5000 
     99 N          -5.2672  -22.7139  -50.8599 N.am      18 UNK        -0.5000 
    100 CA        -4.4098  -21.5203  -50.7663 C.3       18 UNK         0.1400 
    101 CB        -4.9643  -20.5404  -49.7125 C.3       18 UNK        -0.1800 
    102 C         -4.1847  -20.8481  -52.1389 C.2       18 UNK         0.5000 
    103 O         -4.2840  -19.6259  -52.2650 O.2       18 UNK        -0.5000 
    104 N         -3.9739  -21.6827  -53.1686 N.am      19 UNK        -0.5000 
    105 CA        -3.8553  -21.3287  -54.5913 C.3       19 UNK         0.1400 
    106 CB        -2.5872  -20.4822  -54.8305 C.3       19 UNK        -0.1800 
    107 C         -5.1153  -20.6572  -55.1902 C.2       19 UNK         0.5000 
    108 O         -5.0421  -20.1191  -56.2956 O.2       19 UNK        -0.5000 
    109 N         -6.2375  -20.6872  -54.4514 N.am      20 UNK        -0.5000 
    110 CA        -7.5074  -20.0051  -54.7143 C.3       20 UNK         0.1400 
    111 CB        -8.2028  -20.6022  -55.9556 C.3       20 UNK        -0.1800 
    112 C         -7.3727  -18.4664  -54.7749 C.2       20 UNK         0.5000 
    113 O         -8.1599  -17.8151  -55.4650 O.2       20 UNK        -0.5000 
    114 N         -6.3820  -17.9074  -54.0629 N.am      21 UNK        -0.5000 
    115 CA        -6.0547  -16.4802  -54.1047 C.3       21 UNK         0.1400 
    116 CB        -5.1713  -16.1874  -55.3315 C.3       21 UNK        -0.1800 
    117 C         -5.3758  -15.9667  -52.8253 C.2       21 UNK         0.5000 
    118 O         -5.5676  -14.7996  -52.4810 O.2       21 UNK        -0.5000 
    119 N         -4.5900  -16.8139  -52.1508 N.am      22 UNK        -0.5000 
    120 CA        -3.7563  -16.4366  -50.9965 C.3       22 UNK         0.1400 
    121 C         -4.4544  -16.6344  -49.6186 C.2       22 UNK         0.5000 
    122 N         -5.7218  -17.0234  -49.5626 N.am      22 UNK        -0.7600 
    123 O         -3.8372  -16.4344  -48.5763 O.2       22 UNK        -0.5000 
    124 C124       -2.3819  -17.1504  -51.0333 C.3       23 UNK        -0.0398 
    125 S125       -1.4821  -16.9353  -52.6068 S.3       23 UNK        -0.2404 
    126 C126       -0.3804  -18.3940  -52.5798 C.3       23 UNK        -0.0205 
    127 H127        6.9194  -16.0907  -44.9279 H         1 UNK         0.0600 
    128 H128        7.1280  -15.4858  -43.2815 H         1 UNK         0.0600 
    129 H129        6.5249  -17.1249  -43.5522 H         1 UNK         0.0600 
    130 H130        5.1049  -15.2503  -45.9125 H         1 UNK         0.3000 
    131 H131        2.5048  -15.3843  -44.7704 H         1 UNK         0.0600 
    132 H132        1.8220  -14.1180  -46.8810 H         1 UNK         0.0800 
    133 H133        3.5148  -14.0229  -47.3230 H         1 UNK         0.0800 
    134 H134        3.5939  -15.5730  -49.5692 H         1 UNK         0.0800 
    135 H135        1.9001  -15.1301  -49.4417 H         1 UNK         0.0800 
    136 H136        0.6143  -16.2613  -51.0431 H         1 UNK         0.1150 
    137 H137        1.2284  -20.4295  -51.8804 H         1 UNK         0.1150 
    138 H138        3.8186  -18.3747  -49.1618 H         1 UNK         0.1150 
    139 H139        3.0569  -21.6186  -50.9106 H         1 UNK         0.0800 
    140 H140        4.4365  -20.6608  -50.4328 H         1 UNK         0.0800 
    141 H141        0.9890  -21.7099  -49.4025 H         1 UNK         0.0800 
    142 H142        1.0024  -20.5614  -48.0842 H         1 UNK         0.0800 
    143 H143        1.4389  -23.5632  -47.6758 H         1 UNK         0.0600 
    144 H144        1.3781  -21.3655  -45.8233 H         1 UNK         0.3000 
    145 H145        0.1581  -22.4442  -43.1925 H         1 UNK         0.0600 
    146 H146        2.0039  -23.1436  -41.6370 H         1 UNK         0.0600 
    147 H147        1.3001  -24.4918  -42.5148 H         1 UNK         0.0600 
    148 H148        2.8637  -23.8606  -43.0007 H         1 UNK         0.0600 
    149 H149        1.1467  -20.4980  -43.3838 H         1 UNK         0.3000 
    150 H150        4.2920  -19.2494  -43.3977 H         1 UNK         0.0600 
    151 H151        4.4018  -19.6543  -45.8743 H         1 UNK         0.0600 
    152 H152        3.9750  -17.9991  -45.4925 H         1 UNK         0.0600 
    153 H153        2.7317  -19.1272  -46.0350 H         1 UNK         0.0600 
    154 H154        1.5924  -18.2793  -44.0831 H         1 UNK         0.3000 
    155 H155        0.6664  -17.6851  -40.7268 H         1 UNK         0.0600 
    156 H156        1.3810  -15.5744  -42.8150 H         1 UNK         0.0600 
    157 H157        2.0638  -15.6518  -41.1975 H         1 UNK         0.0600 
    158 H158        0.3457  -15.3460  -41.4100 H         1 UNK         0.0600 
    159 H159       -0.4952  -17.0296  -43.2921 H         1 UNK         0.3000 
    160 H160       -2.2278  -20.1000  -43.6951 H         1 UNK         0.0600 
    161 H161       -4.2444  -18.6637  -43.6084 H         1 UNK         0.0600 
    162 H162       -3.3381  -17.3886  -42.7928 H         1 UNK         0.0600 
    163 H163       -3.6255  -18.9261  -41.9859 H         1 UNK         0.0600 
    164 H164       -2.4410  -17.6341  -45.0949 H         1 UNK         0.3000 
    165 H165        0.3043  -17.8316  -47.1698 H         1 UNK         0.0600 
    166 H166       -0.8411  -18.5098  -49.1066 H         1 UNK         0.0600 
    167 H167       -1.1069  -19.8754  -48.0620 H         1 UNK         0.0600 
    168 H168       -2.3896  -18.7122  -48.2745 H         1 UNK         0.0600 
    169 H169       -2.2166  -16.5745  -47.6251 H         1 UNK         0.3000 
    170 H170       -2.8227  -14.6174  -47.0145 H         1 UNK         0.0600 
    171 H171       -2.9859  -14.5268  -44.5641 H         1 UNK         0.0600 
    172 H172       -1.5432  -13.5311  -44.4704 H         1 UNK         0.0600 
    173 H173       -3.0013  -12.9000  -45.2315 H         1 UNK         0.0600 
    174 H174       -0.9859  -12.4664  -46.7044 H         1 UNK         0.3000 
    175 H175        0.4878  -12.4761  -49.8149 H         1 UNK         0.0600 
    176 H176       -1.0061  -10.7333  -50.7786 H         1 UNK         0.0600 
    177 H177       -1.7088  -12.3320  -50.9590 H         1 UNK         0.0600 
    178 H178       -2.3168  -11.2463  -49.7152 H         1 UNK         0.0600 
    179 H179       -0.7160  -10.4475  -48.0175 H         1 UNK         0.3000 
    180 H180        2.4053   -9.2872  -47.1167 H         1 UNK         0.0600 
    181 H181       -0.6075   -9.0483  -46.5455 H         1 UNK         0.0600 
    182 H182        0.2642   -8.2467  -47.8473 H         1 UNK         0.0600 
    183 H183        0.6273   -7.8541  -46.1774 H         1 UNK         0.0600 
    184 H184        2.6241  -10.2816  -45.1538 H         1 UNK         0.3000 
    185 H185        2.2097  -11.1990  -43.1616 H         1 UNK         0.0600 
    186 H186       -0.5147  -12.5448  -42.7325 H         1 UNK         0.0600 
    187 H187        0.7989  -12.4454  -41.5681 H         1 UNK         0.0600 
    188 H188       -0.0301  -10.9850  -42.0849 H         1 UNK         0.0600 
    189 H189        1.1062  -13.7953  -44.0797 H         1 UNK         0.3000 
    190 H190       -1.1343  -21.5745  -46.2676 H         1 UNK         0.3000 
    191 H191       -3.2296  -22.3532  -48.0461 H         1 UNK         0.0600 
    192 H192       -3.4015  -21.4194  -45.1345 H         1 UNK         0.0600 
    193 H193       -4.7308  -21.4610  -46.2791 H         1 UNK         0.0600 
    194 H194       -3.3903  -20.3629  -46.5506 H         1 UNK         0.0600 
    195 H195       -1.8804  -23.8787  -45.1459 H         1 UNK         0.3000 
    196 H196       -3.9276  -25.9449  -44.9510 H         1 UNK         0.0600 
    197 H197       -2.4005  -26.8904  -43.2344 H         1 UNK         0.0600 
    198 H198       -2.6864  -25.1829  -42.9373 H         1 UNK         0.0600 
    199 H199       -1.1616  -25.7129  -43.6455 H         1 UNK         0.0600 
    200 H200       -0.5965  -25.6584  -46.2449 H         1 UNK         0.3000 
    201 H201       -0.2818  -28.3608  -47.0264 H         1 UNK         0.0600 
    202 H202        1.6020  -26.7598  -46.7023 H         1 UNK         0.0600 
    203 H203        1.0915  -25.8527  -48.1246 H         1 UNK         0.0600 
    204 H204        1.6678  -27.5045  -48.2932 H         1 UNK         0.0600 
    205 H205       -1.2945  -25.4901  -48.9692 H         1 UNK         0.3000 
    206 H206       -1.7404  -27.0773  -51.3762 H         1 UNK         0.0600 
    207 H207       -0.8958  -24.7217  -51.4399 H         1 UNK         0.0600 
    208 H208       -2.4014  -24.8893  -52.3291 H         1 UNK         0.0600 
    209 H209       -2.4051  -24.1552  -50.7299 H         1 UNK         0.0600 
    210 H210       -3.6196  -26.2711  -48.6224 H         1 UNK         0.3000 
    211 H211       -5.6431  -26.6091  -47.8871 H         1 UNK         0.0600 
    212 H212       -6.2521  -28.2371  -50.4070 H         1 UNK         0.0600 
    213 H213       -7.1886  -28.2217  -48.9217 H         1 UNK         0.0600 
    214 H214       -5.5544  -28.8667  -48.9149 H         1 UNK         0.0600 
    215 H215       -5.7435  -25.7182  -51.3252 H         1 UNK         0.3000 
    216 H216       -8.1764  -24.0672  -51.0063 H         1 UNK         0.0600 
    217 H217       -7.9452  -23.8253  -53.4757 H         1 UNK         0.0600 
    218 H218       -7.8788  -25.5176  -53.0132 H         1 UNK         0.0600 
    219 H219       -6.3968  -24.6607  -53.4346 H         1 UNK         0.0600 
    220 H220       -4.8722  -23.5757  -50.5137 H         1 UNK         0.3000 
    221 H221       -3.4306  -21.8589  -50.4262 H         1 UNK         0.0600 
    222 H222       -5.8920  -20.0725  -50.0434 H         1 UNK         0.0600 
    223 H223       -5.1687  -21.0441  -48.7687 H         1 UNK         0.0600 
    224 H224       -4.2509  -19.7420  -49.5096 H         1 UNK         0.0600 
    225 H225       -3.9476  -22.6722  -52.9692 H         1 UNK         0.3000 
    226 H226       -3.7319  -22.2699  -55.1286 H         1 UNK         0.0600 
    227 H227       -1.7075  -20.9545  -54.3934 H         1 UNK         0.0600 
    228 H228       -2.3919  -20.3610  -55.8964 H         1 UNK         0.0600 
    229 H229       -2.6803  -19.4831  -54.4034 H         1 UNK         0.0600 
    230 H230       -6.1968  -21.1439  -53.5473 H         1 UNK         0.3000 
    231 H231       -8.1437  -20.2128  -53.8532 H         1 UNK         0.0600 
    232 H232       -8.2847  -21.6863  -55.8772 H         1 UNK         0.0600 
    233 H233       -7.6625  -20.3713  -56.8739 H         1 UNK         0.0600 
    234 H234       -9.2143  -20.2096  -56.0647 H         1 UNK         0.0600 
    235 H235       -5.7864  -18.5062  -53.5050 H         1 UNK         0.3000 
    236 H236       -6.9808  -15.9097  -54.2047 H         1 UNK         0.0600 
    237 H237       -4.8982  -15.1324  -55.3770 H         1 UNK         0.0600 
    238 H238       -4.2472  -16.7666  -55.3034 H         1 UNK         0.0600 
    239 H239       -5.6881  -16.4280  -56.2605 H         1 UNK         0.0600 
    240 H240       -4.4781  -17.7786  -52.4471 H         1 UNK         0.3000 
    241 H241       -3.5464  -15.3669  -51.0550 H         1 UNK         0.0600 
    242 H242       -6.1630  -17.1448  -48.6657 H         1 UNK         0.3800 
    243 H243       -6.2405  -17.1919  -50.4087 H         1 UNK         0.3800 
    244 H244       -1.7427  -16.7629  -50.2401 H         1 UNK         0.0800 
    245 H245       -2.5099  -18.2163  -50.8429 H         1 UNK         0.0800 
    246 H246       -0.9845  -19.2825  -52.3898 H         1 UNK         0.0800 
    247 H247        0.0346  -18.5167  -53.5809 H         1 UNK         0.0800 
@<TRIPOS>BOND
     1    1    2 1    
     2    1  127 1    
     3    1  128 1    
     4    1  129 1    
     5    2    3 2    
     6    2    4 am   BACKBONE|DICT|INTERRES
     7    4    5 1    
     8    4  130 1    
     9    5    6 1    
    10    5   65 1    
    11    5  131 1    
    12    6    7 1    
    13    6  132 1    
    14    6  133 1    
    15    7    8 1    
    16    8    9 1    
    17    8  134 1    
    18    8  135 1    
    19    9   10 ar   
    20    9   14 ar   
    21   10   11 ar   
    22   10  136 1    
    23   11   12 ar   
    24   11  126 1    
    25   12   13 ar   
    26   12  137 1    
    27   13   14 ar   
    28   13   15 1    
    29   14  138 1    
    30   15   16 1    
    31   15  139 1    
    32   15  140 1    
    33   16   17 1    
    34   17   18 1    
    35   17  141 1    
    36   17  142 1    
    37   18   19 1    
    38   18   67 1    
    39   18  143 1    
    40   19   20 am   BACKBONE|DICT|INTERRES
    41   19  144 1    
    42   20   21 2    
    43   20   22 1    
    44   22   23 1    
    45   22   24 1    
    46   22  145 1    
    47   23  146 1    
    48   23  147 1    
    49   23  148 1    
    50   24   25 am   BACKBONE|DICT|INTERRES
    51   24  149 1    
    52   25   26 2    
    53   25   27 1    
    54   27   28 1    
    55   27   29 1    
    56   27  150 1    
    57   28  151 1    
    58   28  152 1    
    59   28  153 1    
    60   29   30 am   BACKBONE|DICT|INTERRES
    61   29  154 1    
    62   30   31 2    
    63   30   32 1    
    64   32   33 1    
    65   32   34 1    
    66   32  155 1    
    67   33  156 1    
    68   33  157 1    
    69   33  158 1    
    70   34   35 am   BACKBONE|DICT|INTERRES
    71   34  159 1    
    72   35   36 2    
    73   35   37 1    
    74   37   38 1    
    75   37   39 1    
    76   37  160 1    
    77   38  161 1    
    78   38  162 1    
    79   38  163 1    
    80   39   40 am   BACKBONE|DICT|INTERRES
    81   39  164 1    
    82   40   41 2    
    83   40   42 1    
    84   42   43 1    
    85   42   44 1    
    86   42  165 1    
    87   43  166 1    
    88   43  167 1    
    89   43  168 1    
    90   44   45 am   BACKBONE|DICT|INTERRES
    91   44  169 1    
    92   45   46 2    
    93   45   47 1    
    94   47   48 1    
    95   47   49 1    
    96   47  170 1    
    97   48  171 1    
    98   48  172 1    
    99   48  173 1    
   100   49   50 am   BACKBONE|DICT|INTERRES
   101   49  174 1    
   102   50   51 2    
   103   50   52 1    
   104   52   53 1    
   105   52   54 1    
   106   52  175 1    
   107   53  176 1    
   108   53  177 1    
   109   53  178 1    
   110   54   55 am   BACKBONE|DICT|INTERRES
   111   54  179 1    
   112   55   56 2    
   113   55   57 1    
   114   57   58 1    
   115   57   59 1    
   116   57  180 1    
   117   58  181 1    
   118   58  182 1    
   119   58  183 1    
   120   59   60 am   BACKBONE|DICT|INTERRES
   121   59  184 1    
   122   60   61 2    
   123   60   62 1    
   124   62   63 1    
   125   62   64 1    
   126   62  185 1    
   127   63  186 1    
   128   63  187 1    
   129   63  188 1    
   130   64   65 am   BACKBONE|DICT|INTERRES
   131   64  189 1    
   132   65   66 2    
   133   67   68 2    
   134   67   69 am   BACKBONE|DICT|INTERRES
   135   69   70 1    
   136   69  190 1    
   137   70   71 1    
   138   70   72 1    
   139   70  191 1    
   140   71  192 1    
   141   71  193 1    
   142   71  194 1    
   143   72   73 2    
   144   72   74 am   BACKBONE|DICT|INTERRES
   145   74   75 1    
   146   74  195 1    
   147   75   76 1    
   148   75   77 1    
   149   75  196 1    
   150   76  197 1    
   151   76  198 1    
   152   76  199 1    
   153   77   78 2    
   154   77   79 am   BACKBONE|DICT|INTERRES
   155   79   80 1    
   156   79  200 1    
   157   80   81 1    
   158   80   82 1    
   159   80  201 1    
   160   81  202 1    
   161   81  203 1    
   162   81  204 1    
   163   82   83 2    
   164   82   84 am   BACKBONE|DICT|INTERRES
   165   84   85 1    
   166   84  205 1    
   167   85   86 1    
   168   85   87 1    
   169   85  206 1    
   170   86  207 1    
   171   86  208 1    
   172   86  209 1    
   173   87   88 2    
   174   87   89 am   BACKBONE|DICT|INTERRES
   175   89   90 1    
   176   89  210 1    
   177   90   91 1    
   178   90   92 1    
   179   90  211 1    
   180   91  212 1    
   181   91  213 1    
   182   91  214 1    
   183   92   93 2    
   184   92   94 am   BACKBONE|DICT|INTERRES
   185   94   95 1    
   186   94  215 1    
   187   95   96 1    
   188   95   97 1    
   189   95  216 1    
   190   96  217 1    
   191   96  218 1    
   192   96  219 1    
   193   97   98 2    
   194   97   99 am   BACKBONE|DICT|INTERRES
   195   99  100 1    
   196   99  220 1    
   197  100  101 1    
   198  100  102 1    
   199  100  221 1    
   200  101  222 1    
   201  101  223 1    
   202  101  224 1    
   203  102  103 2    
   204  102  104 am   BACKBONE|DICT|INTERRES
   205  104  105 1    
   206  104  225 1    
   207  105  106 1    
   208  105  107 1    
   209  105  226 1    
   210  106  227 1    
   211  106  228 1    
   212  106  229 1    
   213  107  108 2    
   214  107  109 am   BACKBONE|DICT|INTERRES
   215  109  110 1    
   216  109  230 1    
   217  110  111 1    
   218  110  112 1    
   219  110  231 1    
   220  111  232 1    
   221  111  233 1    
   222  111  234 1    
   223  112  113 2    
   224  112  114 am   BACKBONE|DICT|INTERRES
   225  114  115 1    
   226  114  235 1    
   227  115  116 1    
   228  115  117 1    
   229  115  236 1    
   230  116  237 1    
   231  116  238 1    
   232  116  239 1    
   233  117  118 2    
   234  117  119 am   BACKBONE|DICT|INTERRES
   235  119  120 1    
   236  119  240 1    
   237  120  121 1    
   238  120  124 1    
   239  120  241 1    
   240  121  122 am   BACKBONE|DICT|INTERRES
   241  121  123 2    
   242  122  242 1    
   243  122  243 1    
   244  124  125 1    
   245  124  244 1    
   246  124  245 1    
   247  125  126 1    
   248  126  246 1    
   249  126  247 1    
@<TRIPOS>SUBSTRUCTURE
     1 UNK         1 GROUP             0       ****    0 ROOT    
