@<TRIPOS>MOLECULE
3R540
247   249    1
SMALL
USER_CHARGES


@<TRIPOS>ATOM
      1 CA          3.4525   -9.1417  -50.3658 C.3       0 UNK        -0.1800 
      2 C           3.4593  -10.4787  -49.6383 C.2       0 UNK         0.5000 
      3 O           3.4376  -10.5070  -48.4080 O.2       0 UNK        -0.5000 
      4 N           3.4968  -11.5837  -50.3934 N.am      1 UNK        -0.5000 
      5 CA          3.4569  -12.9562  -49.8735 C.3       1 UNK         0.1400 
      6 C6          3.9910  -13.9760  -50.9125 C.3       23 UNK        -0.0398 
      7 S7          3.0586  -14.0056  -52.4905 S.3       23 UNK        -0.2404 
      8 C8          2.6996  -15.7793  -52.7141 C.3       23 UNK        -0.0205 
      9 C9          1.7869  -16.3374  -51.6314 C.ar      23 UNK        -0.0193 
     10 C10         0.4166  -16.0604  -51.6472 C.ar      23 UNK        -0.1150 
     11 C11        -0.4282  -16.5740  -50.6569 C.ar      23 UNK        -0.0193 
     12 C12         0.1179  -17.3693  -49.6442 C.ar      23 UNK        -0.1150 
     13 C13         1.4854  -17.6529  -49.6160 C.ar      23 UNK        -0.0193 
     14 C14         2.3125  -17.1433  -50.6185 C.ar      23 UNK        -0.1150 
     15 C15         2.0793  -18.4700  -48.4803 C.3       23 UNK        -0.0205 
     16 S16         1.9032  -20.2642  -48.7344 S.3       23 UNK        -0.2404 
     17 C17         0.1442  -20.5491  -48.3398 C.3       23 UNK        -0.0398 
     18 CA         -0.0673  -21.8809  -47.5804 C.3       11 UNK         0.1400 
     19 N           0.3287  -21.7980  -46.1708 N.am      11 UNK        -0.5000 
     20 C           0.4302  -22.8500  -45.3459 C.2       10 UNK         0.5000 
     21 O           0.2828  -24.0170  -45.7077 O.2       10 UNK        -0.5000 
     22 CA          0.6893  -22.5502  -43.8571 C.3       10 UNK         0.1400 
     23 CB          2.1865  -22.3406  -43.5860 C.3       10 UNK        -0.1800 
     24 N          -0.0751  -21.3984  -43.3723 N.am      10 UNK        -0.5000 
     25 C          -1.4133  -21.3651  -43.2867 C.2       9 UNK         0.5000 
     26 O          -2.1334  -22.3250  -43.5579 O.2       9 UNK        -0.5000 
     27 CA         -2.0627  -20.0285  -42.8775 C.3       9 UNK         0.1400 
     28 CB         -2.0410  -19.8500  -41.3527 C.3       9 UNK        -0.1800 
     29 N          -1.4328  -18.8745  -43.5198 N.am      9 UNK        -0.5000 
     30 C          -1.4209  -18.6592  -44.8426 C.2       8 UNK         0.5000 
     31 O          -2.0008  -19.3718  -45.6599 O.2       8 UNK        -0.5000 
     32 CA         -0.5574  -17.4942  -45.3500 C.3       8 UNK         0.1400 
     33 CB         -1.3254  -16.1684  -45.3213 C.3       8 UNK        -0.1800 
     34 N           0.7040  -17.3713  -44.6167 N.am      8 UNK        -0.5000 
     35 C           1.6702  -18.3015  -44.6315 C.2       7 UNK         0.5000 
     36 O           1.6093  -19.3351  -45.2947 O.2       7 UNK        -0.5000 
     37 CA          2.8716  -18.0711  -43.7024 C.3       7 UNK         0.1400 
     38 CB          3.8760  -17.0921  -44.3267 C.3       7 UNK        -0.1800 
     39 N           2.4432  -17.5945  -42.3872 N.am      7 UNK        -0.5000 
     40 C           1.8079  -18.3724  -41.4976 C.2       6 UNK         0.5000 
     41 O           1.5723  -19.5654  -41.6881 O.2       6 UNK        -0.5000 
     42 CA          1.3205  -17.7156  -40.1930 C.3       6 UNK         0.1400 
     43 CB          2.3865  -17.8482  -39.0955 C.3       6 UNK        -0.1800 
     44 N           0.9530  -16.3072  -40.3360 N.am      6 UNK        -0.5000 
     45 C          -0.0199  -15.8309  -41.1247 C.2       5 UNK         0.5000 
     46 O          -0.7182  -16.5420  -41.8493 O.2       5 UNK        -0.5000 
     47 CA         -0.2388  -14.3021  -41.1238 C.3       5 UNK         0.1400 
     48 CB          0.5003  -13.5651  -39.9848 C.3       5 UNK        -0.1800 
     49 N           0.0934  -13.6730  -42.4057 N.am      5 UNK        -0.5000 
     50 C           1.2164  -13.8031  -43.1254 C.2       4 UNK         0.5000 
     51 O           2.1232  -14.5860  -42.8358 O.2       4 UNK        -0.5000 
     52 CA          1.3388  -12.9017  -44.3764 C.3       4 UNK         0.1400 
     53 CB          2.6000  -13.2031  -45.2052 C.3       4 UNK        -0.1800 
     54 N           0.1766  -12.9773  -45.2641 N.am      4 UNK        -0.5000 
     55 C          -1.0200  -12.4072  -45.0641 C.2       3 UNK         0.5000 
     56 O          -1.2946  -11.7654  -44.0486 O.2       3 UNK        -0.5000 
     57 CA         -2.0998  -12.6214  -46.1504 C.3       3 UNK         0.1400 
     58 CB         -3.0417  -11.4079  -46.2920 C.3       3 UNK        -0.1800 
     59 N          -1.5740  -13.0280  -47.4611 N.am      3 UNK        -0.5000 
     60 C          -0.7548  -12.3288  -48.2591 C.2       2 UNK         0.5000 
     61 O          -0.3158  -11.2067  -47.9979 O.2       2 UNK        -0.5000 
     62 CA         -0.3844  -13.0039  -49.5882 C.3       2 UNK         0.1400 
     63 CB         -1.2899  -12.5117  -50.7267 C.3       2 UNK        -0.1800 
     64 N           1.0086  -12.7681  -49.9462 N.am      2 UNK        -0.5000 
     65 C           2.0580  -13.3435  -49.3431 C.2       1 UNK         0.5000 
     66 O           1.9580  -14.1388  -48.4079 O.2       1 UNK        -0.5000 
     67 C          -1.5159  -22.3880  -47.7391 C.2       11 UNK         0.5000 
     68 O          -1.7570  -23.2592  -48.5739 O.2       11 UNK        -0.5000 
     69 N          -2.4455  -21.8848  -46.9156 N.am      12 UNK        -0.5000 
     70 CA         -3.8454  -22.3178  -46.8828 C.3       12 UNK         0.1400 
     71 CB         -4.6379  -21.4093  -45.9310 C.3       12 UNK        -0.1800 
     72 C          -4.0154  -23.7943  -46.4755 C.2       12 UNK         0.5000 
     73 O          -4.9078  -24.4684  -46.9891 O.2       12 UNK        -0.5000 
     74 N          -3.1476  -24.2682  -45.5719 N.am      13 UNK        -0.5000 
     75 CA         -3.0995  -25.6478  -45.0887 C.3       13 UNK         0.1400 
     76 CB         -2.3303  -25.6791  -43.7583 C.3       13 UNK        -0.1800 
     77 C          -2.4868  -26.6459  -46.0933 C.2       13 UNK         0.5000 
     78 O          -2.6222  -27.8532  -45.8846 O.2       13 UNK        -0.5000 
     79 N          -1.8199  -26.1537  -47.1479 N.am      14 UNK        -0.5000 
     80 CA         -1.2536  -26.9714  -48.2226 C.3       14 UNK         0.1400 
     81 CB         -0.2856  -26.1156  -49.0544 C.3       14 UNK        -0.1800 
     82 C          -2.3485  -27.5805  -49.1209 C.2       14 UNK         0.5000 
     83 O          -3.4902  -27.1119  -49.1141 O.2       14 UNK        -0.5000 
     84 N          -1.9711  -28.6082  -49.8936 N.am      15 UNK        -0.5000 
     85 CA         -2.8348  -29.3507  -50.8156 C.3       15 UNK         0.1400 
     86 CB         -2.0033  -30.4325  -51.5236 C.3       15 UNK        -0.1800 
     87 C          -3.5389  -28.4338  -51.8356 C.2       15 UNK         0.5000 
     88 O          -2.8725  -27.8453  -52.6891 O.2       15 UNK        -0.5000 
     89 N          -4.8654  -28.3088  -51.6847 N.am      16 UNK        -0.5000 
     90 CA         -5.7791  -27.4493  -52.4488 C.3       16 UNK         0.1400 
     91 CB         -5.8293  -27.8829  -53.9297 C.3       16 UNK        -0.1800 
     92 C          -5.5244  -25.9320  -52.2819 C.2       16 UNK         0.5000 
     93 O          -6.0121  -25.1561  -53.1047 O.2       16 UNK        -0.5000 
     94 N          -4.8074  -25.5474  -51.2124 N.am      17 UNK        -0.5000 
     95 CA         -4.3326  -24.2083  -50.8486 C.3       17 UNK         0.1400 
     96 CB         -5.4968  -23.2237  -50.6339 C.3       17 UNK        -0.1800 
     97 C          -3.2985  -23.6555  -51.8486 C.2       17 UNK         0.5000 
     98 O          -3.6233  -23.3978  -53.0101 O.2       17 UNK        -0.5000 
     99 N          -2.0622  -23.4514  -51.3782 N.am      18 UNK        -0.5000 
    100 CA        -0.9782  -22.8574  -52.1593 C.3       18 UNK         0.1400 
    101 CB         0.3508  -22.9952  -51.4038 C.3       18 UNK        -0.1800 
    102 C         -1.2896  -21.3871  -52.4899 C.2       18 UNK         0.5000 
    103 O         -1.6919  -20.6331  -51.6021 O.2       18 UNK        -0.5000 
    104 N         -1.1511  -21.0397  -53.7765 N.am      19 UNK        -0.5000 
    105 CA        -1.5004  -19.7580  -54.4052 C.3       19 UNK         0.1400 
    106 CB        -0.6965  -18.5961  -53.7887 C.3       19 UNK        -0.1800 
    107 C         -3.0164  -19.4536  -54.4567 C.2       19 UNK         0.5000 
    108 O         -3.3889  -18.3833  -54.9390 O.2       19 UNK        -0.5000 
    109 N         -3.8604  -20.3916  -53.9965 N.am      20 UNK        -0.5000 
    110 CA        -5.3304  -20.4374  -54.0087 C.3       20 UNK         0.1400 
    111 CB        -5.8555  -20.5006  -55.4549 C.3       20 UNK        -0.1800 
    112 C         -6.0670  -19.3368  -53.2141 C.2       20 UNK         0.5000 
    113 O         -7.0907  -19.6300  -52.5960 O.2       20 UNK        -0.5000 
    114 N         -5.5687  -18.0965  -53.2617 N.am      21 UNK        -0.5000 
    115 CA        -6.1847  -16.9051  -52.6746 C.3       21 UNK         0.1400 
    116 CB        -5.4784  -15.6599  -53.2336 C.3       21 UNK        -0.1800 
    117 C         -6.1609  -16.8836  -51.1357 C.2       21 UNK         0.5000 
    118 O         -7.0580  -16.3010  -50.5245 O.2       21 UNK        -0.5000 
    119 N         -5.1339  -17.5016  -50.5451 N.am      22 UNK        -0.5000 
    120 CA        -4.9441  -17.6125  -49.0949 C.3       22 UNK         0.1400 
    121 C         -5.6485  -18.8848  -48.5644 C.2       22 UNK         0.5000 
    122 N         -6.5127  -18.7590  -47.5665 N.am      22 UNK        -0.7600 
    123 O         -5.3955  -19.9896  -49.0337 O.2       22 UNK        -0.5000 
    124 C124       -3.4406  -17.5997  -48.7217 C.3       23 UNK        -0.0398 
    125 S125       -2.6888  -15.9733  -49.0818 S.3       23 UNK        -0.2404 
    126 C126       -1.9237  -16.2730  -50.7148 C.3       23 UNK        -0.0205 
    127 H127        2.5497   -8.5842  -50.1160 H         1 UNK         0.0600 
    128 H128        3.4852   -9.2685  -51.4483 H         1 UNK         0.0600 
    129 H129        4.3157   -8.5471  -50.0669 H         1 UNK         0.0600 
    130 H130        3.5248  -11.5019  -51.4003 H         1 UNK         0.3000 
    131 H131        4.1308  -12.9980  -49.0148 H         1 UNK         0.0600 
    132 H132        4.0243  -14.9724  -50.4724 H         1 UNK         0.0800 
    133 H133        5.0284  -13.7363  -51.1493 H         1 UNK         0.0800 
    134 H134        2.2267  -15.9215  -53.6869 H         1 UNK         0.0800 
    135 H135        3.6389  -16.3333  -52.7511 H         1 UNK         0.0800 
    136 H136        0.0102  -15.4434  -52.4362 H         1 UNK         0.1150 
    137 H137       -0.5213  -17.7628  -48.8702 H         1 UNK         0.1150 
    138 H138        3.3706  -17.3629  -50.6004 H         1 UNK         0.1150 
    139 H139        3.1401  -18.2401  -48.3714 H         1 UNK         0.0800 
    140 H140        1.6168  -18.1708  -47.5441 H         1 UNK         0.0800 
    141 H141       -0.4015  -20.5333  -49.2844 H         1 UNK         0.0800 
    142 H142       -0.2491  -19.7222  -47.7502 H         1 UNK         0.0800 
    143 H143        0.5685  -22.6387  -48.0435 H         1 UNK         0.0600 
    144 H144        0.5498  -20.8740  -45.8100 H         1 UNK         0.3000 
    145 H145        0.3672  -23.4232  -43.2857 H         1 UNK         0.0600 
    146 H146        2.3769  -22.1899  -42.5233 H         1 UNK         0.0600 
    147 H147        2.7637  -23.2110  -43.9000 H         1 UNK         0.0600 
    148 H148        2.5802  -21.4773  -44.1214 H         1 UNK         0.0600 
    149 H149        0.4587  -20.5862  -43.0827 H         1 UNK         0.3000 
    150 H150       -3.1059  -20.0541  -43.1987 H         1 UNK         0.0600 
    151 H151       -2.5829  -20.6581  -40.8601 H         1 UNK         0.0600 
    152 H152       -2.5125  -18.9125  -41.0570 H         1 UNK         0.0600 
    153 H153       -1.0248  -19.8529  -40.9605 H         1 UNK         0.0600 
    154 H154       -0.9771  -18.1985  -42.9145 H         1 UNK         0.3000 
    155 H155       -0.3217  -17.7054  -46.3932 H         1 UNK         0.0600 
    156 H156       -0.7880  -15.4147  -45.8922 H         1 UNK         0.0600 
    157 H157       -1.4686  -15.7961  -44.3069 H         1 UNK         0.0600 
    158 H158       -2.3107  -16.2732  -45.7774 H         1 UNK         0.0600 
    159 H159        0.8021  -16.5828  -43.9934 H         1 UNK         0.3000 
    160 H160        3.3803  -19.0287  -43.5709 H         1 UNK         0.0600 
    161 H161        3.4299  -16.1172  -44.5165 H         1 UNK         0.0600 
    162 H162        4.2451  -17.4718  -45.2803 H         1 UNK         0.0600 
    163 H163        4.7394  -16.9451  -43.6778 H         1 UNK         0.0600 
    164 H164        2.5470  -16.6033  -42.1999 H         1 UNK         0.3000 
    165 H165        0.4294  -18.2551  -39.8672 H         1 UNK         0.0600 
    166 H166        2.0199  -17.4708  -38.1407 H         1 UNK         0.0600 
    167 H167        2.6647  -18.8923  -38.9453 H         1 UNK         0.0600 
    168 H168        3.2947  -17.2995  -39.3485 H         1 UNK         0.0600 
    169 H169        1.4942  -15.6458  -39.7988 H         1 UNK         0.3000 
    170 H170       -1.3089  -14.1525  -40.9740 H         1 UNK         0.0600 
    171 H171        0.2381  -13.9764  -39.0090 H         1 UNK         0.0600 
    172 H172        1.5842  -13.6192  -40.0947 H         1 UNK         0.0600 
    173 H173        0.2273  -12.5098  -39.9669 H         1 UNK         0.0600 
    174 H174       -0.5923  -13.0130  -42.7616 H         1 UNK         0.3000 
    175 H175        1.4247  -11.8759  -44.0127 H         1 UNK         0.0600 
    176 H176        2.5655  -14.2035  -45.6373 H         1 UNK         0.0600 
    177 H177        2.7100  -12.4923  -46.0250 H         1 UNK         0.0600 
    178 H178        3.5022  -13.1345  -44.5962 H         1 UNK         0.0600 
    179 H179        0.3177  -13.4831  -46.1268 H         1 UNK         0.3000 
    180 H180       -2.7046  -13.4592  -45.8009 H         1 UNK         0.0600 
    181 H181       -3.8040  -11.5869  -47.0503 H         1 UNK         0.0600 
    182 H182       -2.4993  -10.5033  -46.5682 H         1 UNK         0.0600 
    183 H183       -3.5614  -11.2024  -45.3555 H         1 UNK         0.0600 
    184 H184       -1.8861  -13.9346  -47.7854 H         1 UNK         0.3000 
    185 H185       -0.5154  -14.0793  -49.4781 H         1 UNK         0.0600 
    186 H186       -1.0496  -13.0111  -51.6655 H         1 UNK         0.0600 
    187 H187       -2.3381  -12.7195  -50.5075 H         1 UNK         0.0600 
    188 H188       -1.1923  -11.4366  -50.8825 H         1 UNK         0.0600 
    189 H189        1.1845  -12.0957  -50.6769 H         1 UNK         0.3000 
    190 H190       -2.1929  -21.1239  -46.2897 H         1 UNK         0.3000 
    191 H191       -4.2509  -22.2002  -47.8893 H         1 UNK         0.0600 
    192 H192       -5.7032  -21.6378  -45.9738 H         1 UNK         0.0600 
    193 H193       -4.5180  -20.3592  -46.1946 H         1 UNK         0.0600 
    194 H194       -4.3177  -21.5293  -44.8964 H         1 UNK         0.0600 
    195 H195       -2.4915  -23.6199  -45.1501 H         1 UNK         0.3000 
    196 H196       -4.1225  -25.9758  -44.8937 H         1 UNK         0.0600 
    197 H197       -1.2979  -25.3522  -43.8839 H         1 UNK         0.0600 
    198 H198       -2.7985  -25.0318  -43.0164 H         1 UNK         0.0600 
    199 H199       -2.3074  -26.6863  -43.3407 H         1 UNK         0.0600 
    200 H200       -1.7735  -25.1505  -47.2681 H         1 UNK         0.3000 
    201 H201       -0.6885  -27.7853  -47.7638 H         1 UNK         0.0600 
    202 H202       -0.8192  -25.3952  -49.6724 H         1 UNK         0.0600 
    203 H203        0.3069  -26.7373  -49.7262 H         1 UNK         0.0600 
    204 H204        0.4109  -25.5665  -48.4200 H         1 UNK         0.0600 
    205 H205       -1.0076  -28.9076  -49.8591 H         1 UNK         0.3000 
    206 H206       -3.5942  -29.8551  -50.2146 H         1 UNK         0.0600 
    207 H207       -1.5776  -31.1360  -50.8078 H         1 UNK         0.0600 
    208 H208       -2.6200  -31.0077  -52.2155 H         1 UNK         0.0600 
    209 H209       -1.1830  -29.9996  -52.0977 H         1 UNK         0.0600 
    210 H210       -5.2981  -28.8104  -50.9211 H         1 UNK         0.3000 
    211 H211       -6.7699  -27.6258  -52.0278 H         1 UNK         0.0600 
    212 H212       -6.6303  -27.3689  -54.4621 H         1 UNK         0.0600 
    213 H213       -6.0168  -28.9526  -54.0222 H         1 UNK         0.0600 
    214 H214       -4.8977  -27.6583  -54.4495 H         1 UNK         0.0600 
    215 H215       -4.4660  -26.2799  -50.5959 H         1 UNK         0.3000 
    216 H216       -3.8372  -24.3309  -49.8844 H         1 UNK         0.0600 
    217 H217       -6.0699  -23.0527  -51.5450 H         1 UNK         0.0600 
    218 H218       -6.1803  -23.5824  -49.8644 H         1 UNK         0.0600 
    219 H219       -5.1185  -22.2553  -50.3084 H         1 UNK         0.0600 
    220 H220       -1.8927  -23.5604  -50.3806 H         1 UNK         0.3000 
    221 H221       -0.8923  -23.4211  -53.0908 H         1 UNK         0.0600 
    222 H222        0.6031  -24.0419  -51.2350 H         1 UNK         0.0600 
    223 H223        0.3165  -22.4993  -50.4368 H         1 UNK         0.0600 
    224 H224        1.1700  -22.5503  -51.9698 H         1 UNK         0.0600 
    225 H225       -0.8348  -21.7499  -54.4226 H         1 UNK         0.3000 
    226 H226       -1.1875  -19.8481  -55.4463 H         1 UNK         0.0600 
    227 H227       -0.9918  -18.4069  -52.7582 H         1 UNK         0.0600 
    228 H228        0.3732  -18.8049  -53.7955 H         1 UNK         0.0600 
    229 H229       -0.8492  -17.6704  -54.3445 H         1 UNK         0.0600 
    230 H230       -3.4369  -21.2260  -53.6091 H         1 UNK         0.3000 
    231 H231       -5.5900  -21.3825  -53.5287 H         1 UNK         0.0600 
    232 H232       -5.6239  -19.5919  -56.0115 H         1 UNK         0.0600 
    233 H233       -6.9389  -20.6259  -55.4715 H         1 UNK         0.0600 
    234 H234       -5.4236  -21.3441  -55.9935 H         1 UNK         0.0600 
    235 H235       -4.7387  -17.9565  -53.8345 H         1 UNK         0.3000 
    236 H236       -7.2300  -16.8763  -52.9888 H         1 UNK         0.0600 
    237 H237       -5.9250  -14.7460  -52.8396 H         1 UNK         0.0600 
    238 H238       -4.4193  -15.6478  -52.9722 H         1 UNK         0.0600 
    239 H239       -5.5558  -15.6169  -54.3201 H         1 UNK         0.0600 
    240 H240       -4.4879  -18.0167  -51.1231 H         1 UNK         0.3000 
    241 H241       -5.4041  -16.7471  -48.6127 H         1 UNK         0.0600 
    242 H242       -6.9742  -19.5830  -47.2165 H         1 UNK         0.3800 
    243 H243       -6.7406  -17.8595  -47.1727 H         1 UNK         0.3800 
    244 H244       -3.3129  -17.7898  -47.6545 H         1 UNK         0.0800 
    245 H245       -2.8987  -18.3953  -49.2369 H         1 UNK         0.0800 
    246 H246       -2.4270  -17.0932  -51.2261 H         1 UNK         0.0800 
    247 H247       -2.0988  -15.3869  -51.3260 H         1 UNK         0.0800 
@<TRIPOS>BOND
     1    1    2 1    
     2    1  127 1    
     3    1  128 1    
     4    1  129 1    
     5    2    3 2    
     6    2    4 am   BACKBONE|DICT|INTERRES
     7    4    5 1    
     8    4  130 1    
     9    5    6 1    
    10    5   65 1    
    11    5  131 1    
    12    6    7 1    
    13    6  132 1    
    14    6  133 1    
    15    7    8 1    
    16    8    9 1    
    17    8  134 1    
    18    8  135 1    
    19    9   10 ar   
    20    9   14 ar   
    21   10   11 ar   
    22   10  136 1    
    23   11   12 ar   
    24   11  126 1    
    25   12   13 ar   
    26   12  137 1    
    27   13   14 ar   
    28   13   15 1    
    29   14  138 1    
    30   15   16 1    
    31   15  139 1    
    32   15  140 1    
    33   16   17 1    
    34   17   18 1    
    35   17  141 1    
    36   17  142 1    
    37   18   19 1    
    38   18   67 1    
    39   18  143 1    
    40   19   20 am   BACKBONE|DICT|INTERRES
    41   19  144 1    
    42   20   21 2    
    43   20   22 1    
    44   22   23 1    
    45   22   24 1    
    46   22  145 1    
    47   23  146 1    
    48   23  147 1    
    49   23  148 1    
    50   24   25 am   BACKBONE|DICT|INTERRES
    51   24  149 1    
    52   25   26 2    
    53   25   27 1    
    54   27   28 1    
    55   27   29 1    
    56   27  150 1    
    57   28  151 1    
    58   28  152 1    
    59   28  153 1    
    60   29   30 am   BACKBONE|DICT|INTERRES
    61   29  154 1    
    62   30   31 2    
    63   30   32 1    
    64   32   33 1    
    65   32   34 1    
    66   32  155 1    
    67   33  156 1    
    68   33  157 1    
    69   33  158 1    
    70   34   35 am   BACKBONE|DICT|INTERRES
    71   34  159 1    
    72   35   36 2    
    73   35   37 1    
    74   37   38 1    
    75   37   39 1    
    76   37  160 1    
    77   38  161 1    
    78   38  162 1    
    79   38  163 1    
    80   39   40 am   BACKBONE|DICT|INTERRES
    81   39  164 1    
    82   40   41 2    
    83   40   42 1    
    84   42   43 1    
    85   42   44 1    
    86   42  165 1    
    87   43  166 1    
    88   43  167 1    
    89   43  168 1    
    90   44   45 am   BACKBONE|DICT|INTERRES
    91   44  169 1    
    92   45   46 2    
    93   45   47 1    
    94   47   48 1    
    95   47   49 1    
    96   47  170 1    
    97   48  171 1    
    98   48  172 1    
    99   48  173 1    
   100   49   50 am   BACKBONE|DICT|INTERRES
   101   49  174 1    
   102   50   51 2    
   103   50   52 1    
   104   52   53 1    
   105   52   54 1    
   106   52  175 1    
   107   53  176 1    
   108   53  177 1    
   109   53  178 1    
   110   54   55 am   BACKBONE|DICT|INTERRES
   111   54  179 1    
   112   55   56 2    
   113   55   57 1    
   114   57   58 1    
   115   57   59 1    
   116   57  180 1    
   117   58  181 1    
   118   58  182 1    
   119   58  183 1    
   120   59   60 am   BACKBONE|DICT|INTERRES
   121   59  184 1    
   122   60   61 2    
   123   60   62 1    
   124   62   63 1    
   125   62   64 1    
   126   62  185 1    
   127   63  186 1    
   128   63  187 1    
   129   63  188 1    
   130   64   65 am   BACKBONE|DICT|INTERRES
   131   64  189 1    
   132   65   66 2    
   133   67   68 2    
   134   67   69 am   BACKBONE|DICT|INTERRES
   135   69   70 1    
   136   69  190 1    
   137   70   71 1    
   138   70   72 1    
   139   70  191 1    
   140   71  192 1    
   141   71  193 1    
   142   71  194 1    
   143   72   73 2    
   144   72   74 am   BACKBONE|DICT|INTERRES
   145   74   75 1    
   146   74  195 1    
   147   75   76 1    
   148   75   77 1    
   149   75  196 1    
   150   76  197 1    
   151   76  198 1    
   152   76  199 1    
   153   77   78 2    
   154   77   79 am   BACKBONE|DICT|INTERRES
   155   79   80 1    
   156   79  200 1    
   157   80   81 1    
   158   80   82 1    
   159   80  201 1    
   160   81  202 1    
   161   81  203 1    
   162   81  204 1    
   163   82   83 2    
   164   82   84 am   BACKBONE|DICT|INTERRES
   165   84   85 1    
   166   84  205 1    
   167   85   86 1    
   168   85   87 1    
   169   85  206 1    
   170   86  207 1    
   171   86  208 1    
   172   86  209 1    
   173   87   88 2    
   174   87   89 am   BACKBONE|DICT|INTERRES
   175   89   90 1    
   176   89  210 1    
   177   90   91 1    
   178   90   92 1    
   179   90  211 1    
   180   91  212 1    
   181   91  213 1    
   182   91  214 1    
   183   92   93 2    
   184   92   94 am   BACKBONE|DICT|INTERRES
   185   94   95 1    
   186   94  215 1    
   187   95   96 1    
   188   95   97 1    
   189   95  216 1    
   190   96  217 1    
   191   96  218 1    
   192   96  219 1    
   193   97   98 2    
   194   97   99 am   BACKBONE|DICT|INTERRES
   195   99  100 1    
   196   99  220 1    
   197  100  101 1    
   198  100  102 1    
   199  100  221 1    
   200  101  222 1    
   201  101  223 1    
   202  101  224 1    
   203  102  103 2    
   204  102  104 am   BACKBONE|DICT|INTERRES
   205  104  105 1    
   206  104  225 1    
   207  105  106 1    
   208  105  107 1    
   209  105  226 1    
   210  106  227 1    
   211  106  228 1    
   212  106  229 1    
   213  107  108 2    
   214  107  109 am   BACKBONE|DICT|INTERRES
   215  109  110 1    
   216  109  230 1    
   217  110  111 1    
   218  110  112 1    
   219  110  231 1    
   220  111  232 1    
   221  111  233 1    
   222  111  234 1    
   223  112  113 2    
   224  112  114 am   BACKBONE|DICT|INTERRES
   225  114  115 1    
   226  114  235 1    
   227  115  116 1    
   228  115  117 1    
   229  115  236 1    
   230  116  237 1    
   231  116  238 1    
   232  116  239 1    
   233  117  118 2    
   234  117  119 am   BACKBONE|DICT|INTERRES
   235  119  120 1    
   236  119  240 1    
   237  120  121 1    
   238  120  124 1    
   239  120  241 1    
   240  121  122 am   BACKBONE|DICT|INTERRES
   241  121  123 2    
   242  122  242 1    
   243  122  243 1    
   244  124  125 1    
   245  124  244 1    
   246  124  245 1    
   247  125  126 1    
   248  126  246 1    
   249  126  247 1    
@<TRIPOS>SUBSTRUCTURE
     1 UNK         1 GROUP             0       ****    0 ROOT    
