@<TRIPOS>MOLECULE
3R540
247   249    1
SMALL
USER_CHARGES


@<TRIPOS>ATOM
      1 CA          8.1192  -11.5535  -48.5436 C.3       0 UNK        -0.1800 
      2 C           7.1499  -12.7142  -48.3686 C.2       0 UNK         0.5000 
      3 O           7.3759  -13.5805  -47.5236 O.2       0 UNK        -0.5000 
      4 N           6.0748  -12.7353  -49.1610 N.am      1 UNK        -0.5000 
      5 CA          5.0131  -13.7374  -49.1320 C.3       1 UNK         0.1400 
      6 C6          5.4261  -15.0391  -49.8670 C.3       23 UNK        -0.0398 
      7 S7          4.3621  -16.4575  -49.4377 S.3       23 UNK        -0.2404 
      8 C8          4.1948  -17.2756  -51.0550 C.3       23 UNK        -0.0205 
      9 C9          2.9938  -18.2048  -51.0686 C.ar      23 UNK        -0.0193 
     10 C10         1.7258  -17.6785  -51.3133 C.ar      23 UNK        -0.1150 
     11 C11         0.5993  -18.5024  -51.3082 C.ar      23 UNK        -0.0193 
     12 C12         0.7489  -19.8722  -51.0653 C.ar      23 UNK        -0.1150 
     13 C13         2.0138  -20.4148  -50.8044 C.ar      23 UNK        -0.0193 
     14 C14         3.1346  -19.5735  -50.8220 C.ar      23 UNK        -0.1150 
     15 C15         2.1564  -21.9115  -50.5321 C.3       23 UNK        -0.0205 
     16 S16         3.2888  -22.3153  -49.1555 S.3       23 UNK        -0.2404 
     17 C17         2.3142  -21.8413  -47.6870 C.3       23 UNK        -0.0398 
     18 CA          2.0750  -23.0318  -46.7258 C.3       11 UNK         0.1400 
     19 N           1.6930  -22.5709  -45.3875 N.am      11 UNK        -0.5000 
     20 C           1.5442  -23.3670  -44.3183 C.2       10 UNK         0.5000 
     21 O           1.9126  -24.5432  -44.2872 O.2       10 UNK        -0.5000 
     22 CA          0.8440  -22.7366  -43.0985 C.3       10 UNK         0.1400 
     23 CB          0.7945  -23.6638  -41.8664 C.3       10 UNK        -0.1800 
     24 N           1.3972  -21.4278  -42.7544 N.am      10 UNK        -0.5000 
     25 C           2.6414  -21.1395  -42.3479 C.2       9 UNK         0.5000 
     26 O           3.5187  -21.9827  -42.1575 O.2       9 UNK        -0.5000 
     27 CA          2.9722  -19.6497  -42.1245 C.3       9 UNK         0.1400 
     28 CB          3.8909  -19.1403  -43.2462 C.3       9 UNK        -0.1800 
     29 N           1.7869  -18.7900  -42.0546 N.am      9 UNK        -0.5000 
     30 C           0.9279  -18.7427  -41.0268 C.2       8 UNK         0.5000 
     31 O           1.0740  -19.3818  -39.9845 O.2       8 UNK        -0.5000 
     32 CA         -0.3215  -17.8591  -41.2079 C.3       8 UNK         0.1400 
     33 CB         -0.0015  -16.3915  -40.8862 C.3       8 UNK        -0.1800 
     34 N          -0.8993  -17.9521  -42.5514 N.am      8 UNK        -0.5000 
     35 C          -1.4694  -19.0533  -43.0640 C.2       7 UNK         0.5000 
     36 O          -1.5933  -20.1101  -42.4455 O.2       7 UNK        -0.5000 
     37 CA         -1.9321  -18.9816  -44.5312 C.3       7 UNK         0.1400 
     38 CB         -3.2864  -18.2694  -44.6580 C.3       7 UNK        -0.1800 
     39 N          -0.9466  -18.3205  -45.3836 N.am      7 UNK        -0.5000 
     40 C           0.2638  -18.8253  -45.6599 C.2       6 UNK         0.5000 
     41 O           0.6474  -19.9338  -45.2871 O.2       6 UNK        -0.5000 
     42 CA          1.2154  -17.9357  -46.4708 C.3       6 UNK         0.1400 
     43 CB          0.9224  -18.0766  -47.9650 C.3       6 UNK        -0.1800 
     44 N           1.1266  -16.5266  -46.1003 N.am      6 UNK        -0.5000 
     45 C           1.4778  -16.0232  -44.9112 C.2       5 UNK         0.5000 
     46 O           1.9301  -16.6980  -43.9887 O.2       5 UNK        -0.5000 
     47 CA          1.2332  -14.5206  -44.7012 C.3       5 UNK         0.1400 
     48 CB          2.3301  -13.6837  -45.3773 C.3       5 UNK        -0.1800 
     49 N          -0.0798  -14.1005  -45.1898 N.am      5 UNK        -0.5000 
     50 C          -1.2480  -14.5025  -44.6696 C.2       4 UNK         0.5000 
     51 O          -1.3453  -15.2797  -43.7201 O.2       4 UNK        -0.5000 
     52 CA         -2.5215  -13.9632  -45.3425 C.3       4 UNK         0.1400 
     53 CB         -2.8820  -12.5774  -44.7872 C.3       4 UNK        -0.1800 
     54 N          -2.3982  -13.8861  -46.7987 N.am      4 UNK        -0.5000 
     55 C          -2.3554  -14.9564  -47.6031 C.2       3 UNK         0.5000 
     56 O          -2.3992  -16.1207  -47.2030 O.2       3 UNK        -0.5000 
     57 CA         -2.2005  -14.6686  -49.1083 C.3       3 UNK         0.1400 
     58 CB         -3.4850  -14.0480  -49.6821 C.3       3 UNK        -0.1800 
     59 N          -1.0596  -13.8082  -49.4459 N.am      3 UNK        -0.5000 
     60 C           0.2107  -14.0065  -49.0683 C.2       2 UNK         0.5000 
     61 O           0.5724  -14.9252  -48.3312 O.2       2 UNK        -0.5000 
     62 CA          1.2520  -12.9937  -49.5670 C.3       2 UNK         0.1400 
     63 CB          1.0444  -11.6228  -48.8931 C.3       2 UNK        -0.1800 
     64 N           2.5776  -13.5150  -49.2454 N.am      2 UNK        -0.5000 
     65 C           3.7482  -13.0784  -49.7161 C.2       1 UNK         0.5000 
     66 O           3.8589  -12.1804  -50.5564 O.2       1 UNK        -0.5000 
     67 C           0.9737  -23.9721  -47.2550 C.2       11 UNK         0.5000 
     68 O          -0.1989  -23.6117  -47.1587 O.2       11 UNK        -0.5000 
     69 N           1.3500  -25.1491  -47.7730 N.am      12 UNK        -0.5000 
     70 CA          0.4518  -26.2752  -48.0659 C.3       12 UNK         0.1400 
     71 CB          1.2591  -27.4064  -48.7205 C.3       12 UNK        -0.1800 
     72 C          -0.7870  -25.9360  -48.9180 C.2       12 UNK         0.5000 
     73 O          -1.8777  -26.4274  -48.6267 O.2       12 UNK        -0.5000 
     74 N          -0.6029  -25.0776  -49.9290 N.am      13 UNK        -0.5000 
     75 CA         -1.6768  -24.6084  -50.8044 C.3       13 UNK         0.1400 
     76 CB         -1.0639  -24.0544  -52.0996 C.3       13 UNK        -0.1800 
     77 C          -2.5891  -23.5571  -50.1422 C.2       13 UNK         0.5000 
     78 O          -3.7593  -23.4721  -50.5090 O.2       13 UNK        -0.5000 
     79 N          -2.0483  -22.7750  -49.1967 N.am      14 UNK        -0.5000 
     80 CA         -2.7683  -21.7180  -48.4811 C.3       14 UNK         0.1400 
     81 CB         -1.8021  -20.5691  -48.1585 C.3       14 UNK        -0.1800 
     82 C          -3.4519  -22.2256  -47.1996 C.2       14 UNK         0.5000 
     83 O          -4.4249  -21.6245  -46.7465 O.2       14 UNK        -0.5000 
     84 N          -2.9358  -23.3254  -46.6386 N.am      15 UNK        -0.5000 
     85 CA         -3.5007  -24.0397  -45.4962 C.3       15 UNK         0.1400 
     86 CB         -2.4299  -24.9876  -44.9339 C.3       15 UNK        -0.1800 
     87 C          -4.7830  -24.8182  -45.8529 C.2       15 UNK         0.5000 
     88 O          -5.5607  -25.1466  -44.9559 O.2       15 UNK        -0.5000 
     89 N          -4.9975  -25.0888  -47.1480 N.am      16 UNK        -0.5000 
     90 CA         -6.1403  -25.8074  -47.7157 C.3       16 UNK         0.1400 
     91 CB         -5.7316  -26.3466  -49.0985 C.3       16 UNK        -0.1800 
     92 C          -7.4276  -24.9513  -47.7679 C.2       16 UNK         0.5000 
     93 O          -8.0574  -24.8430  -48.8224 O.2       16 UNK        -0.5000 
     94 N          -7.7934  -24.3610  -46.6216 N.am      17 UNK        -0.5000 
     95 CA         -8.9316  -23.4758  -46.3436 C.3       17 UNK         0.1400 
     96 CB        -10.2773  -24.1849  -46.5923 C.3       17 UNK        -0.1800 
     97 C          -8.8614  -22.1170  -47.0676 C.2       17 UNK         0.5000 
     98 O          -8.8644  -21.0777  -46.4065 O.2       17 UNK        -0.5000 
     99 N          -8.7958  -22.1454  -48.4018 N.am      18 UNK        -0.5000 
    100 CA        -8.5722  -20.9829  -49.2553 C.3       18 UNK         0.1400 
    101 CB        -9.1596  -21.2698  -50.6457 C.3       18 UNK        -0.1800 
    102 C         -7.0671  -20.6923  -49.3613 C.2       18 UNK         0.5000 
    103 O         -6.2625  -21.6256  -49.3352 O.2       18 UNK        -0.5000 
    104 N         -6.7109  -19.4130  -49.5316 N.am      19 UNK        -0.5000 
    105 CA        -5.3349  -18.9302  -49.6773 C.3       19 UNK         0.1400 
    106 CB        -5.2861  -17.4367  -49.3128 C.3       19 UNK        -0.1800 
    107 C         -4.7566  -19.2145  -51.0825 C.2       19 UNK         0.5000 
    108 O         -4.3648  -18.2833  -51.7874 O.2       19 UNK        -0.5000 
    109 N         -4.7355  -20.4958  -51.4755 N.am      20 UNK        -0.5000 
    110 CA        -4.3138  -21.0231  -52.7755 C.3       20 UNK         0.1400 
    111 CB        -2.7784  -20.9088  -52.9205 C.3       20 UNK        -0.1800 
    112 C         -5.1083  -20.3584  -53.9205 C.2       20 UNK         0.5000 
    113 O         -6.3374  -20.4487  -53.9344 O.2       20 UNK        -0.5000 
    114 N         -4.3996  -19.6714  -54.8212 N.am      21 UNK        -0.5000 
    115 CA        -4.9458  -18.7634  -55.8275 C.3       21 UNK         0.1400 
    116 CB        -4.6178  -19.3176  -57.2256 C.3       21 UNK        -0.1800 
    117 C         -4.3870  -17.3390  -55.6199 C.2       21 UNK         0.5000 
    118 O         -4.3748  -16.5469  -56.5636 O.2       21 UNK        -0.5000 
    119 N         -3.9106  -17.0387  -54.4026 N.am      22 UNK        -0.5000 
    120 CA        -3.2696  -15.7651  -54.0382 C.3       22 UNK         0.1400 
    121 C         -4.2664  -14.6044  -53.7521 C.2       22 UNK         0.5000 
    122 N         -5.5647  -14.8533  -53.6306 N.am      22 UNK        -0.7600 
    123 O         -3.8532  -13.4532  -53.6459 O.2       22 UNK        -0.5000 
    124 C124       -2.2811  -15.9363  -52.8558 C.3       23 UNK        -0.0398 
    125 S125       -0.9863  -17.1869  -53.1668 S.3       23 UNK        -0.2404 
    126 C126       -0.7727  -17.8779  -51.4954 C.3       23 UNK        -0.0205 
    127 H127        7.7932  -10.8677  -49.3261 H         1 UNK         0.0600 
    128 H128        9.1080  -11.9272  -48.8095 H         1 UNK         0.0600 
    129 H129        8.2043  -10.9921  -47.6132 H         1 UNK         0.0600 
    130 H130        5.9032  -11.9858  -49.8211 H         1 UNK         0.3000 
    131 H131        4.8078  -13.9696  -48.0841 H         1 UNK         0.0600 
    132 H132        5.4475  -14.8799  -50.9462 H         1 UNK         0.0800 
    133 H133        6.4428  -15.3197  -49.5895 H         1 UNK         0.0800 
    134 H134        5.1101  -17.8243  -51.2818 H         1 UNK         0.0800 
    135 H135        4.0756  -16.5298  -51.8423 H         1 UNK         0.0800 
    136 H136        1.6104  -16.6171  -51.4830 H         1 UNK         0.1150 
    137 H137       -0.1216  -20.5120  -51.0602 H         1 UNK         0.1150 
    138 H138        4.1172  -19.9808  -50.6308 H         1 UNK         0.1150 
    139 H139        1.1843  -22.3595  -50.3250 H         1 UNK         0.0800 
    140 H140        2.5293  -22.3883  -51.4393 H         1 UNK         0.0800 
    141 H141        1.3721  -21.3810  -47.9864 H         1 UNK         0.0800 
    142 H142        2.8763  -21.0589  -47.1749 H         1 UNK         0.0800 
    143 H143        3.0054  -23.5936  -46.6195 H         1 UNK         0.0600 
    144 H144        1.3340  -21.6196  -45.3272 H         1 UNK         0.3000 
    145 H145       -0.1864  -22.5524  -43.4067 H         1 UNK         0.0600 
    146 H146        0.2724  -23.1867  -41.0369 H         1 UNK         0.0600 
    147 H147        0.2620  -24.5873  -42.0966 H         1 UNK         0.0600 
    148 H148        1.7915  -23.9394  -41.5221 H         1 UNK         0.0600 
    149 H149        0.7746  -20.6466  -42.9116 H         1 UNK         0.3000 
    150 H150        3.5106  -19.5711  -41.1779 H         1 UNK         0.0600 
    151 H151        4.8039  -19.7339  -43.3074 H         1 UNK         0.0600 
    152 H152        4.1883  -18.1058  -43.0739 H         1 UNK         0.0600 
    153 H153        3.3999  -19.1913  -44.2187 H         1 UNK         0.0600 
    154 H154        1.6389  -18.1652  -42.8437 H         1 UNK         0.3000 
    155 H155       -1.0752  -18.2036  -40.4968 H         1 UNK         0.0600 
    156 H156        0.4160  -16.2925  -39.8835 H         1 UNK         0.0600 
    157 H157       -0.8996  -15.7750  -40.9270 H         1 UNK         0.0600 
    158 H158        0.7219  -15.9736  -41.5869 H         1 UNK         0.0600 
    159 H159       -0.8742  -17.1059  -43.1127 H         1 UNK         0.3000 
    160 H160       -2.0563  -20.0054  -44.8917 H         1 UNK         0.0600 
    161 H161       -3.6437  -18.2872  -45.6881 H         1 UNK         0.0600 
    162 H162       -3.2269  -17.2273  -44.3432 H         1 UNK         0.0600 
    163 H163       -4.0431  -18.7579  -44.0432 H         1 UNK         0.0600 
    164 H164       -1.2000  -17.4168  -45.7641 H         1 UNK         0.3000 
    165 H165        2.2370  -18.2732  -46.2860 H         1 UNK         0.0600 
    166 H166        1.6249  -17.4854  -48.5494 H         1 UNK         0.0600 
    167 H167        1.0194  -19.1110  -48.2888 H         1 UNK         0.0600 
    168 H168       -0.0852  -17.7423  -48.2161 H         1 UNK         0.0600 
    169 H169        0.7831  -15.8967  -46.8231 H         1 UNK         0.3000 
    170 H170        1.2704  -14.3249  -43.6275 H         1 UNK         0.0600 
    171 H171        2.1970  -12.6209  -45.1754 H         1 UNK         0.0600 
    172 H172        3.3172  -13.9639  -45.0074 H         1 UNK         0.0600 
    173 H173        2.3349  -13.8215  -46.4575 H         1 UNK         0.0600 
    174 H174       -0.0954  -13.4972  -45.9974 H         1 UNK         0.3000 
    175 H175       -3.3383  -14.6480  -45.1036 H         1 UNK         0.0600 
    176 H176       -2.9965  -12.6099  -43.7028 H         1 UNK         0.0600 
    177 H177       -2.1132  -11.8378  -45.0142 H         1 UNK         0.0600 
    178 H178       -3.8249  -12.2200  -45.2015 H         1 UNK         0.0600 
    179 H179       -2.3462  -12.9652  -47.2085 H         1 UNK         0.3000 
    180 H180       -2.0469  -15.6288  -49.5976 H         1 UNK         0.0600 
    181 H181       -4.3612  -14.6470  -49.4337 H         1 UNK         0.0600 
    182 H182       -3.6580  -13.0441  -49.2930 H         1 UNK         0.0600 
    183 H183       -3.4396  -13.9781  -50.7684 H         1 UNK         0.0600 
    184 H184       -1.2661  -13.0150  -50.0354 H         1 UNK         0.3000 
    185 H185        1.1551  -12.9002  -50.6504 H         1 UNK         0.0600 
    186 H186        0.0532  -11.2211  -49.1057 H         1 UNK         0.0600 
    187 H187        1.1471  -11.6897  -47.8093 H         1 UNK         0.0600 
    188 H188        1.7667  -10.8890  -49.2503 H         1 UNK         0.0600 
    189 H189        2.5475  -14.3152  -48.6241 H         1 UNK         0.3000 
    190 H190        2.3377  -25.3505  -47.8341 H         1 UNK         0.3000 
    191 H191        0.0832  -26.6390  -47.1046 H         1 UNK         0.0600 
    192 H192        2.0589  -27.7517  -48.0652 H         1 UNK         0.0600 
    193 H193        1.7094  -27.0868  -49.6611 H         1 UNK         0.0600 
    194 H194        0.6245  -28.2673  -48.9358 H         1 UNK         0.0600 
    195 H195        0.3268  -24.7260  -50.1021 H         1 UNK         0.3000 
    196 H196       -2.3024  -25.4635  -51.0706 H         1 UNK         0.0600 
    197 H197       -1.8445  -23.7794  -52.8096 H         1 UNK         0.0600 
    198 H198       -0.4582  -23.1667  -51.9169 H         1 UNK         0.0600 
    199 H199       -0.4333  -24.7975  -52.5880 H         1 UNK         0.0600 
    200 H200       -1.1155  -22.9843  -48.8637 H         1 UNK         0.3000 
    201 H201       -3.5493  -21.3301  -49.1309 H         1 UNK         0.0600 
    202 H202       -2.3169  -19.7582  -47.6414 H         1 UNK         0.0600 
    203 H203       -0.9864  -20.9021  -47.5167 H         1 UNK         0.0600 
    204 H204       -1.3712  -20.1476  -49.0649 H         1 UNK         0.0600 
    205 H205       -2.0554  -23.6784  -47.0035 H         1 UNK         0.3000 
    206 H206       -3.7571  -23.3111  -44.7243 H         1 UNK         0.0600 
    207 H207       -1.5382  -24.4395  -44.6294 H         1 UNK         0.0600 
    208 H208       -2.7992  -25.5213  -44.0574 H         1 UNK         0.0600 
    209 H209       -2.1273  -25.7324  -45.6713 H         1 UNK         0.0600 
    210 H210       -4.3164  -24.7498  -47.8120 H         1 UNK         0.3000 
    211 H211       -6.3565  -26.6662  -47.0771 H         1 UNK         0.0600 
    212 H212       -6.5243  -26.9570  -49.5327 H         1 UNK         0.0600 
    213 H213       -4.8411  -26.9722  -49.0317 H         1 UNK         0.0600 
    214 H214       -5.5190  -25.5363  -49.7971 H         1 UNK         0.0600 
    215 H215       -7.1735  -24.5181  -45.8319 H         1 UNK         0.3000 
    216 H216       -8.8759  -23.2611  -45.2752 H         1 UNK         0.0600 
    217 H217      -11.1112  -23.5468  -46.2975 H         1 UNK         0.0600 
    218 H218      -10.3504  -25.1039  -46.0109 H         1 UNK         0.0600 
    219 H219      -10.4212  -24.4412  -47.6421 H         1 UNK         0.0600 
    220 H220       -8.6843  -23.0577  -48.8364 H         1 UNK         0.3000 
    221 H221       -9.0791  -20.1135  -48.8311 H         1 UNK         0.0600 
    222 H222       -8.6838  -22.1338  -51.1121 H         1 UNK         0.0600 
    223 H223      -10.2302  -21.4671  -50.5883 H         1 UNK         0.0600 
    224 H224       -9.0201  -20.4188  -51.3137 H         1 UNK         0.0600 
    225 H225       -7.4337  -18.7103  -49.5890 H         1 UNK         0.3000 
    226 H226       -4.7102  -19.4486  -48.9501 H         1 UNK         0.0600 
    227 H227       -4.2612  -17.0671  -49.3548 H         1 UNK         0.0600 
    228 H228       -5.8852  -16.8321  -49.9949 H         1 UNK         0.0600 
    229 H229       -5.6478  -17.2635  -48.2991 H         1 UNK         0.0600 
    230 H230       -5.1250  -21.1827  -50.8341 H         1 UNK         0.3000 
    231 H231       -4.5763  -22.0818  -52.7831 H         1 UNK         0.0600 
    232 H232       -2.2723  -21.3355  -52.0564 H         1 UNK         0.0600 
    233 H233       -2.4458  -19.8756  -53.0076 H         1 UNK         0.0600 
    234 H234       -2.4254  -21.4471  -53.8007 H         1 UNK         0.0600 
    235 H235       -3.3949  -19.6462  -54.7146 H         1 UNK         0.3000 
    236 H236       -6.0307  -18.6897  -55.7318 H         1 UNK         0.0600 
    237 H237       -5.0136  -20.3255  -57.3510 H         1 UNK         0.0600 
    238 H238       -5.0578  -18.6990  -58.0087 H         1 UNK         0.0600 
    239 H239       -3.5419  -19.3559  -57.3997 H         1 UNK         0.0600 
    240 H240       -4.0104  -17.7046  -53.6421 H         1 UNK         0.3000 
    241 H241       -2.6804  -15.4386  -54.8973 H         1 UNK         0.0600 
    242 H242       -6.2026  -14.0939  -53.4518 H         1 UNK         0.3800 
    243 H243       -5.9122  -15.7954  -53.7082 H         1 UNK         0.3800 
    244 H244       -1.7763  -14.9931  -52.6393 H         1 UNK         0.0800 
    245 H245       -2.8291  -16.2002  -51.9508 H         1 UNK         0.0800 
    246 H246       -1.5683  -18.5916  -51.2811 H         1 UNK         0.0800 
    247 H247       -0.8679  -17.0817  -50.7597 H         1 UNK         0.0800 
@<TRIPOS>BOND
     1    1    2 1    
     2    1  127 1    
     3    1  128 1    
     4    1  129 1    
     5    2    3 2    
     6    2    4 am   BACKBONE|DICT|INTERRES
     7    4    5 1    
     8    4  130 1    
     9    5    6 1    
    10    5   65 1    
    11    5  131 1    
    12    6    7 1    
    13    6  132 1    
    14    6  133 1    
    15    7    8 1    
    16    8    9 1    
    17    8  134 1    
    18    8  135 1    
    19    9   10 ar   
    20    9   14 ar   
    21   10   11 ar   
    22   10  136 1    
    23   11   12 ar   
    24   11  126 1    
    25   12   13 ar   
    26   12  137 1    
    27   13   14 ar   
    28   13   15 1    
    29   14  138 1    
    30   15   16 1    
    31   15  139 1    
    32   15  140 1    
    33   16   17 1    
    34   17   18 1    
    35   17  141 1    
    36   17  142 1    
    37   18   19 1    
    38   18   67 1    
    39   18  143 1    
    40   19   20 am   BACKBONE|DICT|INTERRES
    41   19  144 1    
    42   20   21 2    
    43   20   22 1    
    44   22   23 1    
    45   22   24 1    
    46   22  145 1    
    47   23  146 1    
    48   23  147 1    
    49   23  148 1    
    50   24   25 am   BACKBONE|DICT|INTERRES
    51   24  149 1    
    52   25   26 2    
    53   25   27 1    
    54   27   28 1    
    55   27   29 1    
    56   27  150 1    
    57   28  151 1    
    58   28  152 1    
    59   28  153 1    
    60   29   30 am   BACKBONE|DICT|INTERRES
    61   29  154 1    
    62   30   31 2    
    63   30   32 1    
    64   32   33 1    
    65   32   34 1    
    66   32  155 1    
    67   33  156 1    
    68   33  157 1    
    69   33  158 1    
    70   34   35 am   BACKBONE|DICT|INTERRES
    71   34  159 1    
    72   35   36 2    
    73   35   37 1    
    74   37   38 1    
    75   37   39 1    
    76   37  160 1    
    77   38  161 1    
    78   38  162 1    
    79   38  163 1    
    80   39   40 am   BACKBONE|DICT|INTERRES
    81   39  164 1    
    82   40   41 2    
    83   40   42 1    
    84   42   43 1    
    85   42   44 1    
    86   42  165 1    
    87   43  166 1    
    88   43  167 1    
    89   43  168 1    
    90   44   45 am   BACKBONE|DICT|INTERRES
    91   44  169 1    
    92   45   46 2    
    93   45   47 1    
    94   47   48 1    
    95   47   49 1    
    96   47  170 1    
    97   48  171 1    
    98   48  172 1    
    99   48  173 1    
   100   49   50 am   BACKBONE|DICT|INTERRES
   101   49  174 1    
   102   50   51 2    
   103   50   52 1    
   104   52   53 1    
   105   52   54 1    
   106   52  175 1    
   107   53  176 1    
   108   53  177 1    
   109   53  178 1    
   110   54   55 am   BACKBONE|DICT|INTERRES
   111   54  179 1    
   112   55   56 2    
   113   55   57 1    
   114   57   58 1    
   115   57   59 1    
   116   57  180 1    
   117   58  181 1    
   118   58  182 1    
   119   58  183 1    
   120   59   60 am   BACKBONE|DICT|INTERRES
   121   59  184 1    
   122   60   61 2    
   123   60   62 1    
   124   62   63 1    
   125   62   64 1    
   126   62  185 1    
   127   63  186 1    
   128   63  187 1    
   129   63  188 1    
   130   64   65 am   BACKBONE|DICT|INTERRES
   131   64  189 1    
   132   65   66 2    
   133   67   68 2    
   134   67   69 am   BACKBONE|DICT|INTERRES
   135   69   70 1    
   136   69  190 1    
   137   70   71 1    
   138   70   72 1    
   139   70  191 1    
   140   71  192 1    
   141   71  193 1    
   142   71  194 1    
   143   72   73 2    
   144   72   74 am   BACKBONE|DICT|INTERRES
   145   74   75 1    
   146   74  195 1    
   147   75   76 1    
   148   75   77 1    
   149   75  196 1    
   150   76  197 1    
   151   76  198 1    
   152   76  199 1    
   153   77   78 2    
   154   77   79 am   BACKBONE|DICT|INTERRES
   155   79   80 1    
   156   79  200 1    
   157   80   81 1    
   158   80   82 1    
   159   80  201 1    
   160   81  202 1    
   161   81  203 1    
   162   81  204 1    
   163   82   83 2    
   164   82   84 am   BACKBONE|DICT|INTERRES
   165   84   85 1    
   166   84  205 1    
   167   85   86 1    
   168   85   87 1    
   169   85  206 1    
   170   86  207 1    
   171   86  208 1    
   172   86  209 1    
   173   87   88 2    
   174   87   89 am   BACKBONE|DICT|INTERRES
   175   89   90 1    
   176   89  210 1    
   177   90   91 1    
   178   90   92 1    
   179   90  211 1    
   180   91  212 1    
   181   91  213 1    
   182   91  214 1    
   183   92   93 2    
   184   92   94 am   BACKBONE|DICT|INTERRES
   185   94   95 1    
   186   94  215 1    
   187   95   96 1    
   188   95   97 1    
   189   95  216 1    
   190   96  217 1    
   191   96  218 1    
   192   96  219 1    
   193   97   98 2    
   194   97   99 am   BACKBONE|DICT|INTERRES
   195   99  100 1    
   196   99  220 1    
   197  100  101 1    
   198  100  102 1    
   199  100  221 1    
   200  101  222 1    
   201  101  223 1    
   202  101  224 1    
   203  102  103 2    
   204  102  104 am   BACKBONE|DICT|INTERRES
   205  104  105 1    
   206  104  225 1    
   207  105  106 1    
   208  105  107 1    
   209  105  226 1    
   210  106  227 1    
   211  106  228 1    
   212  106  229 1    
   213  107  108 2    
   214  107  109 am   BACKBONE|DICT|INTERRES
   215  109  110 1    
   216  109  230 1    
   217  110  111 1    
   218  110  112 1    
   219  110  231 1    
   220  111  232 1    
   221  111  233 1    
   222  111  234 1    
   223  112  113 2    
   224  112  114 am   BACKBONE|DICT|INTERRES
   225  114  115 1    
   226  114  235 1    
   227  115  116 1    
   228  115  117 1    
   229  115  236 1    
   230  116  237 1    
   231  116  238 1    
   232  116  239 1    
   233  117  118 2    
   234  117  119 am   BACKBONE|DICT|INTERRES
   235  119  120 1    
   236  119  240 1    
   237  120  121 1    
   238  120  124 1    
   239  120  241 1    
   240  121  122 am   BACKBONE|DICT|INTERRES
   241  121  123 2    
   242  122  242 1    
   243  122  243 1    
   244  124  125 1    
   245  124  244 1    
   246  124  245 1    
   247  125  126 1    
   248  126  246 1    
   249  126  247 1    
@<TRIPOS>SUBSTRUCTURE
     1 UNK         1 GROUP             0       ****    0 ROOT    
