@<TRIPOS>MOLECULE
3R540
247   249    1
SMALL
USER_CHARGES


@<TRIPOS>ATOM
      1 CA         -3.5687   -9.7614  -47.5068 C.3       0 UNK        -0.1800 
      2 C          -2.4233  -10.7445  -47.3133 C.2       0 UNK         0.5000 
      3 O          -1.2718  -10.4078  -47.5902 O.2       0 UNK        -0.5000 
      4 N          -2.7305  -11.9552  -46.8326 N.am      1 UNK        -0.5000 
      5 CA         -1.7755  -13.0401  -46.5746 C.3       1 UNK         0.1400 
      6 C6         -2.4401  -14.4384  -46.6732 C.3       23 UNK        -0.0398 
      7 S7         -3.2831  -14.6965  -48.2724 S.3       23 UNK        -0.2404 
      8 C8         -3.1944  -16.5101  -48.4538 C.3       23 UNK        -0.0205 
      9 C9         -1.8981  -17.0760  -49.0384 C.ar      23 UNK        -0.0193 
     10 C10        -0.8766  -16.2801  -49.5755 C.ar      23 UNK        -0.1150 
     11 C11         0.2605  -16.8649  -50.1426 C.ar      23 UNK        -0.0193 
     12 C12         0.3927  -18.2551  -50.1450 C.ar      23 UNK        -0.1150 
     13 C13        -0.6280  -19.0635  -49.6411 C.ar      23 UNK        -0.0193 
     14 C14        -1.7632  -18.4654  -49.0877 C.ar      23 UNK        -0.1150 
     15 C15        -0.5333  -20.5773  -49.7564 C.3       23 UNK        -0.0205 
     16 S16        -0.1128  -21.3676  -48.1766 S.3       23 UNK        -0.2404 
     17 C17        -1.7256  -21.3470  -47.3244 C.3       23 UNK        -0.0398 
     18 CA         -1.9326  -22.6009  -46.4517 C.3       11 UNK         0.1400 
     19 N          -0.9118  -22.7334  -45.4067 N.am      11 UNK        -0.5000 
     20 C          -0.5533  -23.8713  -44.7982 C.2       10 UNK         0.5000 
     21 O          -1.1082  -24.9533  -45.0016 O.2       10 UNK        -0.5000 
     22 CA          0.5767  -23.7639  -43.7645 C.3       10 UNK         0.1400 
     23 CB          1.9423  -23.7434  -44.4680 C.3       10 UNK        -0.1800 
     24 N           0.4243  -22.5494  -42.9626 N.am      10 UNK        -0.5000 
     25 C          -0.2427  -22.4815  -41.8025 C.2       9 UNK         0.5000 
     26 O          -0.7381  -23.4587  -41.2405 O.2       9 UNK        -0.5000 
     27 CA         -0.4011  -21.0835  -41.1693 C.3       9 UNK         0.1400 
     28 CB          0.8097  -20.7522  -40.2838 C.3       9 UNK        -0.1800 
     29 N          -0.5765  -20.0187  -42.1592 N.am      9 UNK        -0.5000 
     30 C          -1.6430  -19.8942  -42.9614 C.2       8 UNK         0.5000 
     31 O          -2.6299  -20.6260  -42.8969 O.2       8 UNK        -0.5000 
     32 CA         -1.6000  -18.7884  -44.0366 C.3       8 UNK         0.1400 
     33 CB         -2.3426  -17.5357  -43.5479 C.3       8 UNK        -0.1800 
     34 N          -0.2641  -18.3887  -44.4939 N.am      8 UNK        -0.5000 
     35 C           0.7237  -19.1811  -44.9387 C.2       7 UNK         0.5000 
     36 O           0.6619  -20.4103  -44.9368 O.2       7 UNK        -0.5000 
     37 CA          1.9992  -18.4919  -45.4632 C.3       7 UNK         0.1400 
     38 CB          2.1681  -18.7384  -46.9676 C.3       7 UNK        -0.1800 
     39 N           1.9969  -17.0472  -45.2346 N.am      7 UNK        -0.5000 
     40 C           2.3591  -16.4363  -44.1031 C.2       6 UNK         0.5000 
     41 O           2.7710  -17.0479  -43.1160 O.2       6 UNK        -0.5000 
     42 CA          2.2182  -14.8953  -44.0669 C.3       6 UNK         0.1400 
     43 CB          2.9009  -14.2865  -42.8295 C.3       6 UNK        -0.1800 
     44 N           2.7064  -14.2102  -45.2736 N.am      6 UNK        -0.5000 
     45 C           2.1184  -14.2133  -46.4813 C.2       5 UNK         0.5000 
     46 O           1.0874  -14.8439  -46.7176 O.2       5 UNK        -0.5000 
     47 CA          2.7680  -13.3939  -47.6143 C.3       5 UNK         0.1400 
     48 CB          1.7172  -12.6006  -48.4115 C.3       5 UNK        -0.1800 
     49 N           3.7753  -12.4571  -47.1184 N.am      5 UNK        -0.5000 
     50 C           5.1016  -12.6354  -47.1821 C.2       4 UNK         0.5000 
     51 O           5.6323  -13.6360  -47.6650 O.2       4 UNK        -0.5000 
     52 CA          5.9930  -11.5145  -46.6053 C.3       4 UNK         0.1400 
     53 CB          6.5397  -10.6295  -47.7359 C.3       4 UNK        -0.1800 
     54 N           5.3100  -10.6633  -45.6276 N.am      4 UNK        -0.5000 
     55 C           4.9002  -11.0683  -44.4190 C.2       3 UNK         0.5000 
     56 O           5.0983  -12.2031  -43.9845 O.2       3 UNK        -0.5000 
     57 CA          4.0923  -10.0685  -43.5650 C.3       3 UNK         0.1400 
     58 CB          4.1503   -8.6087  -44.0702 C.3       3 UNK        -0.1800 
     59 N           2.7004  -10.5083  -43.4125 N.am      3 UNK        -0.5000 
     60 C           1.8224  -10.7478  -44.3972 C.2       2 UNK         0.5000 
     61 O           2.0688  -10.5754  -45.5943 O.2       2 UNK        -0.5000 
     62 CA          0.4458  -11.2771  -43.9654 C.3       2 UNK         0.1400 
     63 CB         -0.3757  -10.1862  -43.2577 C.3       2 UNK        -0.1800 
     64 N          -0.2891  -11.7333  -45.1393 N.am      2 UNK        -0.5000 
     65 C          -1.0795  -12.8081  -45.2147 C.2       1 UNK         0.5000 
     66 O          -1.2960  -13.5627  -44.2648 O.2       1 UNK        -0.5000 
     67 C          -3.3838  -22.7450  -45.9438 C.2       11 UNK         0.5000 
     68 O          -4.3196  -22.5920  -46.7254 O.2       11 UNK        -0.5000 
     69 N          -3.5594  -23.1286  -44.6733 N.am      12 UNK        -0.5000 
     70 CA         -4.7785  -23.7535  -44.1642 C.3       12 UNK         0.1400 
     71 CB         -4.6612  -23.9002  -42.6399 C.3       12 UNK        -0.1800 
     72 C          -5.0433  -25.1248  -44.8269 C.2       12 UNK         0.5000 
     73 O          -6.2024  -25.5237  -44.9387 O.2       12 UNK        -0.5000 
     74 N          -3.9724  -25.7990  -45.2747 N.am      13 UNK        -0.5000 
     75 CA         -4.0158  -27.0391  -46.0463 C.3       13 UNK         0.1400 
     76 CB         -3.4159  -28.1792  -45.2091 C.3       13 UNK        -0.1800 
     77 C          -3.2673  -26.8958  -47.3830 C.2       13 UNK         0.5000 
     78 O          -3.7692  -27.3699  -48.4039 O.2       13 UNK        -0.5000 
     79 N          -2.0909  -26.2494  -47.3719 N.am      14 UNK        -0.5000 
     80 CA         -1.2339  -26.0739  -48.5490 C.3       14 UNK         0.1400 
     81 CB          0.1340  -25.5193  -48.1177 C.3       14 UNK        -0.1800 
     82 C          -1.8702  -25.1919  -49.6423 C.2       14 UNK         0.5000 
     83 O          -2.7304  -24.3559  -49.3507 O.2       14 UNK        -0.5000 
     84 N          -1.4370  -25.4204  -50.8910 N.am      15 UNK        -0.5000 
     85 CA         -1.9306  -24.7896  -52.1228 C.3       15 UNK         0.1400 
     86 CB         -1.5339  -23.3005  -52.1681 C.3       15 UNK        -0.1800 
     87 C          -3.4444  -25.0099  -52.3306 C.2       15 UNK         0.5000 
     88 O          -4.1504  -24.0882  -52.7433 O.2       15 UNK        -0.5000 
     89 N          -3.9092  -26.2253  -51.9976 N.am      16 UNK        -0.5000 
     90 CA         -5.3090  -26.6639  -51.9821 C.3       16 UNK         0.1400 
     91 CB         -5.8615  -26.7608  -53.4199 C.3       16 UNK        -0.1800 
     92 C          -6.1746  -25.7920  -51.0482 C.2       16 UNK         0.5000 
     93 O          -7.2227  -25.2937  -51.4584 O.2       16 UNK        -0.5000 
     94 N          -5.6811  -25.5906  -49.8171 N.am      17 UNK        -0.5000 
     95 CA         -6.2157  -24.6968  -48.7837 C.3       17 UNK         0.1400 
     96 CB         -7.5388  -25.2483  -48.2158 C.3       17 UNK        -0.1800 
     97 C          -6.3183  -23.2375  -49.2770 C.2       17 UNK         0.5000 
     98 O          -7.3771  -22.6147  -49.1756 O.2       17 UNK        -0.5000 
     99 N          -5.2055  -22.7475  -49.8415 N.am      18 UNK        -0.5000 
    100 CA        -4.9965  -21.4138  -50.4144 C.3       18 UNK         0.1400 
    101 CB        -5.1965  -20.3100  -49.3537 C.3       18 UNK        -0.1800 
    102 C         -5.8005  -21.1126  -51.6983 C.2       18 UNK         0.5000 
    103 O         -5.7934  -19.9656  -52.1468 O.2       18 UNK        -0.5000 
    104 N         -6.4528  -22.1156  -52.3025 N.am      19 UNK        -0.5000 
    105 CA        -7.1997  -21.9632  -53.5551 C.3       19 UNK         0.1400 
    106 CB        -8.0817  -23.1976  -53.7857 C.3       19 UNK        -0.1800 
    107 C         -6.2902  -21.7123  -54.7741 C.2       19 UNK         0.5000 
    108 O         -6.7119  -21.0362  -55.7131 O.2       19 UNK        -0.5000 
    109 N         -5.0618  -22.2421  -54.7287 N.am      20 UNK        -0.5000 
    110 CA        -4.0316  -22.0976  -55.7571 C.3       20 UNK         0.1400 
    111 CB        -3.5297  -23.5017  -56.1411 C.3       20 UNK        -0.1800 
    112 C         -2.8786  -21.1856  -55.2873 C.2       20 UNK         0.5000 
    113 O         -1.7699  -21.2946  -55.8132 O.2       20 UNK        -0.5000 
    114 N         -3.1347  -20.3233  -54.2920 N.am      21 UNK        -0.5000 
    115 CA        -2.1538  -19.4008  -53.7162 C.3       21 UNK         0.1400 
    116 CB        -2.7618  -18.7466  -52.4666 C.3       21 UNK        -0.1800 
    117 C         -1.6935  -18.3018  -54.7068 C.2       21 UNK         0.5000 
    118 O         -2.4849  -17.9000  -55.5615 O.2       21 UNK        -0.5000 
    119 N         -0.4755  -17.7541  -54.5798 N.am      22 UNK        -0.5000 
    120 CA         0.6205  -18.2147  -53.7114 C.3       22 UNK         0.1400 
    121 C          1.3473  -19.4434  -54.3240 C.2       22 UNK         0.5000 
    122 N          1.7204  -20.4233  -53.5125 N.am      22 UNK        -0.7600 
    123 O          1.6104  -19.4965  -55.5228 O.2       22 UNK        -0.5000 
    124 C124        1.6437  -17.0912  -53.4035 C.3       23 UNK        -0.0398 
    125 S125        0.9257  -15.6507  -52.5369 S.3       23 UNK        -0.2404 
    126 C126        1.3248  -15.9931  -50.7892 C.3       23 UNK        -0.0205 
    127 H127       -4.5284  -10.1962  -47.2264 H         1 UNK         0.0600 
    128 H128       -3.6267   -9.4545  -48.5511 H         1 UNK         0.0600 
    129 H129       -3.4066   -8.8724  -46.8972 H         1 UNK         0.0600 
    130 H130       -3.6934  -12.1685  -46.6153 H         1 UNK         0.3000 
    131 H131       -0.9992  -13.0065  -47.3407 H         1 UNK         0.0600 
    132 H132       -3.1736  -14.5800  -45.8776 H         1 UNK         0.0800 
    133 H133       -1.6859  -15.2171  -46.5433 H         1 UNK         0.0800 
    134 H134       -3.3881  -16.9718  -47.4842 H         1 UNK         0.0800 
    135 H135       -4.0139  -16.8154  -49.1059 H         1 UNK         0.0800 
    136 H136       -0.9646  -15.2041  -49.5841 H         1 UNK         0.1150 
    137 H137        1.2743  -18.7070  -50.5760 H         1 UNK         0.1150 
    138 H138       -2.5642  -19.0832  -48.7130 H         1 UNK         0.1150 
    139 H139       -1.4752  -20.9738  -50.1324 H         1 UNK         0.0800 
    140 H140        0.2237  -20.8548  -50.4903 H         1 UNK         0.0800 
    141 H141       -2.5061  -21.3005  -48.0831 H         1 UNK         0.0800 
    142 H142       -1.8020  -20.4367  -46.7328 H         1 UNK         0.0800 
    143 H143       -1.8095  -23.4537  -47.1146 H         1 UNK         0.0600 
    144 H144       -0.3755  -21.8913  -45.2094 H         1 UNK         0.3000 
    145 H145        0.5370  -24.6467  -43.1230 H         1 UNK         0.0600 
    146 H146        2.0448  -22.8828  -45.1307 H         1 UNK         0.0600 
    147 H147        2.7564  -23.7066  -43.7440 H         1 UNK         0.0600 
    148 H148        2.0832  -24.6409  -45.0718 H         1 UNK         0.0600 
    149 H149        0.7398  -21.6871  -43.3936 H         1 UNK         0.3000 
    150 H150       -1.2907  -21.1060  -40.5362 H         1 UNK         0.0600 
    151 H151        0.9565  -21.5178  -39.5208 H         1 UNK         0.0600 
    152 H152        0.6723  -19.8022  -39.7671 H         1 UNK         0.0600 
    153 H153        1.7296  -20.6882  -40.8664 H         1 UNK         0.0600 
    154 H154        0.1916  -19.3749  -42.2798 H         1 UNK         0.3000 
    155 H155       -2.1365  -19.1715  -44.9042 H         1 UNK         0.0600 
    156 H156       -3.3552  -17.7806  -43.2240 H         1 UNK         0.0600 
    157 H157       -2.4288  -16.7917  -44.3403 H         1 UNK         0.0600 
    158 H158       -1.8314  -17.0695  -42.7046 H         1 UNK         0.0600 
    159 H159       -0.0970  -17.3949  -44.5359 H         1 UNK         0.3000 
    160 H160        2.8510  -18.9377  -44.9457 H         1 UNK         0.0600 
    161 H161        3.0698  -18.2606  -47.3508 H         1 UNK         0.0600 
    162 H162        1.3178  -18.3493  -47.5270 H         1 UNK         0.0600 
    163 H163        2.2490  -19.8040  -47.1840 H         1 UNK         0.0600 
    164 H164        1.6385  -16.4620  -45.9857 H         1 UNK         0.3000 
    165 H165        1.1502  -14.6909  -43.9799 H         1 UNK         0.0600 
    166 H166        3.9749  -14.4761  -42.8321 H         1 UNK         0.0600 
    167 H167        2.7535  -13.2101  -42.7795 H         1 UNK         0.0600 
    168 H168        2.4948  -14.7051  -41.9078 H         1 UNK         0.0600 
    169 H169        3.5676  -13.6909  -45.1674 H         1 UNK         0.3000 
    170 H170        3.2247  -14.1143  -48.2956 H         1 UNK         0.0600 
    171 H171        1.2193  -11.8546  -47.7926 H         1 UNK         0.0600 
    172 H172        2.1749  -12.0810  -49.2532 H         1 UNK         0.0600 
    173 H173        0.9448  -13.2528  -48.8190 H         1 UNK         0.0600 
    174 H174        3.4109  -11.6215  -46.6697 H         1 UNK         0.3000 
    175 H175        6.8383  -11.9932  -46.1065 H         1 UNK         0.0600 
    176 H176        5.7383  -10.1100  -48.2629 H         1 UNK         0.0600 
    177 H177        7.2314   -9.8797  -47.3513 H         1 UNK         0.0600 
    178 H178        7.0838  -11.2248  -48.4705 H         1 UNK         0.0600 
    179 H179        5.0814   -9.7255  -45.9239 H         1 UNK         0.3000 
    180 H180        4.5385  -10.0898  -42.5696 H         1 UNK         0.0600 
    181 H181        3.6894   -8.4865  -45.0507 H         1 UNK         0.0600 
    182 H182        5.1806   -8.2575  -44.1393 H         1 UNK         0.0600 
    183 H183        3.6320   -7.9415  -43.3814 H         1 UNK         0.0600 
    184 H184        2.4145  -10.6940  -42.4615 H         1 UNK         0.3000 
    185 H185        0.6068  -12.1119  -43.2808 H         1 UNK         0.0600 
    186 H186       -1.3510  -10.5654  -42.9517 H         1 UNK         0.0600 
    187 H187        0.1280   -9.8292  -42.3589 H         1 UNK         0.0600 
    188 H188       -0.5413   -9.3255  -43.9072 H         1 UNK         0.0600 
    189 H189       -0.1598  -11.1668  -45.9726 H         1 UNK         0.3000 
    190 H190       -2.7468  -23.1743  -44.0764 H         1 UNK         0.3000 
    191 H191       -5.6232  -23.0990  -44.3890 H         1 UNK         0.0600 
    192 H192       -3.8210  -24.5374  -42.3600 H         1 UNK         0.0600 
    193 H193       -4.5191  -22.9307  -42.1615 H         1 UNK         0.0600 
    194 H194       -5.5652  -24.3422  -42.2193 H         1 UNK         0.0600 
    195 H195       -3.0528  -25.3986  -45.1235 H         1 UNK         0.3000 
    196 H196       -5.0484  -27.3010  -46.2869 H         1 UNK         0.0600 
    197 H197       -3.9892  -28.3376  -44.2956 H         1 UNK         0.0600 
    198 H198       -2.3839  -27.9704  -44.9240 H         1 UNK         0.0600 
    199 H199       -3.4221  -29.1180  -45.7644 H         1 UNK         0.0600 
    200 H200       -1.7307  -25.8771  -46.4985 H         1 UNK         0.3000 
    201 H201       -1.0722  -27.0671  -48.9734 H         1 UNK         0.0600 
    202 H202        0.8319  -25.5108  -48.9556 H         1 UNK         0.0600 
    203 H203        0.5800  -26.1311  -47.3333 H         1 UNK         0.0600 
    204 H204        0.0696  -24.4977  -47.7474 H         1 UNK         0.0600 
    205 H205       -0.7240  -26.1239  -51.0262 H         1 UNK         0.3000 
    206 H206       -1.4303  -25.2907  -52.9525 H         1 UNK         0.0600 
    207 H207       -0.4724  -23.1637  -51.9622 H         1 UNK         0.0600 
    208 H208       -2.0971  -22.7186  -51.4414 H         1 UNK         0.0600 
    209 H209       -1.7312  -22.8747  -53.1513 H         1 UNK         0.0600 
    210 H210       -3.2423  -26.8975  -51.6461 H         1 UNK         0.3000 
    211 H211       -5.3193  -27.6683  -51.5564 H         1 UNK         0.0600 
    212 H212       -5.2689  -27.4503  -54.0207 H         1 UNK         0.0600 
    213 H213       -6.8880  -27.1291  -53.4223 H         1 UNK         0.0600 
    214 H214       -5.8578  -25.7950  -53.9246 H         1 UNK         0.0600 
    215 H215       -4.8148  -26.0579  -49.5709 H         1 UNK         0.3000 
    216 H216       -5.4865  -24.6964  -47.9729 H         1 UNK         0.0600 
    217 H217       -7.8846  -24.6394  -47.3797 H         1 UNK         0.0600 
    218 H218       -8.3311  -25.2593  -48.9647 H         1 UNK         0.0600 
    219 H219       -7.4119  -26.2647  -47.8432 H         1 UNK         0.0600 
    220 H220       -4.3881  -23.3519  -49.8461 H         1 UNK         0.3000 
    221 H221       -3.9484  -21.3962  -50.7100 H         1 UNK         0.0600 
    222 H222       -6.2478  -20.1878  -49.0927 H         1 UNK         0.0600 
    223 H223       -4.6533  -20.5281  -48.4363 H         1 UNK         0.0600 
    224 H224       -4.8414  -19.3462  -49.7201 H         1 UNK         0.0600 
    225 H225       -6.3985  -23.0459  -51.9079 H         1 UNK         0.3000 
    226 H226       -7.8571  -21.0975  -53.4513 H         1 UNK         0.0600 
    227 H227       -8.7555  -23.3648  -52.9451 H         1 UNK         0.0600 
    228 H228       -8.6969  -23.0769  -54.6781 H         1 UNK         0.0600 
    229 H229       -7.4833  -24.0980  -53.9204 H         1 UNK         0.0600 
    230 H230       -4.8025  -22.8036  -53.9187 H         1 UNK         0.3000 
    231 H231       -4.4505  -21.6359  -56.6531 H         1 UNK         0.0600 
    232 H232       -2.8307  -23.4559  -56.9769 H         1 UNK         0.0600 
    233 H233       -4.3549  -24.1455  -56.4459 H         1 UNK         0.0600 
    234 H234       -3.0171  -23.9865  -55.3098 H         1 UNK         0.0600 
    235 H235       -4.0775  -20.2660  -53.9329 H         1 UNK         0.3000 
    236 H236       -1.3073  -20.0152  -53.4113 H         1 UNK         0.0600 
    237 H237       -2.0826  -18.0117  -52.0335 H         1 UNK         0.0600 
    238 H238       -3.6917  -18.2260  -52.6978 H         1 UNK         0.0600 
    239 H239       -2.9717  -19.4852  -51.6955 H         1 UNK         0.0600 
    240 H240       -0.2182  -17.0231  -55.2251 H         1 UNK         0.3000 
    241 H241        0.1930  -18.5178  -52.7593 H         1 UNK         0.0600 
    242 H242        1.5578  -20.3954  -52.5199 H         1 UNK         0.3800 
    243 H243        2.2055  -21.2146  -53.9068 H         1 UNK         0.3800 
    244 H244        2.4706  -17.4802  -52.8069 H         1 UNK         0.0800 
    245 H245        2.0936  -16.7303  -54.3301 H         1 UNK         0.0800 
    246 H246        1.3906  -15.0451  -50.2561 H         1 UNK         0.0800 
    247 H247        2.3099  -16.4534  -50.7012 H         1 UNK         0.0800 
@<TRIPOS>BOND
     1    1    2 1    
     2    1  127 1    
     3    1  128 1    
     4    1  129 1    
     5    2    3 2    
     6    2    4 am   BACKBONE|DICT|INTERRES
     7    4    5 1    
     8    4  130 1    
     9    5    6 1    
    10    5   65 1    
    11    5  131 1    
    12    6    7 1    
    13    6  132 1    
    14    6  133 1    
    15    7    8 1    
    16    8    9 1    
    17    8  134 1    
    18    8  135 1    
    19    9   10 ar   
    20    9   14 ar   
    21   10   11 ar   
    22   10  136 1    
    23   11   12 ar   
    24   11  126 1    
    25   12   13 ar   
    26   12  137 1    
    27   13   14 ar   
    28   13   15 1    
    29   14  138 1    
    30   15   16 1    
    31   15  139 1    
    32   15  140 1    
    33   16   17 1    
    34   17   18 1    
    35   17  141 1    
    36   17  142 1    
    37   18   19 1    
    38   18   67 1    
    39   18  143 1    
    40   19   20 am   BACKBONE|DICT|INTERRES
    41   19  144 1    
    42   20   21 2    
    43   20   22 1    
    44   22   23 1    
    45   22   24 1    
    46   22  145 1    
    47   23  146 1    
    48   23  147 1    
    49   23  148 1    
    50   24   25 am   BACKBONE|DICT|INTERRES
    51   24  149 1    
    52   25   26 2    
    53   25   27 1    
    54   27   28 1    
    55   27   29 1    
    56   27  150 1    
    57   28  151 1    
    58   28  152 1    
    59   28  153 1    
    60   29   30 am   BACKBONE|DICT|INTERRES
    61   29  154 1    
    62   30   31 2    
    63   30   32 1    
    64   32   33 1    
    65   32   34 1    
    66   32  155 1    
    67   33  156 1    
    68   33  157 1    
    69   33  158 1    
    70   34   35 am   BACKBONE|DICT|INTERRES
    71   34  159 1    
    72   35   36 2    
    73   35   37 1    
    74   37   38 1    
    75   37   39 1    
    76   37  160 1    
    77   38  161 1    
    78   38  162 1    
    79   38  163 1    
    80   39   40 am   BACKBONE|DICT|INTERRES
    81   39  164 1    
    82   40   41 2    
    83   40   42 1    
    84   42   43 1    
    85   42   44 1    
    86   42  165 1    
    87   43  166 1    
    88   43  167 1    
    89   43  168 1    
    90   44   45 am   BACKBONE|DICT|INTERRES
    91   44  169 1    
    92   45   46 2    
    93   45   47 1    
    94   47   48 1    
    95   47   49 1    
    96   47  170 1    
    97   48  171 1    
    98   48  172 1    
    99   48  173 1    
   100   49   50 am   BACKBONE|DICT|INTERRES
   101   49  174 1    
   102   50   51 2    
   103   50   52 1    
   104   52   53 1    
   105   52   54 1    
   106   52  175 1    
   107   53  176 1    
   108   53  177 1    
   109   53  178 1    
   110   54   55 am   BACKBONE|DICT|INTERRES
   111   54  179 1    
   112   55   56 2    
   113   55   57 1    
   114   57   58 1    
   115   57   59 1    
   116   57  180 1    
   117   58  181 1    
   118   58  182 1    
   119   58  183 1    
   120   59   60 am   BACKBONE|DICT|INTERRES
   121   59  184 1    
   122   60   61 2    
   123   60   62 1    
   124   62   63 1    
   125   62   64 1    
   126   62  185 1    
   127   63  186 1    
   128   63  187 1    
   129   63  188 1    
   130   64   65 am   BACKBONE|DICT|INTERRES
   131   64  189 1    
   132   65   66 2    
   133   67   68 2    
   134   67   69 am   BACKBONE|DICT|INTERRES
   135   69   70 1    
   136   69  190 1    
   137   70   71 1    
   138   70   72 1    
   139   70  191 1    
   140   71  192 1    
   141   71  193 1    
   142   71  194 1    
   143   72   73 2    
   144   72   74 am   BACKBONE|DICT|INTERRES
   145   74   75 1    
   146   74  195 1    
   147   75   76 1    
   148   75   77 1    
   149   75  196 1    
   150   76  197 1    
   151   76  198 1    
   152   76  199 1    
   153   77   78 2    
   154   77   79 am   BACKBONE|DICT|INTERRES
   155   79   80 1    
   156   79  200 1    
   157   80   81 1    
   158   80   82 1    
   159   80  201 1    
   160   81  202 1    
   161   81  203 1    
   162   81  204 1    
   163   82   83 2    
   164   82   84 am   BACKBONE|DICT|INTERRES
   165   84   85 1    
   166   84  205 1    
   167   85   86 1    
   168   85   87 1    
   169   85  206 1    
   170   86  207 1    
   171   86  208 1    
   172   86  209 1    
   173   87   88 2    
   174   87   89 am   BACKBONE|DICT|INTERRES
   175   89   90 1    
   176   89  210 1    
   177   90   91 1    
   178   90   92 1    
   179   90  211 1    
   180   91  212 1    
   181   91  213 1    
   182   91  214 1    
   183   92   93 2    
   184   92   94 am   BACKBONE|DICT|INTERRES
   185   94   95 1    
   186   94  215 1    
   187   95   96 1    
   188   95   97 1    
   189   95  216 1    
   190   96  217 1    
   191   96  218 1    
   192   96  219 1    
   193   97   98 2    
   194   97   99 am   BACKBONE|DICT|INTERRES
   195   99  100 1    
   196   99  220 1    
   197  100  101 1    
   198  100  102 1    
   199  100  221 1    
   200  101  222 1    
   201  101  223 1    
   202  101  224 1    
   203  102  103 2    
   204  102  104 am   BACKBONE|DICT|INTERRES
   205  104  105 1    
   206  104  225 1    
   207  105  106 1    
   208  105  107 1    
   209  105  226 1    
   210  106  227 1    
   211  106  228 1    
   212  106  229 1    
   213  107  108 2    
   214  107  109 am   BACKBONE|DICT|INTERRES
   215  109  110 1    
   216  109  230 1    
   217  110  111 1    
   218  110  112 1    
   219  110  231 1    
   220  111  232 1    
   221  111  233 1    
   222  111  234 1    
   223  112  113 2    
   224  112  114 am   BACKBONE|DICT|INTERRES
   225  114  115 1    
   226  114  235 1    
   227  115  116 1    
   228  115  117 1    
   229  115  236 1    
   230  116  237 1    
   231  116  238 1    
   232  116  239 1    
   233  117  118 2    
   234  117  119 am   BACKBONE|DICT|INTERRES
   235  119  120 1    
   236  119  240 1    
   237  120  121 1    
   238  120  124 1    
   239  120  241 1    
   240  121  122 am   BACKBONE|DICT|INTERRES
   241  121  123 2    
   242  122  242 1    
   243  122  243 1    
   244  124  125 1    
   245  124  244 1    
   246  124  245 1    
   247  125  126 1    
   248  126  246 1    
   249  126  247 1    
@<TRIPOS>SUBSTRUCTURE
     1 UNK         1 GROUP             0       ****    0 ROOT    
