@<TRIPOS>MOLECULE
3R540
247   249    1
SMALL
USER_CHARGES


@<TRIPOS>ATOM
      1 CA          5.6807  -10.6837  -47.2317 C.3       0 UNK        -0.1800 
      2 C           4.3952  -11.3964  -46.8410 C.2       0 UNK         0.5000 
      3 O           3.8129  -11.0851  -45.8023 O.2       0 UNK        -0.5000 
      4 N           3.9325  -12.3353  -47.6767 N.am      1 UNK        -0.5000 
      5 CA          2.7312  -13.1561  -47.4608 C.3       1 UNK         0.1400 
      6 C6          2.6567  -14.3318  -48.4650 C.3       23 UNK        -0.0398 
      7 S7          2.4896  -13.8198  -50.2103 S.3       23 UNK        -0.2404 
      8 C8          3.2013  -15.2571  -51.0755 C.3       23 UNK        -0.0205 
      9 C9          2.5128  -16.5754  -50.7352 C.ar      23 UNK        -0.0193 
     10 C10         1.1271  -16.7129  -50.8525 C.ar      23 UNK        -0.1150 
     11 C11         0.5080  -17.9340  -50.5754 C.ar      23 UNK        -0.0193 
     12 C12         1.2861  -19.0289  -50.1876 C.ar      23 UNK        -0.1150 
     13 C13         2.6775  -18.9095  -50.0566 C.ar      23 UNK        -0.0193 
     14 C14         3.2747  -17.6748  -50.3300 C.ar      23 UNK        -0.1150 
     15 C15         3.5954  -20.0649  -49.6422 C.3       23 UNK        -0.0205 
     16 S16         2.8031  -21.6815  -49.3334 S.3       23 UNK        -0.2404 
     17 C17         2.0079  -21.3688  -47.7211 C.3       23 UNK        -0.0398 
     18 CA          1.1971  -22.5547  -47.1426 C.3       11 UNK         0.1400 
     19 N           0.5946  -22.1832  -45.8613 N.am      11 UNK        -0.5000 
     20 C          -0.0553  -23.0086  -45.0309 C.2       10 UNK         0.5000 
     21 O          -0.1662  -24.2203  -45.2155 O.2       10 UNK        -0.5000 
     22 CA         -0.7370  -22.3575  -43.8133 C.3       10 UNK         0.1400 
     23 CB          0.2796  -22.1052  -42.6904 C.3       10 UNK        -0.1800 
     24 N          -1.4242  -21.1078  -44.1528 N.am      10 UNK        -0.5000 
     25 C          -2.4757  -21.0287  -44.9819 C.2       9 UNK         0.5000 
     26 O          -2.9981  -22.0080  -45.5099 O.2       9 UNK        -0.5000 
     27 CA         -3.0165  -19.6272  -45.3141 C.3       9 UNK         0.1400 
     28 CB         -3.9323  -19.1125  -44.1945 C.3       9 UNK        -0.1800 
     29 N          -1.9555  -18.6558  -45.5687 N.am      9 UNK        -0.5000 
     30 C          -1.0866  -18.7202  -46.5876 C.2       8 UNK         0.5000 
     31 O          -1.1039  -19.5982  -47.4504 O.2       8 UNK        -0.5000 
     32 CA          0.0215  -17.6505  -46.6069 C.3       8 UNK         0.1400 
     33 CB         -0.5366  -16.2956  -47.0699 C.3       8 UNK        -0.1800 
     34 N           0.6523  -17.4928  -45.2946 N.am      8 UNK        -0.5000 
     35 C           1.3060  -18.4618  -44.6370 C.2       7 UNK         0.5000 
     36 O           1.5062  -19.5862  -45.0930 O.2       7 UNK        -0.5000 
     37 CA          1.7631  -18.1394  -43.2054 C.3       7 UNK         0.1400 
     38 CB          3.1198  -17.4190  -43.2093 C.3       7 UNK        -0.1800 
     39 N           0.7688  -17.3384  -42.4908 N.am      7 UNK        -0.5000 
     40 C          -0.4141  -17.8115  -42.0711 C.2       6 UNK         0.5000 
     41 O          -0.7665  -18.9830  -42.2047 O.2       6 UNK        -0.5000 
     42 CA         -1.3839  -16.7963  -41.4384 C.3       6 UNK         0.1400 
     43 CB         -1.0571  -16.5864  -39.9526 C.3       6 UNK        -0.1800 
     44 N          -1.3693  -15.5052  -42.1271 N.am      6 UNK        -0.5000 
     45 C          -1.7883  -15.3151  -43.3862 C.2       5 UNK         0.5000 
     46 O          -2.2950  -16.2000  -44.0744 O.2       5 UNK        -0.5000 
     47 CA         -1.5591  -13.9190  -43.9948 C.3       5 UNK         0.1400 
     48 CB         -2.7873  -13.0235  -43.7800 C.3       5 UNK        -0.1800 
     49 N          -0.3714  -13.2391  -43.4733 N.am      5 UNK        -0.5000 
     50 C           0.8879  -13.6755  -43.6019 C.2       4 UNK         0.5000 
     51 O           1.1822  -14.7468  -44.1359 O.2       4 UNK        -0.5000 
     52 CA          1.9868  -12.7535  -43.0363 C.3       4 UNK         0.1400 
     53 CB          3.3982  -13.3493  -43.1821 C.3       4 UNK        -0.1800 
     54 N           1.9593  -11.4404  -43.6790 N.am      4 UNK        -0.5000 
     55 C           1.1250  -10.4374  -43.3736 C.2       3 UNK         0.5000 
     56 O           0.2742  -10.5060  -42.4854 O.2       3 UNK        -0.5000 
     57 CA          1.2299   -9.1710  -44.2366 C.3       3 UNK         0.1400 
     58 CB          2.5024   -8.3769  -43.9011 C.3       3 UNK        -0.1800 
     59 N           1.2343   -9.5281  -45.6536 N.am      3 UNK        -0.5000 
     60 C           0.1363   -9.6219  -46.4171 C.2       2 UNK         0.5000 
     61 O          -0.9936   -9.3176  -46.0331 O.2       2 UNK        -0.5000 
     62 CA          0.3274  -10.1567  -47.8510 C.3       2 UNK         0.1400 
     63 CB          0.5816   -9.0003  -48.8297 C.3       2 UNK        -0.1800 
     64 N           1.4244  -11.1192  -47.9531 N.am      2 UNK        -0.5000 
     65 C           1.4133  -12.3455  -47.4104 C.2       1 UNK         0.5000 
     66 O           0.4256  -12.8284  -46.8594 O.2       1 UNK        -0.5000 
     67 C           0.1339  -23.1040  -48.1198 C.2       11 UNK         0.5000 
     68 O           0.3290  -24.1792  -48.6884 O.2       11 UNK        -0.5000 
     69 N          -0.9949  -22.3927  -48.2491 N.am      12 UNK        -0.5000 
     70 CA         -2.1406  -22.8158  -49.0513 C.3       12 UNK         0.1400 
     71 CB         -3.1794  -21.6934  -49.0978 C.3       12 UNK        -0.1800 
     72 C          -2.7772  -24.1232  -48.5487 C.2       12 UNK         0.5000 
     73 O          -3.0713  -24.9963  -49.3619 O.2       12 UNK        -0.5000 
     74 N          -2.9370  -24.2615  -47.2252 N.am      13 UNK        -0.5000 
     75 CA         -3.4517  -25.4667  -46.5738 C.3       13 UNK         0.1400 
     76 CB         -3.6642  -25.2034  -45.0759 C.3       13 UNK        -0.1800 
     77 C          -2.5499  -26.6945  -46.7928 C.2       13 UNK         0.5000 
     78 O          -3.0659  -27.7777  -47.0673 O.2       13 UNK        -0.5000 
     79 N          -1.2248  -26.4989  -46.7273 N.am      14 UNK        -0.5000 
     80 CA         -0.2177  -27.5170  -47.0386 C.3       14 UNK         0.1400 
     81 CB          1.1724  -27.0063  -46.6309 C.3       14 UNK        -0.1800 
     82 C          -0.2345  -27.9453  -48.5201 C.2       14 UNK         0.5000 
     83 O          -0.0135  -29.1201  -48.8152 O.2       14 UNK        -0.5000 
     84 N          -0.5368  -26.9980  -49.4181 N.am      15 UNK        -0.5000 
     85 CA         -0.7471  -27.2283  -50.8497 C.3       15 UNK         0.1400 
     86 CB         -0.5307  -25.9032  -51.5999 C.3       15 UNK        -0.1800 
     87 C          -2.1349  -27.8220  -51.1825 C.2       15 UNK         0.5000 
     88 O          -2.3626  -28.1906  -52.3355 O.2       15 UNK        -0.5000 
     89 N          -3.0308  -27.8954  -50.1853 N.am      16 UNK        -0.5000 
     90 CA         -4.4342  -28.3156  -50.2588 C.3       16 UNK         0.1400 
     91 CB         -4.5448  -29.8109  -50.6229 C.3       16 UNK        -0.1800 
     92 C          -5.2838  -27.3979  -51.1651 C.2       16 UNK         0.5000 
     93 O          -6.1270  -27.8805  -51.9242 O.2       16 UNK        -0.5000 
     94 N          -5.0350  -26.0878  -51.0702 N.am      17 UNK        -0.5000 
     95 CA         -5.6702  -25.0314  -51.8499 C.3       17 UNK         0.1400 
     96 CB         -4.5880  -24.3856  -52.7292 C.3       17 UNK        -0.1800 
     97 C          -6.3002  -23.9771  -50.9246 C.2       17 UNK         0.5000 
     98 O          -6.0641  -23.9798  -49.7139 O.2       17 UNK        -0.5000 
     99 N          -7.0797  -23.0695  -51.5244 N.am      18 UNK        -0.5000 
    100 CA        -7.5916  -21.8631  -50.8750 C.3       18 UNK         0.1400 
    101 CB        -8.7276  -21.2843  -51.7326 C.3       18 UNK        -0.1800 
    102 C         -6.4742  -20.8183  -50.7065 C.2       18 UNK         0.5000 
    103 O         -5.5494  -20.7767  -51.5226 O.2       18 UNK        -0.5000 
    104 N         -6.6020  -19.9532  -49.6921 N.am      19 UNK        -0.5000 
    105 CA        -5.6312  -18.9029  -49.3535 C.3       19 UNK         0.1400 
    106 CB        -6.0418  -18.2459  -48.0268 C.3       19 UNK        -0.1800 
    107 C         -5.4196  -17.8386  -50.4507 C.2       19 UNK         0.5000 
    108 O         -4.3782  -17.1845  -50.4586 O.2       19 UNK        -0.5000 
    109 N         -6.3969  -17.6911  -51.3546 N.am      20 UNK        -0.5000 
    110 CA        -6.3140  -16.8302  -52.5348 C.3       20 UNK         0.1400 
    111 CB        -7.7276  -16.3307  -52.8737 C.3       20 UNK        -0.1800 
    112 C         -5.6939  -17.5419  -53.7557 C.2       20 UNK         0.5000 
    113 O         -5.2671  -16.8600  -54.6884 O.2       20 UNK        -0.5000 
    114 N         -5.6798  -18.8824  -53.7528 N.am      21 UNK        -0.5000 
    115 CA        -5.1721  -19.7133  -54.8457 C.3       21 UNK         0.1400 
    116 CB        -6.0582  -20.9616  -54.9857 C.3       21 UNK        -0.1800 
    117 C         -3.7049  -20.1111  -54.6185 C.2       21 UNK         0.5000 
    118 O         -2.9209  -20.0941  -55.5673 O.2       21 UNK        -0.5000 
    119 N         -3.3664  -20.4540  -53.3685 N.am      22 UNK        -0.5000 
    120 CA        -2.0164  -20.7796  -52.8679 C.3       22 UNK         0.1400 
    121 C         -1.4155  -22.1340  -53.3514 C.2       22 UNK         0.5000 
    122 N         -2.0725  -22.8941  -54.2168 N.am      22 UNK        -0.7600 
    123 O         -0.3386  -22.5187  -52.9067 O.2       22 UNK        -0.5000 
    124 C124       -0.9896  -19.6250  -53.0459 C.3       23 UNK        -0.0398 
    125 S125       -1.5780  -18.0181  -52.4125 S.3       23 UNK        -0.2404 
    126 C126       -1.0040  -18.0650  -50.6872 C.3       23 UNK        -0.0205 
    127 H127        5.5010   -9.6129  -47.3266 H         1 UNK         0.0600 
    128 H128        6.0751  -11.0492  -48.1802 H         1 UNK         0.0600 
    129 H129        6.4400  -10.8365  -46.4649 H         1 UNK         0.0600 
    130 H130        4.4376  -12.5286  -48.5302 H         1 UNK         0.3000 
    131 H131        2.8359  -13.6006  -46.4693 H         1 UNK         0.0600 
    132 H132        3.5522  -14.9465  -48.3627 H         1 UNK         0.0800 
    133 H133        1.8246  -14.9921  -48.2253 H         1 UNK         0.0800 
    134 H134        4.2675  -15.3062  -50.8486 H         1 UNK         0.0800 
    135 H135        3.1246  -15.0915  -52.1508 H         1 UNK         0.0800 
    136 H136        0.5278  -15.8695  -51.1660 H         1 UNK         0.1150 
    137 H137        0.7919  -19.9690  -49.9938 H         1 UNK         0.1150 
    138 H138        4.3477  -17.5750  -50.2413 H         1 UNK         0.1150 
    139 H139        4.3345  -20.2091  -50.4315 H         1 UNK         0.0800 
    140 H140        4.1541  -19.7731  -48.7516 H         1 UNK         0.0800 
    141 H141        1.3716  -20.4890  -47.8072 H         1 UNK         0.0800 
    142 H142        2.7927  -21.0947  -47.0147 H         1 UNK         0.0800 
    143 H143        1.8974  -23.3683  -46.9426 H         1 UNK         0.0600 
    144 H144        0.6815  -21.2047  -45.5986 H         1 UNK         0.3000 
    145 H145       -1.4860  -23.0579  -43.4387 H         1 UNK         0.0600 
    146 H146       -0.2087  -21.7159  -41.7970 H         1 UNK         0.0600 
    147 H147        0.7861  -23.0289  -42.4078 H         1 UNK         0.0600 
    148 H148        1.0448  -21.3902  -42.9924 H         1 UNK         0.0600 
    149 H149       -1.0822  -20.2626  -43.7066 H         1 UNK         0.3000 
    150 H150       -3.6124  -19.7107  -46.2254 H         1 UNK         0.0600 
    151 H151       -4.7419  -19.8160  -43.9970 H         1 UNK         0.0600 
    152 H152       -4.3877  -18.1600  -44.4664 H         1 UNK         0.0600 
    153 H153       -3.3861  -18.9673  -43.2620 H         1 UNK         0.0600 
    154 H154       -1.9019  -17.8665  -44.9303 H         1 UNK         0.3000 
    155 H155        0.7970  -17.9642  -47.3086 H         1 UNK         0.0600 
    156 H156       -1.4963  -16.0638  -46.6086 H         1 UNK         0.0600 
    157 H157        0.1418  -15.4814  -46.8237 H         1 UNK         0.0600 
    158 H158       -0.6853  -16.2846  -48.1486 H         1 UNK         0.0600 
    159 H159        0.5794  -16.5816  -44.8550 H         1 UNK         0.3000 
    160 H160        1.8871  -19.0832  -42.6707 H         1 UNK         0.0600 
    161 H161        3.8904  -18.0520  -43.6509 H         1 UNK         0.0600 
    162 H162        3.0906  -16.4958  -43.7874 H         1 UNK         0.0600 
    163 H163        3.4414  -17.1734  -42.1972 H         1 UNK         0.0600 
    164 H164        0.9560  -16.3491  -42.4143 H         1 UNK         0.3000 
    165 H165       -2.3924  -17.2089  -41.5117 H         1 UNK         0.0600 
    166 H166       -1.7841  -15.9267  -39.4786 H         1 UNK         0.0600 
    167 H167       -1.0780  -17.5334  -39.4117 H         1 UNK         0.0600 
    168 H168       -0.0669  -16.1506  -39.8137 H         1 UNK         0.0600 
    169 H169       -0.9707  -14.7225  -41.6301 H         1 UNK         0.3000 
    170 H170       -1.4167  -14.0499  -45.0692 H         1 UNK         0.0600 
    171 H171       -3.6872  -13.4916  -44.1813 H         1 UNK         0.0600 
    172 H172       -2.9620  -12.8265  -42.7215 H         1 UNK         0.0600 
    173 H173       -2.6675  -12.0647  -44.2853 H         1 UNK         0.0600 
    174 H174       -0.5120  -12.3336  -43.0390 H         1 UNK         0.3000 
    175 H175        1.7903  -12.6306  -41.9693 H         1 UNK         0.0600 
    176 H176        3.6597  -13.5241  -44.2257 H         1 UNK         0.0600 
    177 H177        4.1511  -12.6847  -42.7580 H         1 UNK         0.0600 
    178 H178        3.4762  -14.3020  -42.6577 H         1 UNK         0.0600 
    179 H179        2.6213  -11.3058  -44.4404 H         1 UNK         0.3000 
    180 H180        0.3703   -8.5352  -44.0140 H         1 UNK         0.0600 
    181 H181        3.4079   -8.9501  -44.1032 H         1 UNK         0.0600 
    182 H182        2.5197   -8.0969  -42.8471 H         1 UNK         0.0600 
    183 H183        2.5543   -7.4564  -44.4827 H         1 UNK         0.0600 
    184 H184        2.1166   -9.8546  -46.0283 H         1 UNK         0.3000 
    185 H185       -0.5967  -10.6586  -48.1455 H         1 UNK         0.0600 
    186 H186        0.6520   -9.3607  -49.8562 H         1 UNK         0.0600 
    187 H187       -0.2323   -8.2749  -48.7959 H         1 UNK         0.0600 
    188 H188        1.5050   -8.4692  -48.5952 H         1 UNK         0.0600 
    189 H189        2.2704  -10.8051  -48.4053 H         1 UNK         0.3000 
    190 H190       -1.0760  -21.4983  -47.7728 H         1 UNK         0.3000 
    191 H191       -1.7845  -22.9890  -50.0690 H         1 UNK         0.0600 
    192 H192       -3.5854  -21.4727  -48.1108 H         1 UNK         0.0600 
    193 H193       -4.0113  -21.9798  -49.7387 H         1 UNK         0.0600 
    194 H194       -2.7535  -20.7751  -49.4984 H         1 UNK         0.0600 
    195 H195       -2.7306  -23.4703  -46.6197 H         1 UNK         0.3000 
    196 H196       -4.4242  -25.6883  -47.0188 H         1 UNK         0.0600 
    197 H197       -4.0694  -26.0851  -44.5780 H         1 UNK         0.0600 
    198 H198       -4.3689  -24.3873  -44.9159 H         1 UNK         0.0600 
    199 H199       -2.7315  -24.9431  -44.5758 H         1 UNK         0.0600 
    200 H200       -0.8784  -25.5861  -46.4450 H         1 UNK         0.3000 
    201 H201       -0.4421  -28.4010  -46.4381 H         1 UNK         0.0600 
    202 H202        1.2089  -26.7709  -45.5671 H         1 UNK         0.0600 
    203 H203        1.4496  -26.1069  -47.1809 H         1 UNK         0.0600 
    204 H204        1.9375  -27.7590  -46.8247 H         1 UNK         0.0600 
    205 H205       -0.6492  -26.0432  -49.0948 H         1 UNK         0.3000 
    206 H206        0.0029  -27.9401  -51.2003 H         1 UNK         0.0600 
    207 H207        0.4538  -25.4844  -51.3902 H         1 UNK         0.0600 
    208 H208       -0.5988  -26.0467  -52.6787 H         1 UNK         0.0600 
    209 H209       -1.2745  -25.1554  -51.3253 H         1 UNK         0.0600 
    210 H210       -2.7409  -27.5440  -49.2818 H         1 UNK         0.3000 
    211 H211       -4.8361  -28.1954  -49.2519 H         1 UNK         0.0600 
    212 H212       -4.2168  -30.0069  -51.6439 H         1 UNK         0.0600 
    213 H213       -5.5756  -30.1572  -50.5394 H         1 UNK         0.0600 
    214 H214       -3.9423  -30.4242  -49.9528 H         1 UNK         0.0600 
    215 H215       -4.3513  -25.7611  -50.3875 H         1 UNK         0.3000 
    216 H216       -6.4575  -25.4385  -52.4873 H         1 UNK         0.0600 
    217 H217       -5.0059  -23.6169  -53.3787 H         1 UNK         0.0600 
    218 H218       -4.1079  -25.1252  -53.3703 H         1 UNK         0.0600 
    219 H219       -3.8112  -23.9176  -52.1223 H         1 UNK         0.0600 
    220 H220       -7.2082  -23.1235  -52.5236 H         1 UNK         0.3000 
    221 H221       -7.9862  -22.1270  -49.8915 H         1 UNK         0.0600 
    222 H222       -8.3784  -20.9926  -52.7242 H         1 UNK         0.0600 
    223 H223       -9.5319  -22.0089  -51.8612 H         1 UNK         0.0600 
    224 H224       -9.1623  -20.4002  -51.2646 H         1 UNK         0.0600 
    225 H225       -7.4003  -20.0346  -49.0788 H         1 UNK         0.3000 
    226 H226       -4.6651  -19.3825  -49.1987 H         1 UNK         0.0600 
    227 H227       -6.0898  -18.9788  -47.2211 H         1 UNK         0.0600 
    228 H228       -5.3192  -17.4855  -47.7267 H         1 UNK         0.0600 
    229 H229       -7.0164  -17.7623  -48.1026 H         1 UNK         0.0600 
    230 H230       -7.2325  -18.2474  -51.2535 H         1 UNK         0.3000 
    231 H231       -5.6931  -15.9604  -52.3100 H         1 UNK         0.0600 
    232 H232       -7.7098  -15.6590  -53.7330 H         1 UNK         0.0600 
    233 H233       -8.1605  -15.7775  -52.0400 H         1 UNK         0.0600 
    234 H234       -8.3995  -17.1552  -53.1155 H         1 UNK         0.0600 
    235 H235       -5.9578  -19.3726  -52.9120 H         1 UNK         0.3000 
    236 H236       -5.2264  -19.1618  -55.7867 H         1 UNK         0.0600 
    237 H237       -7.0874  -20.6873  -55.2177 H         1 UNK         0.0600 
    238 H238       -5.7037  -21.6047  -55.7922 H         1 UNK         0.0600 
    239 H239       -6.0702  -21.5554  -54.0724 H         1 UNK         0.0600 
    240 H240       -4.1040  -20.4895  -52.6696 H         1 UNK         0.3000 
    241 H241       -2.1534  -20.9166  -51.7962 H         1 UNK         0.0600 
    242 H242       -2.9380  -22.5755  -54.6188 H         1 UNK         0.3800 
    243 H243       -1.6685  -23.7678  -54.5126 H         1 UNK         0.3800 
    244 H244       -0.0453  -19.8718  -52.5594 H         1 UNK         0.0800 
    245 H245       -0.7483  -19.4956  -54.1017 H         1 UNK         0.0800 
    246 H246       -1.4782  -17.2456  -50.1465 H         1 UNK         0.0800 
    247 H247       -1.3533  -18.9816  -50.2111 H         1 UNK         0.0800 
@<TRIPOS>BOND
     1    1    2 1    
     2    1  127 1    
     3    1  128 1    
     4    1  129 1    
     5    2    3 2    
     6    2    4 am   BACKBONE|DICT|INTERRES
     7    4    5 1    
     8    4  130 1    
     9    5    6 1    
    10    5   65 1    
    11    5  131 1    
    12    6    7 1    
    13    6  132 1    
    14    6  133 1    
    15    7    8 1    
    16    8    9 1    
    17    8  134 1    
    18    8  135 1    
    19    9   10 ar   
    20    9   14 ar   
    21   10   11 ar   
    22   10  136 1    
    23   11   12 ar   
    24   11  126 1    
    25   12   13 ar   
    26   12  137 1    
    27   13   14 ar   
    28   13   15 1    
    29   14  138 1    
    30   15   16 1    
    31   15  139 1    
    32   15  140 1    
    33   16   17 1    
    34   17   18 1    
    35   17  141 1    
    36   17  142 1    
    37   18   19 1    
    38   18   67 1    
    39   18  143 1    
    40   19   20 am   BACKBONE|DICT|INTERRES
    41   19  144 1    
    42   20   21 2    
    43   20   22 1    
    44   22   23 1    
    45   22   24 1    
    46   22  145 1    
    47   23  146 1    
    48   23  147 1    
    49   23  148 1    
    50   24   25 am   BACKBONE|DICT|INTERRES
    51   24  149 1    
    52   25   26 2    
    53   25   27 1    
    54   27   28 1    
    55   27   29 1    
    56   27  150 1    
    57   28  151 1    
    58   28  152 1    
    59   28  153 1    
    60   29   30 am   BACKBONE|DICT|INTERRES
    61   29  154 1    
    62   30   31 2    
    63   30   32 1    
    64   32   33 1    
    65   32   34 1    
    66   32  155 1    
    67   33  156 1    
    68   33  157 1    
    69   33  158 1    
    70   34   35 am   BACKBONE|DICT|INTERRES
    71   34  159 1    
    72   35   36 2    
    73   35   37 1    
    74   37   38 1    
    75   37   39 1    
    76   37  160 1    
    77   38  161 1    
    78   38  162 1    
    79   38  163 1    
    80   39   40 am   BACKBONE|DICT|INTERRES
    81   39  164 1    
    82   40   41 2    
    83   40   42 1    
    84   42   43 1    
    85   42   44 1    
    86   42  165 1    
    87   43  166 1    
    88   43  167 1    
    89   43  168 1    
    90   44   45 am   BACKBONE|DICT|INTERRES
    91   44  169 1    
    92   45   46 2    
    93   45   47 1    
    94   47   48 1    
    95   47   49 1    
    96   47  170 1    
    97   48  171 1    
    98   48  172 1    
    99   48  173 1    
   100   49   50 am   BACKBONE|DICT|INTERRES
   101   49  174 1    
   102   50   51 2    
   103   50   52 1    
   104   52   53 1    
   105   52   54 1    
   106   52  175 1    
   107   53  176 1    
   108   53  177 1    
   109   53  178 1    
   110   54   55 am   BACKBONE|DICT|INTERRES
   111   54  179 1    
   112   55   56 2    
   113   55   57 1    
   114   57   58 1    
   115   57   59 1    
   116   57  180 1    
   117   58  181 1    
   118   58  182 1    
   119   58  183 1    
   120   59   60 am   BACKBONE|DICT|INTERRES
   121   59  184 1    
   122   60   61 2    
   123   60   62 1    
   124   62   63 1    
   125   62   64 1    
   126   62  185 1    
   127   63  186 1    
   128   63  187 1    
   129   63  188 1    
   130   64   65 am   BACKBONE|DICT|INTERRES
   131   64  189 1    
   132   65   66 2    
   133   67   68 2    
   134   67   69 am   BACKBONE|DICT|INTERRES
   135   69   70 1    
   136   69  190 1    
   137   70   71 1    
   138   70   72 1    
   139   70  191 1    
   140   71  192 1    
   141   71  193 1    
   142   71  194 1    
   143   72   73 2    
   144   72   74 am   BACKBONE|DICT|INTERRES
   145   74   75 1    
   146   74  195 1    
   147   75   76 1    
   148   75   77 1    
   149   75  196 1    
   150   76  197 1    
   151   76  198 1    
   152   76  199 1    
   153   77   78 2    
   154   77   79 am   BACKBONE|DICT|INTERRES
   155   79   80 1    
   156   79  200 1    
   157   80   81 1    
   158   80   82 1    
   159   80  201 1    
   160   81  202 1    
   161   81  203 1    
   162   81  204 1    
   163   82   83 2    
   164   82   84 am   BACKBONE|DICT|INTERRES
   165   84   85 1    
   166   84  205 1    
   167   85   86 1    
   168   85   87 1    
   169   85  206 1    
   170   86  207 1    
   171   86  208 1    
   172   86  209 1    
   173   87   88 2    
   174   87   89 am   BACKBONE|DICT|INTERRES
   175   89   90 1    
   176   89  210 1    
   177   90   91 1    
   178   90   92 1    
   179   90  211 1    
   180   91  212 1    
   181   91  213 1    
   182   91  214 1    
   183   92   93 2    
   184   92   94 am   BACKBONE|DICT|INTERRES
   185   94   95 1    
   186   94  215 1    
   187   95   96 1    
   188   95   97 1    
   189   95  216 1    
   190   96  217 1    
   191   96  218 1    
   192   96  219 1    
   193   97   98 2    
   194   97   99 am   BACKBONE|DICT|INTERRES
   195   99  100 1    
   196   99  220 1    
   197  100  101 1    
   198  100  102 1    
   199  100  221 1    
   200  101  222 1    
   201  101  223 1    
   202  101  224 1    
   203  102  103 2    
   204  102  104 am   BACKBONE|DICT|INTERRES
   205  104  105 1    
   206  104  225 1    
   207  105  106 1    
   208  105  107 1    
   209  105  226 1    
   210  106  227 1    
   211  106  228 1    
   212  106  229 1    
   213  107  108 2    
   214  107  109 am   BACKBONE|DICT|INTERRES
   215  109  110 1    
   216  109  230 1    
   217  110  111 1    
   218  110  112 1    
   219  110  231 1    
   220  111  232 1    
   221  111  233 1    
   222  111  234 1    
   223  112  113 2    
   224  112  114 am   BACKBONE|DICT|INTERRES
   225  114  115 1    
   226  114  235 1    
   227  115  116 1    
   228  115  117 1    
   229  115  236 1    
   230  116  237 1    
   231  116  238 1    
   232  116  239 1    
   233  117  118 2    
   234  117  119 am   BACKBONE|DICT|INTERRES
   235  119  120 1    
   236  119  240 1    
   237  120  121 1    
   238  120  124 1    
   239  120  241 1    
   240  121  122 am   BACKBONE|DICT|INTERRES
   241  121  123 2    
   242  122  242 1    
   243  122  243 1    
   244  124  125 1    
   245  124  244 1    
   246  124  245 1    
   247  125  126 1    
   248  126  246 1    
   249  126  247 1    
@<TRIPOS>SUBSTRUCTURE
     1 UNK         1 GROUP             0       ****    0 ROOT    
