@<TRIPOS>MOLECULE
3R540
247   249    1
SMALL
USER_CHARGES


@<TRIPOS>ATOM
      1 CA         -2.1072  -16.4885  -42.7856 C.3       0 UNK        -0.1800 
      2 C          -2.6996  -15.3315  -43.5766 C.2       0 UNK         0.5000 
      3 O          -3.0427  -14.3034  -42.9918 O.2       0 UNK        -0.5000 
      4 N          -2.8154  -15.4843  -44.9027 N.am      1 UNK        -0.5000 
      5 CA         -3.2300  -14.4336  -45.8382 C.3       1 UNK         0.1400 
      6 C6         -3.4809  -14.9534  -47.2811 C.3       23 UNK        -0.0398 
      7 S7         -2.3475  -16.2550  -47.8877 S.3       23 UNK        -0.2404 
      8 C8         -1.1077  -15.2949  -48.8044 C.3       23 UNK        -0.0205 
      9 C9         -0.3187  -16.1887  -49.7497 C.ar      23 UNK        -0.0193 
     10 C10        -0.6947  -16.2807  -51.0930 C.ar      23 UNK        -0.1150 
     11 C11         0.0322  -17.0774  -51.9806 C.ar      23 UNK        -0.0193 
     12 C12         1.1375  -17.7939  -51.5141 C.ar      23 UNK        -0.1150 
     13 C13         1.5265  -17.7129  -50.1737 C.ar      23 UNK        -0.0193 
     14 C14         0.7926  -16.9081  -49.2948 C.ar      23 UNK        -0.1150 
     15 C15         2.7733  -18.4535  -49.7072 C.3       23 UNK        -0.0205 
     16 S16         2.5013  -20.2493  -49.5491 S.3       23 UNK        -0.2404 
     17 C17         2.1204  -20.4022  -47.7741 C.3       23 UNK        -0.0398 
     18 CA          1.1437  -21.5551  -47.4488 C.3       11 UNK         0.1400 
     19 N           1.3188  -22.0374  -46.0740 N.am      11 UNK        -0.5000 
     20 C           0.9051  -23.2347  -45.6400 C.2       10 UNK         0.5000 
     21 O           0.3397  -24.0475  -46.3713 O.2       10 UNK        -0.5000 
     22 CA          1.1052  -23.5899  -44.1506 C.3       10 UNK         0.1400 
     23 CB          1.7035  -25.0007  -43.9756 C.3       10 UNK        -0.1800 
     24 N           1.8506  -22.6102  -43.3509 N.am      10 UNK        -0.5000 
     25 C           3.1362  -22.2453  -43.4448 C.2       9 UNK         0.5000 
     26 O           3.8930  -22.6429  -44.3315 O.2       9 UNK        -0.5000 
     27 CA          3.6493  -21.2696  -42.3577 C.3       9 UNK         0.1400 
     28 CB          5.1080  -20.8380  -42.5934 C.3       9 UNK        -0.1800 
     29 N           2.8220  -20.0675  -42.2230 N.am      9 UNK        -0.5000 
     30 C           1.5914  -19.9962  -41.6966 C.2       8 UNK         0.5000 
     31 O           1.0102  -20.9594  -41.1949 O.2       8 UNK        -0.5000 
     32 CA          0.8640  -18.6411  -41.7890 C.3       8 UNK         0.1400 
     33 CB          1.0885  -17.8185  -40.5120 C.3       8 UNK        -0.1800 
     34 N           1.2567  -17.8404  -42.9496 N.am      8 UNK        -0.5000 
     35 C           1.1006  -18.1998  -44.2321 C.2       7 UNK         0.5000 
     36 O           0.5976  -19.2624  -44.6024 O.2       7 UNK        -0.5000 
     37 CA          1.6421  -17.2110  -45.2732 C.3       7 UNK         0.1400 
     38 CB          0.7011  -16.0166  -45.4513 C.3       7 UNK        -0.1800 
     39 N           2.9832  -16.7539  -44.9231 N.am      7 UNK        -0.5000 
     40 C           4.0882  -17.4986  -45.0736 C.2       6 UNK         0.5000 
     41 O           4.0952  -18.6098  -45.6017 O.2       6 UNK        -0.5000 
     42 CA          5.4039  -16.9142  -44.5256 C.3       6 UNK         0.1400 
     43 CB          6.1483  -16.1457  -45.6275 C.3       6 UNK        -0.1800 
     44 N           5.2007  -16.0290  -43.3774 N.am      6 UNK        -0.5000 
     45 C           4.7689  -16.4287  -42.1726 C.2       5 UNK         0.5000 
     46 O           4.5348  -17.6012  -41.8840 O.2       5 UNK        -0.5000 
     47 CA          4.4952  -15.3186  -41.1408 C.3       5 UNK         0.1400 
     48 CB          5.7781  -14.9596  -40.3769 C.3       5 UNK        -0.1800 
     49 N           3.9339  -14.1092  -41.7513 N.am      5 UNK        -0.5000 
     50 C           2.7379  -14.0551  -42.3513 C.2       4 UNK         0.5000 
     51 O           1.9772  -15.0220  -42.4422 O.2       4 UNK        -0.5000 
     52 CA          2.3681  -12.7237  -43.0249 C.3       4 UNK         0.1400 
     53 CB          2.7282  -12.7571  -44.5179 C.3       4 UNK        -0.1800 
     54 N           0.9433  -12.4368  -42.8894 N.am      4 UNK        -0.5000 
     55 C           0.3727  -11.9554  -41.7772 C.2       3 UNK         0.5000 
     56 O           1.0064  -11.7053  -40.7498 O.2       3 UNK        -0.5000 
     57 CA         -1.1528  -11.7111  -41.8123 C.3       3 UNK         0.1400 
     58 CB         -1.5856  -10.5276  -40.9215 C.3       3 UNK        -0.1800 
     59 N          -1.7109  -11.5753  -43.1640 N.am      3 UNK        -0.5000 
     60 C          -1.4316  -10.6356  -44.0837 C.2       2 UNK         0.5000 
     61 O          -0.6496   -9.7044  -43.8871 O.2       2 UNK        -0.5000 
     62 CA         -2.1526  -10.7398  -45.4498 C.3       2 UNK         0.1400 
     63 CB         -1.2233  -10.3863  -46.6307 C.3       2 UNK        -0.1800 
     64 N          -2.8313  -12.0243  -45.6774 N.am      2 UNK        -0.5000 
     65 C          -2.2605  -13.2321  -45.7940 C.2       1 UNK         0.5000 
     66 O          -1.0429  -13.4189  -45.7991 O.2       1 UNK        -0.5000 
     67 C          -0.3222  -21.1533  -47.7135 C.2       11 UNK         0.5000 
     68 O          -0.8437  -21.4177  -48.7947 O.2       11 UNK        -0.5000 
     69 N          -0.9654  -20.5543  -46.7016 N.am      12 UNK        -0.5000 
     70 CA         -2.3560  -20.1024  -46.7342 C.3       12 UNK         0.1400 
     71 CB         -2.5382  -19.0450  -45.6358 C.3       12 UNK        -0.1800 
     72 C          -3.3883  -21.2308  -46.5421 C.2       12 UNK         0.5000 
     73 O          -4.5813  -20.9745  -46.7136 O.2       12 UNK        -0.5000 
     74 N          -2.9355  -22.4364  -46.1658 N.am      13 UNK        -0.5000 
     75 CA         -3.7600  -23.5956  -45.8103 C.3       13 UNK         0.1400 
     76 CB         -2.8459  -24.7883  -45.4946 C.3       13 UNK        -0.1800 
     77 C          -4.7849  -23.9750  -46.8956 C.2       13 UNK         0.5000 
     78 O          -4.4194  -24.0843  -48.0677 O.2       13 UNK        -0.5000 
     79 N          -6.0487  -24.1446  -46.4796 N.am      14 UNK        -0.5000 
     80 CA         -7.2188  -24.4416  -47.3169 C.3       14 UNK         0.1400 
     81 CB         -7.1316  -25.8777  -47.8755 C.3       14 UNK        -0.1800 
     82 C          -7.4560  -23.3806  -48.4144 C.2       14 UNK         0.5000 
     83 O          -7.7620  -23.7312  -49.5547 O.2       14 UNK        -0.5000 
     84 N          -7.2646  -22.1014  -48.0538 N.am      15 UNK        -0.5000 
     85 CA         -7.2895  -20.9250  -48.9332 C.3       15 UNK         0.1400 
     86 CB         -8.7112  -20.6711  -49.4779 C.3       15 UNK        -0.1800 
     87 C          -6.2233  -21.0243  -50.0435 C.2       15 UNK         0.5000 
     88 O          -6.5270  -20.8314  -51.2210 O.2       15 UNK        -0.5000 
     89 N          -5.0002  -21.3848  -49.6324 N.am      16 UNK        -0.5000 
     90 CA         -3.8361  -21.7015  -50.4656 C.3       16 UNK         0.1400 
     91 CB         -3.2895  -20.4269  -51.1394 C.3       16 UNK        -0.1800 
     92 C          -4.1250  -22.8489  -51.4551 C.2       16 UNK         0.5000 
     93 O          -3.8512  -22.7277  -52.6507 O.2       16 UNK        -0.5000 
     94 N          -4.7165  -23.9302  -50.9255 N.am      17 UNK        -0.5000 
     95 CA         -5.2258  -25.1067  -51.6371 C.3       17 UNK         0.1400 
     96 CB         -4.0540  -25.9468  -52.1869 C.3       17 UNK        -0.1800 
     97 C          -6.2583  -24.7291  -52.7205 C.2       17 UNK         0.5000 
     98 O          -6.1214  -25.1377  -53.8728 O.2       17 UNK        -0.5000 
     99 N          -7.2449  -23.9036  -52.3414 N.am      18 UNK        -0.5000 
    100 CA        -8.2390  -23.2611  -53.2118 C.3       18 UNK         0.1400 
    101 CB        -9.2546  -24.2980  -53.7335 C.3       18 UNK        -0.1800 
    102 C         -7.5782  -22.4345  -54.3390 C.2       18 UNK         0.5000 
    103 O         -7.9610  -22.5415  -55.5053 O.2       18 UNK        -0.5000 
    104 N         -6.5578  -21.6589  -53.9503 N.am      19 UNK        -0.5000 
    105 CA        -5.6552  -20.8397  -54.7629 C.3       19 UNK         0.1400 
    106 CB        -6.4314  -19.7299  -55.5003 C.3       19 UNK        -0.1800 
    107 C         -4.7219  -21.6239  -55.7125 C.2       19 UNK         0.5000 
    108 O         -3.9890  -20.9891  -56.4723 O.2       19 UNK        -0.5000 
    109 N         -4.7149  -22.9653  -55.6595 N.am      20 UNK        -0.5000 
    110 CA        -3.8662  -23.8092  -56.5054 C.3       20 UNK         0.1400 
    111 CB        -4.3428  -25.2672  -56.4533 C.3       20 UNK        -0.1800 
    112 C         -2.3732  -23.7216  -56.1437 C.2       20 UNK         0.5000 
    113 O         -1.5338  -23.8356  -57.0385 O.2       20 UNK        -0.5000 
    114 N         -2.0561  -23.4784  -54.8619 N.am      21 UNK        -0.5000 
    115 CA        -0.6811  -23.2934  -54.3829 C.3       21 UNK         0.1400 
    116 CB        -0.6513  -23.3644  -52.8485 C.3       21 UNK        -0.1800 
    117 C         -0.0457  -21.9796  -54.8814 C.2       21 UNK         0.5000 
    118 O          1.1808  -21.8754  -54.9202 O.2       21 UNK        -0.5000 
    119 N         -0.8896  -21.0192  -55.2767 N.am      22 UNK        -0.5000 
    120 CA        -0.5030  -19.7482  -55.9033 C.3       22 UNK         0.1400 
    121 C         -0.2904  -19.8489  -57.4435 C.2       22 UNK         0.5000 
    122 N         -0.4915  -20.9976  -58.0810 N.am      22 UNK        -0.7600 
    123 O          0.0832  -18.8647  -58.0757 O.2       22 UNK        -0.5000 
    124 C124       -1.4926  -18.6097  -55.5407 C.3       23 UNK        -0.0398 
    125 S125       -1.6538  -18.3804  -53.7373 S.3       23 UNK        -0.2404 
    126 C126       -0.3558  -17.1426  -53.4484 C.3       23 UNK        -0.0205 
    127 H127       -1.8112  -17.3141  -43.4308 H         1 UNK         0.0600 
    128 H128       -2.8319  -16.8620  -42.0625 H         1 UNK         0.0600 
    129 H129       -1.2235  -16.1516  -42.2436 H         1 UNK         0.0600 
    130 H130       -2.5041  -16.3377  -45.3413 H         1 UNK         0.3000 
    131 H131       -4.1935  -14.0734  -45.4701 H         1 UNK         0.0600 
    132 H132       -4.4778  -15.3951  -47.3114 H         1 UNK         0.0800 
    133 H133       -3.5220  -14.1320  -47.9987 H         1 UNK         0.0800 
    134 H134       -1.5982  -14.5005  -49.3688 H         1 UNK         0.0800 
    135 H135       -0.4344  -14.8024  -48.1021 H         1 UNK         0.0800 
    136 H136       -1.5511  -15.7269  -51.4515 H         1 UNK         0.1150 
    137 H137        1.7058  -18.4089  -52.1982 H         1 UNK         0.1150 
    138 H138        1.0914  -16.8272  -48.2614 H         1 UNK         0.1150 
    139 H139        3.5699  -18.2903  -50.4346 H         1 UNK         0.0800 
    140 H140        3.1437  -18.0432  -48.7660 H         1 UNK         0.0800 
    141 H141        1.7284  -19.4592  -47.4065 H         1 UNK         0.0800 
    142 H142        3.0709  -20.5569  -47.2612 H         1 UNK         0.0800 
    143 H143        1.3783  -22.3897  -48.1139 H         1 UNK         0.0600 
    144 H144        1.7491  -21.4047  -45.4140 H         1 UNK         0.3000 
    145 H145        0.1030  -23.6087  -43.7206 H         1 UNK         0.0600 
    146 H146        1.0688  -25.7574  -44.4384 H         1 UNK         0.0600 
    147 H147        2.6906  -25.0813  -44.4315 H         1 UNK         0.0600 
    148 H148        1.7977  -25.2615  -42.9215 H         1 UNK         0.0600 
    149 H149        1.3255  -22.1833  -42.5913 H         1 UNK         0.3000 
    150 H150        3.6160  -21.8107  -41.4100 H         1 UNK         0.0600 
    151 H151        5.7706  -21.7021  -42.6549 H         1 UNK         0.0600 
    152 H152        5.4707  -20.2130  -41.7772 H         1 UNK         0.0600 
    153 H153        5.2137  -20.2730  -43.5202 H         1 UNK         0.0600 
    154 H154        3.2375  -19.2059  -42.5558 H         1 UNK         0.3000 
    155 H155       -0.2040  -18.8489  -41.8800 H         1 UNK         0.0600 
    156 H156        0.7488  -18.3641  -39.6309 H         1 UNK         0.0600 
    157 H157        0.5392  -16.8774  -40.5445 H         1 UNK         0.0600 
    158 H158        2.1434  -17.5848  -40.3672 H         1 UNK         0.0600 
    159 H159        1.6505  -16.9252  -42.7501 H         1 UNK         0.3000 
    160 H160        1.6969  -17.7171  -46.2318 H         1 UNK         0.0600 
    161 H161        0.5405  -15.4664  -44.5251 H         1 UNK         0.0600 
    162 H162       -0.2738  -16.3502  -45.8001 H         1 UNK         0.0600 
    163 H163        1.0844  -15.3192  -46.1953 H         1 UNK         0.0600 
    164 H164        3.0517  -15.8726  -44.4370 H         1 UNK         0.3000 
    165 H165        6.0295  -17.7501  -44.2052 H         1 UNK         0.0600 
    166 H166        7.1156  -15.7877  -45.2745 H         1 UNK         0.0600 
    167 H167        6.3355  -16.7855  -46.4910 H         1 UNK         0.0600 
    168 H168        5.5767  -15.2841  -45.9751 H         1 UNK         0.0600 
    169 H169        5.3736  -15.0457  -43.5243 H         1 UNK         0.3000 
    170 H170        3.7675  -15.7034  -40.4236 H         1 UNK         0.0600 
    171 H171        6.2057  -15.8413  -39.8975 H         1 UNK         0.0600 
    172 H172        6.5395  -14.5434  -41.0376 H         1 UNK         0.0600 
    173 H173        5.5784  -14.2297  -39.5921 H         1 UNK         0.0600 
    174 H174        4.5071  -13.2783  -41.7168 H         1 UNK         0.3000 
    175 H175        2.9358  -11.9184  -42.5536 H         1 UNK         0.0600 
    176 H176        2.5253  -11.7958  -44.9907 H         1 UNK         0.0600 
    177 H177        3.7870  -12.9737  -44.6647 H         1 UNK         0.0600 
    178 H178        2.1584  -13.5150  -45.0543 H         1 UNK         0.0600 
    179 H179        0.3551  -12.6577  -43.6812 H         1 UNK         0.3000 
    180 H180       -1.6020  -12.6122  -41.3934 H         1 UNK         0.0600 
    181 H181       -1.1141   -9.5941  -41.2295 H         1 UNK         0.0600 
    182 H182       -1.3145  -10.7011  -39.8795 H         1 UNK         0.0600 
    183 H183       -2.6658  -10.3851  -40.9530 H         1 UNK         0.0600 
    184 H184       -2.3489  -12.3190  -43.4237 H         1 UNK         0.3000 
    185 H185       -2.9427   -9.9882  -45.4229 H         1 UNK         0.0600 
    186 H186       -0.8652   -9.3592  -46.5521 H         1 UNK         0.0600 
    187 H187       -0.3457  -11.0323  -46.6667 H         1 UNK         0.0600 
    188 H188       -1.7446  -10.4736  -47.5839 H         1 UNK         0.0600 
    189 H189       -3.8411  -11.9750  -45.6607 H         1 UNK         0.3000 
    190 H190       -0.4441  -20.3349  -45.8570 H         1 UNK         0.3000 
    191 H191       -2.5497  -19.6342  -47.7018 H         1 UNK         0.0600 
    192 H192       -1.8096  -18.2437  -45.7443 H         1 UNK         0.0600 
    193 H193       -3.5309  -18.5952  -45.6818 H         1 UNK         0.0600 
    194 H194       -2.4138  -19.4744  -44.6408 H         1 UNK         0.0600 
    195 H195       -1.9364  -22.5651  -46.1110 H         1 UNK         0.3000 
    196 H196       -4.2996  -23.3318  -44.8987 H         1 UNK         0.0600 
    197 H197       -3.4289  -25.6593  -45.1926 H         1 UNK         0.0600 
    198 H198       -2.1600  -24.5588  -44.6792 H         1 UNK         0.0600 
    199 H199       -2.2517  -25.0770  -46.3627 H         1 UNK         0.0600 
    200 H200       -6.2461  -24.0234  -45.4957 H         1 UNK         0.3000 
    201 H201       -8.0902  -24.3963  -46.6621 H         1 UNK         0.0600 
    202 H202       -7.0177  -26.6049  -47.0717 H         1 UNK         0.0600 
    203 H203       -6.2889  -25.9990  -48.5557 H         1 UNK         0.0600 
    204 H204       -8.0365  -26.1421  -48.4238 H         1 UNK         0.0600 
    205 H205       -6.9597  -21.9221  -47.1065 H         1 UNK         0.3000 
    206 H206       -7.0128  -20.0688  -48.3163 H         1 UNK         0.0600 
    207 H207       -9.4351  -20.5925  -48.6670 H         1 UNK         0.0600 
    208 H208       -8.7505  -19.7374  -50.0399 H         1 UNK         0.0600 
    209 H209       -9.0417  -21.4664  -50.1464 H         1 UNK         0.0600 
    210 H210       -4.8756  -21.5282  -48.6361 H         1 UNK         0.3000 
    211 H211       -3.0724  -22.0811  -49.7889 H         1 UNK         0.0600 
    212 H212       -4.0011  -20.0003  -51.8459 H         1 UNK         0.0600 
    213 H213       -2.3708  -20.6360  -51.6869 H         1 UNK         0.0600 
    214 H214       -3.0519  -19.6623  -50.3998 H         1 UNK         0.0600 
    215 H215       -4.8439  -23.9406  -49.9163 H         1 UNK         0.3000 
    216 H216       -5.7561  -25.7127  -50.9022 H         1 UNK         0.0600 
    217 H217       -4.4144  -26.8744  -52.6328 H         1 UNK         0.0600 
    218 H218       -3.3576  -26.2169  -51.3931 H         1 UNK         0.0600 
    219 H219       -3.4945  -25.4116  -52.9544 H         1 UNK         0.0600 
    220 H220       -7.3049  -23.6588  -51.3548 H         1 UNK         0.3000 
    221 H221       -8.7807  -22.5504  -52.5860 H         1 UNK         0.0600 
    222 H222       -8.7879  -25.0239  -54.4001 H         1 UNK         0.0600 
    223 H223       -9.7147  -24.8455  -52.9109 H         1 UNK         0.0600 
    224 H224      -10.0573  -23.8122  -54.2892 H         1 UNK         0.0600 
    225 H225       -6.3669  -21.6188  -52.9517 H         1 UNK         0.3000 
    226 H226       -4.9929  -20.3501  -54.0482 H         1 UNK         0.0600 
    227 H227       -7.0590  -19.1641  -54.8118 H         1 UNK         0.0600 
    228 H228       -5.7488  -19.0211  -55.9705 H         1 UNK         0.0600 
    229 H229       -7.0709  -20.1345  -56.2850 H         1 UNK         0.0600 
    230 H230       -5.3088  -23.4394  -54.9891 H         1 UNK         0.3000 
    231 H231       -3.9768  -23.4617  -57.5348 H         1 UNK         0.0600 
    232 H232       -4.1585  -25.7164  -55.4772 H         1 UNK         0.0600 
    233 H233       -3.8162  -25.8727  -57.1918 H         1 UNK         0.0600 
    234 H234       -5.4089  -25.3457  -56.6672 H         1 UNK         0.0600 
    235 H235       -2.7992  -23.3396  -54.1809 H         1 UNK         0.3000 
    236 H236       -0.0776  -24.1175  -54.7689 H         1 UNK         0.0600 
    237 H237       -1.1206  -24.2775  -52.4821 H         1 UNK         0.0600 
    238 H238        0.3749  -23.3537  -52.4794 H         1 UNK         0.0600 
    239 H239       -1.1647  -22.5165  -52.3972 H         1 UNK         0.0600 
    240 H240       -1.8821  -21.2016  -55.2317 H         1 UNK         0.3000 
    241 H241        0.4704  -19.4615  -55.5015 H         1 UNK         0.0600 
    242 H242       -0.3418  -21.0408  -59.0766 H         1 UNK         0.3800 
    243 H243       -0.7932  -21.8261  -57.5857 H         1 UNK         0.3800 
    244 H244       -1.1819  -17.6645  -55.9893 H         1 UNK         0.0800 
    245 H245       -2.4823  -18.8235  -55.9463 H         1 UNK         0.0800 
    246 H246       -0.7043  -16.1664  -53.7891 H         1 UNK         0.0800 
    247 H247        0.5222  -17.3827  -54.0499 H         1 UNK         0.0800 
@<TRIPOS>BOND
     1    1    2 1    
     2    1  127 1    
     3    1  128 1    
     4    1  129 1    
     5    2    3 2    
     6    2    4 am   BACKBONE|DICT|INTERRES
     7    4    5 1    
     8    4  130 1    
     9    5    6 1    
    10    5   65 1    
    11    5  131 1    
    12    6    7 1    
    13    6  132 1    
    14    6  133 1    
    15    7    8 1    
    16    8    9 1    
    17    8  134 1    
    18    8  135 1    
    19    9   10 ar   
    20    9   14 ar   
    21   10   11 ar   
    22   10  136 1    
    23   11   12 ar   
    24   11  126 1    
    25   12   13 ar   
    26   12  137 1    
    27   13   14 ar   
    28   13   15 1    
    29   14  138 1    
    30   15   16 1    
    31   15  139 1    
    32   15  140 1    
    33   16   17 1    
    34   17   18 1    
    35   17  141 1    
    36   17  142 1    
    37   18   19 1    
    38   18   67 1    
    39   18  143 1    
    40   19   20 am   BACKBONE|DICT|INTERRES
    41   19  144 1    
    42   20   21 2    
    43   20   22 1    
    44   22   23 1    
    45   22   24 1    
    46   22  145 1    
    47   23  146 1    
    48   23  147 1    
    49   23  148 1    
    50   24   25 am   BACKBONE|DICT|INTERRES
    51   24  149 1    
    52   25   26 2    
    53   25   27 1    
    54   27   28 1    
    55   27   29 1    
    56   27  150 1    
    57   28  151 1    
    58   28  152 1    
    59   28  153 1    
    60   29   30 am   BACKBONE|DICT|INTERRES
    61   29  154 1    
    62   30   31 2    
    63   30   32 1    
    64   32   33 1    
    65   32   34 1    
    66   32  155 1    
    67   33  156 1    
    68   33  157 1    
    69   33  158 1    
    70   34   35 am   BACKBONE|DICT|INTERRES
    71   34  159 1    
    72   35   36 2    
    73   35   37 1    
    74   37   38 1    
    75   37   39 1    
    76   37  160 1    
    77   38  161 1    
    78   38  162 1    
    79   38  163 1    
    80   39   40 am   BACKBONE|DICT|INTERRES
    81   39  164 1    
    82   40   41 2    
    83   40   42 1    
    84   42   43 1    
    85   42   44 1    
    86   42  165 1    
    87   43  166 1    
    88   43  167 1    
    89   43  168 1    
    90   44   45 am   BACKBONE|DICT|INTERRES
    91   44  169 1    
    92   45   46 2    
    93   45   47 1    
    94   47   48 1    
    95   47   49 1    
    96   47  170 1    
    97   48  171 1    
    98   48  172 1    
    99   48  173 1    
   100   49   50 am   BACKBONE|DICT|INTERRES
   101   49  174 1    
   102   50   51 2    
   103   50   52 1    
   104   52   53 1    
   105   52   54 1    
   106   52  175 1    
   107   53  176 1    
   108   53  177 1    
   109   53  178 1    
   110   54   55 am   BACKBONE|DICT|INTERRES
   111   54  179 1    
   112   55   56 2    
   113   55   57 1    
   114   57   58 1    
   115   57   59 1    
   116   57  180 1    
   117   58  181 1    
   118   58  182 1    
   119   58  183 1    
   120   59   60 am   BACKBONE|DICT|INTERRES
   121   59  184 1    
   122   60   61 2    
   123   60   62 1    
   124   62   63 1    
   125   62   64 1    
   126   62  185 1    
   127   63  186 1    
   128   63  187 1    
   129   63  188 1    
   130   64   65 am   BACKBONE|DICT|INTERRES
   131   64  189 1    
   132   65   66 2    
   133   67   68 2    
   134   67   69 am   BACKBONE|DICT|INTERRES
   135   69   70 1    
   136   69  190 1    
   137   70   71 1    
   138   70   72 1    
   139   70  191 1    
   140   71  192 1    
   141   71  193 1    
   142   71  194 1    
   143   72   73 2    
   144   72   74 am   BACKBONE|DICT|INTERRES
   145   74   75 1    
   146   74  195 1    
   147   75   76 1    
   148   75   77 1    
   149   75  196 1    
   150   76  197 1    
   151   76  198 1    
   152   76  199 1    
   153   77   78 2    
   154   77   79 am   BACKBONE|DICT|INTERRES
   155   79   80 1    
   156   79  200 1    
   157   80   81 1    
   158   80   82 1    
   159   80  201 1    
   160   81  202 1    
   161   81  203 1    
   162   81  204 1    
   163   82   83 2    
   164   82   84 am   BACKBONE|DICT|INTERRES
   165   84   85 1    
   166   84  205 1    
   167   85   86 1    
   168   85   87 1    
   169   85  206 1    
   170   86  207 1    
   171   86  208 1    
   172   86  209 1    
   173   87   88 2    
   174   87   89 am   BACKBONE|DICT|INTERRES
   175   89   90 1    
   176   89  210 1    
   177   90   91 1    
   178   90   92 1    
   179   90  211 1    
   180   91  212 1    
   181   91  213 1    
   182   91  214 1    
   183   92   93 2    
   184   92   94 am   BACKBONE|DICT|INTERRES
   185   94   95 1    
   186   94  215 1    
   187   95   96 1    
   188   95   97 1    
   189   95  216 1    
   190   96  217 1    
   191   96  218 1    
   192   96  219 1    
   193   97   98 2    
   194   97   99 am   BACKBONE|DICT|INTERRES
   195   99  100 1    
   196   99  220 1    
   197  100  101 1    
   198  100  102 1    
   199  100  221 1    
   200  101  222 1    
   201  101  223 1    
   202  101  224 1    
   203  102  103 2    
   204  102  104 am   BACKBONE|DICT|INTERRES
   205  104  105 1    
   206  104  225 1    
   207  105  106 1    
   208  105  107 1    
   209  105  226 1    
   210  106  227 1    
   211  106  228 1    
   212  106  229 1    
   213  107  108 2    
   214  107  109 am   BACKBONE|DICT|INTERRES
   215  109  110 1    
   216  109  230 1    
   217  110  111 1    
   218  110  112 1    
   219  110  231 1    
   220  111  232 1    
   221  111  233 1    
   222  111  234 1    
   223  112  113 2    
   224  112  114 am   BACKBONE|DICT|INTERRES
   225  114  115 1    
   226  114  235 1    
   227  115  116 1    
   228  115  117 1    
   229  115  236 1    
   230  116  237 1    
   231  116  238 1    
   232  116  239 1    
   233  117  118 2    
   234  117  119 am   BACKBONE|DICT|INTERRES
   235  119  120 1    
   236  119  240 1    
   237  120  121 1    
   238  120  124 1    
   239  120  241 1    
   240  121  122 am   BACKBONE|DICT|INTERRES
   241  121  123 2    
   242  122  242 1    
   243  122  243 1    
   244  124  125 1    
   245  124  244 1    
   246  124  245 1    
   247  125  126 1    
   248  126  246 1    
   249  126  247 1    
@<TRIPOS>SUBSTRUCTURE
     1 UNK         1 GROUP             0       ****    0 ROOT    
