@<TRIPOS>MOLECULE
3R540
247   249    1
SMALL
USER_CHARGES


@<TRIPOS>ATOM
      1 CA          6.0468  -14.8882  -50.2907 C.3       0 UNK        -0.1800 
      2 C           5.6565  -14.7939  -48.8224 C.2       0 UNK         0.5000 
      3 O           6.5294  -14.7821  -47.9541 O.2       0 UNK        -0.5000 
      4 N           4.3492  -14.7361  -48.5439 N.am      1 UNK        -0.5000 
      5 CA          3.7813  -14.5726  -47.2054 C.3       1 UNK         0.1400 
      6 C6          2.2908  -15.0152  -47.1509 C.3       23 UNK        -0.0398 
      7 S7          1.0590  -13.8922  -47.9158 S.3       23 UNK        -0.2404 
      8 C8          1.2081  -14.2077  -49.7041 C.3       23 UNK        -0.0205 
      9 C9          0.6230  -15.5479  -50.1205 C.ar      23 UNK        -0.0193 
     10 C10        -0.7177  -15.6339  -50.5062 C.ar      23 UNK        -0.1150 
     11 C11        -1.2571  -16.8485  -50.9391 C.ar      23 UNK        -0.0193 
     12 C12        -0.4464  -17.9861  -50.9713 C.ar      23 UNK        -0.1150 
     13 C13         0.8884  -17.9199  -50.5592 C.ar      23 UNK        -0.0193 
     14 C14         1.4224  -16.6942  -50.1533 C.ar      23 UNK        -0.1150 
     15 C15         1.7518  -19.1732  -50.5344 C.3       23 UNK        -0.0205 
     16 S16         1.8934  -19.8525  -48.8481 S.3       23 UNK        -0.2404 
     17 C17         0.1583  -20.2833  -48.4924 C.3       23 UNK        -0.0398 
     18 CA          0.0116  -21.6431  -47.7734 C.3       11 UNK         0.1400 
     19 N           0.4072  -21.5995  -46.3638 N.am      11 UNK        -0.5000 
     20 C           0.5069  -22.6799  -45.5740 C.2       10 UNK         0.5000 
     21 O           0.3950  -23.8367  -45.9803 O.2       10 UNK        -0.5000 
     22 CA          0.7052  -22.4285  -44.0676 C.3       10 UNK         0.1400 
     23 CB          2.1853  -22.1854  -43.7385 C.3       10 UNK        -0.1800 
     24 N          -0.1022  -21.3118  -43.5740 N.am      10 UNK        -0.5000 
     25 C          -1.4426  -21.2758  -43.5788 C.2       9 UNK         0.5000 
     26 O          -2.1496  -22.2139  -43.9444 O.2       9 UNK        -0.5000 
     27 CA         -2.1040  -19.9509  -43.1586 C.3       9 UNK         0.1400 
     28 CB         -2.2250  -19.8484  -41.6306 C.3       9 UNK        -0.1800 
     29 N          -1.3867  -18.7883  -43.6837 N.am      9 UNK        -0.5000 
     30 C          -1.3260  -18.4636  -44.9835 C.2       8 UNK         0.5000 
     31 O          -1.9128  -19.0849  -45.8689 O.2       8 UNK        -0.5000 
     32 CA         -0.4169  -17.2799  -45.3599 C.3       8 UNK         0.1400 
     33 CB         -1.1649  -15.9488  -45.2063 C.3       8 UNK        -0.1800 
     34 N           0.8087  -17.2543  -44.5590 N.am      8 UNK        -0.5000 
     35 C           1.7955  -18.1552  -44.6865 C.2       7 UNK         0.5000 
     36 O           1.7780  -19.0647  -45.5137 O.2       7 UNK        -0.5000 
     37 CA          2.9730  -18.0613  -43.6944 C.3       7 UNK         0.1400 
     38 CB          4.0369  -17.0839  -44.2141 C.3       7 UNK        -0.1800 
     39 N           2.5613  -17.6507  -42.3519 N.am      7 UNK        -0.5000 
     40 C           1.6783  -18.3061  -41.5863 C.2       6 UNK         0.5000 
     41 O           1.2112  -19.4033  -41.8869 O.2       6 UNK        -0.5000 
     42 CA          1.1889  -17.6095  -40.2999 C.3       6 UNK         0.1400 
     43 CB          1.8187  -18.2691  -39.0641 C.3       6 UNK        -0.1800 
     44 N           1.4268  -16.1618  -40.2400 N.am      6 UNK        -0.5000 
     45 C           0.9859  -15.2449  -41.1134 C.2       5 UNK         0.5000 
     46 O           0.3722  -15.5221  -42.1474 O.2       5 UNK        -0.5000 
     47 CA          1.3810  -13.7882  -40.7979 C.3       5 UNK         0.1400 
     48 CB          2.8589  -13.5694  -41.1497 C.3       5 UNK        -0.1800 
     49 N           0.5783  -12.7881  -41.5057 N.am      5 UNK        -0.5000 
     50 C          -0.7443  -12.6175  -41.3643 C.2       4 UNK         0.5000 
     51 O          -1.4303  -13.2721  -40.5769 O.2       4 UNK        -0.5000 
     52 CA         -1.4264  -11.5156  -42.2039 C.3       4 UNK         0.1400 
     53 CB         -2.0323  -10.4352  -41.2923 C.3       4 UNK        -0.1800 
     54 N          -0.5456  -10.8571  -43.1709 N.am      4 UNK        -0.5000 
     55 C          -0.1721  -11.3626  -44.3531 C.2       3 UNK         0.5000 
     56 O          -0.5041  -12.4779  -44.7516 O.2       3 UNK        -0.5000 
     57 CA          0.7190  -10.4754  -45.2489 C.3       3 UNK         0.1400 
     58 CB          0.7011   -8.9778  -44.8674 C.3       3 UNK        -0.1800 
     59 N           2.0980  -10.9639  -45.3194 N.am      3 UNK        -0.5000 
     60 C           2.9445  -11.1741  -44.3019 C.2       2 UNK         0.5000 
     61 O           2.6519  -10.9952  -43.1185 O.2       2 UNK        -0.5000 
     62 CA          4.3408  -11.7028  -44.6908 C.3       2 UNK         0.1400 
     63 CB          5.2994  -11.8433  -43.4946 C.3       2 UNK        -0.1800 
     64 N           4.2309  -12.9925  -45.3754 N.am      2 UNK        -0.5000 
     65 C           4.0016  -13.1347  -46.6864 C.2       1 UNK         0.5000 
     66 O           3.9213  -12.1796  -47.4643 O.2       1 UNK        -0.5000 
     67 C          -1.4241  -22.1770  -47.9321 C.2       11 UNK         0.5000 
     68 O          -1.6262  -23.1140  -48.7021 O.2       11 UNK        -0.5000 
     69 N          -2.3898  -21.6047  -47.1983 N.am      12 UNK        -0.5000 
     70 CA         -3.8042  -21.9912  -47.2407 C.3       12 UNK         0.1400 
     71 CB         -4.6258  -21.0567  -46.3425 C.3       12 UNK        -0.1800 
     72 C          -4.0535  -23.4679  -46.8759 C.2       12 UNK         0.5000 
     73 O          -4.8751  -24.1187  -47.5211 O.2       12 UNK        -0.5000 
     74 N          -3.2915  -23.9915  -45.9055 N.am      13 UNK        -0.5000 
     75 CA         -3.2738  -25.4044  -45.5141 C.3       13 UNK         0.1400 
     76 CB         -2.4258  -25.5622  -44.2432 C.3       13 UNK        -0.1800 
     77 C          -2.7687  -26.3534  -46.6229 C.2       13 UNK         0.5000 
     78 O          -3.1484  -27.5244  -46.6338 O.2       13 UNK        -0.5000 
     79 N          -1.9561  -25.8290  -47.5492 N.am      14 UNK        -0.5000 
     80 CA         -1.4706  -26.5058  -48.7535 C.3       14 UNK         0.1400 
     81 CB          0.0179  -26.1615  -48.9394 C.3       14 UNK        -0.1800 
     82 C          -2.3013  -26.1190  -49.9975 C.2       14 UNK         0.5000 
     83 O          -1.8217  -26.2681  -51.1237 O.2       14 UNK        -0.5000 
     84 N          -3.5142  -25.5836  -49.7822 N.am      15 UNK        -0.5000 
     85 CA         -4.4755  -25.1032  -50.7810 C.3       15 UNK         0.1400 
     86 CB         -5.0124  -26.2724  -51.6318 C.3       15 UNK        -0.1800 
     87 C          -3.9435  -23.9461  -51.6507 C.2       15 UNK         0.5000 
     88 O          -4.4422  -23.7417  -52.7582 O.2       15 UNK        -0.5000 
     89 N          -2.9461  -23.2080  -51.1428 N.am      16 UNK        -0.5000 
     90 CA         -2.1715  -22.1650  -51.8217 C.3       16 UNK         0.1400 
     91 CB         -3.0498  -20.9344  -52.1186 C.3       16 UNK        -0.1800 
     92 C          -1.4011  -22.6990  -53.0474 C.2       16 UNK         0.5000 
     93 O          -1.2266  -21.9747  -54.0265 O.2       16 UNK        -0.5000 
     94 N          -0.9635  -23.9668  -52.9619 N.am      17 UNK        -0.5000 
     95 CA         -0.3481  -24.7640  -54.0275 C.3       17 UNK         0.1400 
     96 CB          1.0096  -24.1738  -54.4642 C.3       17 UNK        -0.1800 
     97 C          -1.3315  -24.9924  -55.1939 C.2       17 UNK         0.5000 
     98 O          -0.9844  -24.7770  -56.3565 O.2       17 UNK        -0.5000 
     99 N          -2.5520  -25.4170  -54.8321 N.am      18 UNK        -0.5000 
    100 CA        -3.7141  -25.6429  -55.6965 C.3       18 UNK         0.1400 
    101 CB        -3.4522  -26.7880  -56.6976 C.3       18 UNK        -0.1800 
    102 C         -4.2077  -24.3418  -56.3630 C.2       18 UNK         0.5000 
    103 O         -4.3764  -24.2864  -57.5828 O.2       18 UNK        -0.5000 
    104 N         -4.4433  -23.3212  -55.5315 N.am      19 UNK        -0.5000 
    105 CA        -4.9939  -22.0203  -55.9078 C.3       19 UNK         0.1400 
    106 CB        -3.8685  -20.9749  -55.9995 C.3       19 UNK        -0.1800 
    107 C         -6.1168  -21.6315  -54.9291 C.2       19 UNK         0.5000 
    108 O         -6.1748  -20.4926  -54.4617 O.2       19 UNK        -0.5000 
    109 N         -6.9841  -22.6113  -54.6295 N.am      20 UNK        -0.5000 
    110 CA        -8.2404  -22.5069  -53.8745 C.3       20 UNK         0.1400 
    111 CB        -9.2698  -21.6902  -54.6840 C.3       20 UNK        -0.1800 
    112 C         -8.1009  -21.9924  -52.4244 C.2       20 UNK         0.5000 
    113 O         -9.0769  -21.4859  -51.8695 O.2       20 UNK        -0.5000 
    114 N         -6.9047  -22.1416  -51.8343 N.am      21 UNK        -0.5000 
    115 CA        -6.5161  -21.6355  -50.5108 C.3       21 UNK         0.1400 
    116 CB        -7.2989  -22.3478  -49.3871 C.3       21 UNK        -0.1800 
    117 C         -6.5728  -20.0948  -50.4190 C.2       21 UNK         0.5000 
    118 O         -6.9878  -19.5535  -49.3929 O.2       21 UNK        -0.5000 
    119 N         -6.1288  -19.4358  -51.4987 N.am      22 UNK        -0.5000 
    120 CA        -6.0950  -17.9797  -51.7144 C.3       22 UNK         0.1400 
    121 C         -7.4830  -17.3762  -52.0806 C.2       22 UNK         0.5000 
    122 N         -7.5134  -16.1481  -52.5824 N.am      22 UNK        -0.7600 
    123 O         -8.5352  -17.9905  -51.9234 O.2       22 UNK        -0.5000 
    124 C124       -5.4034  -17.1672  -50.5779 C.3       23 UNK        -0.0398 
    125 S125       -3.7354  -17.7538  -50.1199 S.3       23 UNK        -0.2404 
    126 C126       -2.7117  -16.9272  -51.3759 C.3       23 UNK        -0.0205 
    127 H127        5.1730  -14.9098  -50.9426 H         1 UNK         0.0600 
    128 H128        6.6249  -15.7951  -50.4679 H         1 UNK         0.0600 
    129 H129        6.6594  -14.0315  -50.5716 H         1 UNK         0.0600 
    130 H130        3.6874  -14.7007  -49.3027 H         1 UNK         0.3000 
    131 H131        4.3369  -15.2441  -46.5484 H         1 UNK         0.0600 
    132 H132        2.1761  -16.0181  -47.5615 H         1 UNK         0.0800 
    133 H133        1.9982  -15.1120  -46.1047 H         1 UNK         0.0800 
    134 H134        0.6801  -13.4095  -50.2281 H         1 UNK         0.0800 
    135 H135        2.2433  -14.1224  -50.0287 H         1 UNK         0.0800 
    136 H136       -1.3389  -14.7496  -50.4789 H         1 UNK         0.1150 
    137 H137       -0.8643  -18.9263  -51.2997 H         1 UNK         0.1150 
    138 H138        2.4586  -16.6415  -49.8521 H         1 UNK         0.1150 
    139 H139        1.3495  -19.9348  -51.2045 H         1 UNK         0.0800 
    140 H140        2.7498  -18.9365  -50.9061 H         1 UNK         0.0800 
    141 H141       -0.3819  -20.3070  -49.4388 H         1 UNK         0.0800 
    142 H142       -0.2898  -19.4765  -47.9121 H         1 UNK         0.0800 
    143 H143        0.6668  -22.3602  -48.2733 H         1 UNK         0.0600 
    144 H144        0.5952  -20.6832  -45.9712 H         1 UNK         0.3000 
    145 H145        0.3833  -23.3267  -43.5366 H         1 UNK         0.0600 
    146 H146        2.7952  -23.0381  -44.0390 H         1 UNK         0.0600 
    147 H147        2.5748  -21.3077  -44.2532 H         1 UNK         0.0600 
    148 H148        2.3332  -22.0392  -42.6683 H         1 UNK         0.0600 
    149 H149        0.4020  -20.5200  -43.1843 H         1 UNK         0.3000 
    150 H150       -3.1135  -19.9359  -43.5738 H         1 UNK         0.0600 
    151 H151       -2.7172  -18.9219  -41.3346 H         1 UNK         0.0600 
    152 H152       -1.2534  -19.8846  -41.1390 H         1 UNK         0.0600 
    153 H153       -2.8195  -20.6726  -41.2347 H         1 UNK         0.0600 
    154 H154       -0.8465  -18.2469  -43.0256 H         1 UNK         0.3000 
    155 H155       -0.1386  -17.3900  -46.4105 H         1 UNK         0.0600 
    156 H156       -2.0607  -15.9310  -45.8282 H         1 UNK         0.0600 
    157 H157       -0.5411  -15.1100  -45.5135 H         1 UNK         0.0600 
    158 H158       -1.4750  -15.7731  -44.1756 H         1 UNK         0.0600 
    159 H159        0.8472  -16.5693  -43.8101 H         1 UNK         0.3000 
    160 H160        3.4236  -19.0527  -43.6177 H         1 UNK         0.0600 
    161 H161        4.3664  -17.3631  -45.2159 H         1 UNK         0.0600 
    162 H162        4.9183  -17.0833  -43.5725 H         1 UNK         0.0600 
    163 H163        3.6547  -16.0640  -44.2602 H         1 UNK         0.0600 
    164 H164        2.8978  -16.7580  -42.0250 H         1 UNK         0.3000 
    165 H165        0.1087  -17.7604  -40.2526 H         1 UNK         0.0600 
    166 H166        1.4002  -17.8637  -38.1427 H         1 UNK         0.0600 
    167 H167        1.6334  -19.3442  -39.0560 H         1 UNK         0.0600 
    168 H168        2.8991  -18.1222  -39.0373 H         1 UNK         0.0600 
    169 H169        1.9489  -15.8417  -39.4368 H         1 UNK         0.3000 
    170 H170        1.2458  -13.6224  -39.7273 H         1 UNK         0.0600 
    171 H171        3.1765  -12.5543  -40.9106 H         1 UNK         0.0600 
    172 H172        3.5084  -14.2470  -40.5944 H         1 UNK         0.0600 
    173 H173        3.0365  -13.7397  -42.2119 H         1 UNK         0.0600 
    174 H174        1.0715  -12.1981  -42.1648 H         1 UNK         0.3000 
    175 H175       -2.2423  -11.9926  -42.7509 H         1 UNK         0.0600 
    176 H176       -1.2640   -9.9222  -40.7125 H         1 UNK         0.0600 
    177 H177       -2.5724   -9.6865  -41.8722 H         1 UNK         0.0600 
    178 H178       -2.7422  -10.8679  -40.5861 H         1 UNK         0.0600 
    179 H179       -0.1904   -9.9492  -42.9082 H         1 UNK         0.3000 
    180 H180        0.3115  -10.5607  -46.2575 H         1 UNK         0.0600 
    181 H181        1.2483   -8.3858  -45.6012 H         1 UNK         0.0600 
    182 H182        1.1547   -8.7906  -43.8936 H         1 UNK         0.0600 
    183 H183       -0.3183   -8.5902  -44.8417 H         1 UNK         0.0600 
    184 H184        2.4309  -11.1973  -46.2480 H         1 UNK         0.3000 
    185 H185        4.7814  -10.9654  -45.3653 H         1 UNK         0.0600 
    186 H186        4.9741  -12.6096  -42.7933 H         1 UNK         0.0600 
    187 H187        6.3028  -12.1069  -43.8290 H         1 UNK         0.0600 
    188 H188        5.3796  -10.9051  -42.9440 H         1 UNK         0.0600 
    189 H189        4.2736  -13.8106  -44.7867 H         1 UNK         0.3000 
    190 H190       -2.1569  -20.8111  -46.6059 H         1 UNK         0.3000 
    191 H191       -4.1431  -21.8500  -48.2686 H         1 UNK         0.0600 
    192 H192       -4.3174  -21.1287  -45.2999 H         1 UNK         0.0600 
    193 H193       -5.6873  -21.3020  -46.3876 H         1 UNK         0.0600 
    194 H194       -4.5196  -20.0173  -46.6543 H         1 UNK         0.0600 
    195 H195       -2.6852  -23.3681  -45.3782 H         1 UNK         0.3000 
    196 H196       -4.2993  -25.6957  -45.2783 H         1 UNK         0.0600 
    197 H197       -2.4125  -26.5995  -43.9064 H         1 UNK         0.0600 
    198 H198       -2.8240  -24.9603  -43.4262 H         1 UNK         0.0600 
    199 H199       -1.3924  -25.2569  -44.4104 H         1 UNK         0.0600 
    200 H200       -1.7154  -24.8469  -47.4800 H         1 UNK         0.3000 
    201 H201       -1.5550  -27.5875  -48.6351 H         1 UNK         0.0600 
    202 H202        0.5954  -26.4236  -48.0528 H         1 UNK         0.0600 
    203 H203        0.1658  -25.0979  -49.1293 H         1 UNK         0.0600 
    204 H204        0.4481  -26.7089  -49.7789 H         1 UNK         0.0600 
    205 H205       -3.8010  -25.4415  -48.8207 H         1 UNK         0.3000 
    206 H206       -5.3148  -24.6935  -50.2195 H         1 UNK         0.0600 
    207 H207       -5.8302  -25.9472  -52.2760 H         1 UNK         0.0600 
    208 H208       -4.2404  -26.6976  -52.2736 H         1 UNK         0.0600 
    209 H209       -5.3998  -27.0718  -51.0002 H         1 UNK         0.0600 
    210 H210       -2.6027  -23.4380  -50.2121 H         1 UNK         0.3000 
    211 H211       -1.4017  -21.8469  -51.1186 H         1 UNK         0.0600 
    212 H212       -3.8856  -21.1748  -52.7730 H         1 UNK         0.0600 
    213 H213       -2.4776  -20.1403  -52.5984 H         1 UNK         0.0600 
    214 H214       -3.4553  -20.5245  -51.1950 H         1 UNK         0.0600 
    215 H215       -1.1845  -24.4877  -52.1205 H         1 UNK         0.3000 
    216 H216       -0.1515  -25.7471  -53.5968 H         1 UNK         0.0600 
    217 H217        1.5184  -24.8452  -55.1567 H         1 UNK         0.0600 
    218 H218        1.6694  -24.0290  -53.6088 H         1 UNK         0.0600 
    219 H219        0.8973  -23.2136  -54.9681 H         1 UNK         0.0600 
    220 H220       -2.7242  -25.5305  -53.8433 H         1 UNK         0.3000 
    221 H221       -4.5207  -25.9689  -55.0379 H         1 UNK         0.0600 
    222 H222       -2.6867  -26.5265  -57.4284 H         1 UNK         0.0600 
    223 H223       -3.1303  -27.6940  -56.1842 H         1 UNK         0.0600 
    224 H224       -4.3589  -27.0342  -57.2513 H         1 UNK         0.0600 
    225 H225       -4.3134  -23.4671  -54.5308 H         1 UNK         0.3000 
    226 H226       -5.4657  -22.0881  -56.8900 H         1 UNK         0.0600 
    227 H227       -3.0904  -21.2940  -56.6930 H         1 UNK         0.0600 
    228 H228       -4.2516  -20.0183  -56.3564 H         1 UNK         0.0600 
    229 H229       -3.3999  -20.7991  -55.0330 H         1 UNK         0.0600 
    230 H230       -6.8014  -23.5204  -55.0303 H         1 UNK         0.3000 
    231 H231       -8.6240  -23.5245  -53.7894 H         1 UNK         0.0600 
    232 H232       -8.9832  -20.6402  -54.7541 H         1 UNK         0.0600 
    233 H233       -9.3738  -22.0783  -55.6972 H         1 UNK         0.0600 
    234 H234      -10.2572  -21.7298  -54.2227 H         1 UNK         0.0600 
    235 H235       -6.1689  -22.5788  -52.3776 H         1 UNK         0.3000 
    236 H236       -5.4662  -21.8920  -50.3790 H         1 UNK         0.0600 
    237 H237       -8.3531  -22.0707  -49.3857 H         1 UNK         0.0600 
    238 H238       -7.2380  -23.4313  -49.4838 H         1 UNK         0.0600 
    239 H239       -6.8956  -22.0894  -48.4080 H         1 UNK         0.0600 
    240 H240       -5.9077  -19.9810  -52.3228 H         1 UNK         0.3000 
    241 H241       -5.4862  -17.8622  -52.6117 H         1 UNK         0.0600 
    242 H242       -8.4056  -15.7451  -52.8242 H         1 UNK         0.3800 
    243 H243       -6.6735  -15.6151  -52.7462 H         1 UNK         0.3800 
    244 H244       -5.3284  -16.1141  -50.8513 H         1 UNK         0.0800 
    245 H245       -6.0164  -17.1814  -49.6762 H         1 UNK         0.0800 
    246 H246       -3.0967  -15.9248  -51.5681 H         1 UNK         0.0800 
    247 H247       -2.7863  -17.4726  -52.3178 H         1 UNK         0.0800 
@<TRIPOS>BOND
     1    1    2 1    
     2    1  127 1    
     3    1  128 1    
     4    1  129 1    
     5    2    3 2    
     6    2    4 am   BACKBONE|DICT|INTERRES
     7    4    5 1    
     8    4  130 1    
     9    5    6 1    
    10    5   65 1    
    11    5  131 1    
    12    6    7 1    
    13    6  132 1    
    14    6  133 1    
    15    7    8 1    
    16    8    9 1    
    17    8  134 1    
    18    8  135 1    
    19    9   10 ar   
    20    9   14 ar   
    21   10   11 ar   
    22   10  136 1    
    23   11   12 ar   
    24   11  126 1    
    25   12   13 ar   
    26   12  137 1    
    27   13   14 ar   
    28   13   15 1    
    29   14  138 1    
    30   15   16 1    
    31   15  139 1    
    32   15  140 1    
    33   16   17 1    
    34   17   18 1    
    35   17  141 1    
    36   17  142 1    
    37   18   19 1    
    38   18   67 1    
    39   18  143 1    
    40   19   20 am   BACKBONE|DICT|INTERRES
    41   19  144 1    
    42   20   21 2    
    43   20   22 1    
    44   22   23 1    
    45   22   24 1    
    46   22  145 1    
    47   23  146 1    
    48   23  147 1    
    49   23  148 1    
    50   24   25 am   BACKBONE|DICT|INTERRES
    51   24  149 1    
    52   25   26 2    
    53   25   27 1    
    54   27   28 1    
    55   27   29 1    
    56   27  150 1    
    57   28  151 1    
    58   28  152 1    
    59   28  153 1    
    60   29   30 am   BACKBONE|DICT|INTERRES
    61   29  154 1    
    62   30   31 2    
    63   30   32 1    
    64   32   33 1    
    65   32   34 1    
    66   32  155 1    
    67   33  156 1    
    68   33  157 1    
    69   33  158 1    
    70   34   35 am   BACKBONE|DICT|INTERRES
    71   34  159 1    
    72   35   36 2    
    73   35   37 1    
    74   37   38 1    
    75   37   39 1    
    76   37  160 1    
    77   38  161 1    
    78   38  162 1    
    79   38  163 1    
    80   39   40 am   BACKBONE|DICT|INTERRES
    81   39  164 1    
    82   40   41 2    
    83   40   42 1    
    84   42   43 1    
    85   42   44 1    
    86   42  165 1    
    87   43  166 1    
    88   43  167 1    
    89   43  168 1    
    90   44   45 am   BACKBONE|DICT|INTERRES
    91   44  169 1    
    92   45   46 2    
    93   45   47 1    
    94   47   48 1    
    95   47   49 1    
    96   47  170 1    
    97   48  171 1    
    98   48  172 1    
    99   48  173 1    
   100   49   50 am   BACKBONE|DICT|INTERRES
   101   49  174 1    
   102   50   51 2    
   103   50   52 1    
   104   52   53 1    
   105   52   54 1    
   106   52  175 1    
   107   53  176 1    
   108   53  177 1    
   109   53  178 1    
   110   54   55 am   BACKBONE|DICT|INTERRES
   111   54  179 1    
   112   55   56 2    
   113   55   57 1    
   114   57   58 1    
   115   57   59 1    
   116   57  180 1    
   117   58  181 1    
   118   58  182 1    
   119   58  183 1    
   120   59   60 am   BACKBONE|DICT|INTERRES
   121   59  184 1    
   122   60   61 2    
   123   60   62 1    
   124   62   63 1    
   125   62   64 1    
   126   62  185 1    
   127   63  186 1    
   128   63  187 1    
   129   63  188 1    
   130   64   65 am   BACKBONE|DICT|INTERRES
   131   64  189 1    
   132   65   66 2    
   133   67   68 2    
   134   67   69 am   BACKBONE|DICT|INTERRES
   135   69   70 1    
   136   69  190 1    
   137   70   71 1    
   138   70   72 1    
   139   70  191 1    
   140   71  192 1    
   141   71  193 1    
   142   71  194 1    
   143   72   73 2    
   144   72   74 am   BACKBONE|DICT|INTERRES
   145   74   75 1    
   146   74  195 1    
   147   75   76 1    
   148   75   77 1    
   149   75  196 1    
   150   76  197 1    
   151   76  198 1    
   152   76  199 1    
   153   77   78 2    
   154   77   79 am   BACKBONE|DICT|INTERRES
   155   79   80 1    
   156   79  200 1    
   157   80   81 1    
   158   80   82 1    
   159   80  201 1    
   160   81  202 1    
   161   81  203 1    
   162   81  204 1    
   163   82   83 2    
   164   82   84 am   BACKBONE|DICT|INTERRES
   165   84   85 1    
   166   84  205 1    
   167   85   86 1    
   168   85   87 1    
   169   85  206 1    
   170   86  207 1    
   171   86  208 1    
   172   86  209 1    
   173   87   88 2    
   174   87   89 am   BACKBONE|DICT|INTERRES
   175   89   90 1    
   176   89  210 1    
   177   90   91 1    
   178   90   92 1    
   179   90  211 1    
   180   91  212 1    
   181   91  213 1    
   182   91  214 1    
   183   92   93 2    
   184   92   94 am   BACKBONE|DICT|INTERRES
   185   94   95 1    
   186   94  215 1    
   187   95   96 1    
   188   95   97 1    
   189   95  216 1    
   190   96  217 1    
   191   96  218 1    
   192   96  219 1    
   193   97   98 2    
   194   97   99 am   BACKBONE|DICT|INTERRES
   195   99  100 1    
   196   99  220 1    
   197  100  101 1    
   198  100  102 1    
   199  100  221 1    
   200  101  222 1    
   201  101  223 1    
   202  101  224 1    
   203  102  103 2    
   204  102  104 am   BACKBONE|DICT|INTERRES
   205  104  105 1    
   206  104  225 1    
   207  105  106 1    
   208  105  107 1    
   209  105  226 1    
   210  106  227 1    
   211  106  228 1    
   212  106  229 1    
   213  107  108 2    
   214  107  109 am   BACKBONE|DICT|INTERRES
   215  109  110 1    
   216  109  230 1    
   217  110  111 1    
   218  110  112 1    
   219  110  231 1    
   220  111  232 1    
   221  111  233 1    
   222  111  234 1    
   223  112  113 2    
   224  112  114 am   BACKBONE|DICT|INTERRES
   225  114  115 1    
   226  114  235 1    
   227  115  116 1    
   228  115  117 1    
   229  115  236 1    
   230  116  237 1    
   231  116  238 1    
   232  116  239 1    
   233  117  118 2    
   234  117  119 am   BACKBONE|DICT|INTERRES
   235  119  120 1    
   236  119  240 1    
   237  120  121 1    
   238  120  124 1    
   239  120  241 1    
   240  121  122 am   BACKBONE|DICT|INTERRES
   241  121  123 2    
   242  122  242 1    
   243  122  243 1    
   244  124  125 1    
   245  124  244 1    
   246  124  245 1    
   247  125  126 1    
   248  126  246 1    
   249  126  247 1    
@<TRIPOS>SUBSTRUCTURE
     1 UNK         1 GROUP             0       ****    0 ROOT    
