@<TRIPOS>MOLECULE
3R540
247   249    1
SMALL
USER_CHARGES


@<TRIPOS>ATOM
      1 CA          8.9063  -16.2429  -45.8773 C.3       0 UNK        -0.1800 
      2 C           7.5890  -15.9281  -45.1832 C.2       0 UNK         0.5000 
      3 O           7.4268  -16.2386  -44.0021 O.2       0 UNK        -0.5000 
      4 N           6.6480  -15.3088  -45.9065 N.am      1 UNK        -0.5000 
      5 CA          5.3198  -14.9200  -45.4212 C.3       1 UNK         0.1400 
      6 C6          4.2947  -14.8027  -46.5778 C.3       23 UNK        -0.0398 
      7 S7          3.8606  -16.4444  -47.2379 S.3       23 UNK        -0.2404 
      8 C8          3.9660  -16.2060  -49.0420 C.3       23 UNK        -0.0205 
      9 C9          3.1860  -17.2870  -49.7819 C.ar      23 UNK        -0.0193 
     10 C10         2.1126  -16.9469  -50.6130 C.ar      23 UNK        -0.1150 
     11 C11         1.3527  -17.9410  -51.2380 C.ar      23 UNK        -0.0193 
     12 C12         1.6760  -19.2842  -51.0254 C.ar      23 UNK        -0.1150 
     13 C13         2.7464  -19.6421  -50.2011 C.ar      23 UNK        -0.0193 
     14 C14         3.5144  -18.6351  -49.6070 C.ar      23 UNK        -0.1150 
     15 C15         3.0400  -21.1192  -49.9454 C.3       23 UNK        -0.0205 
     16 S16         3.4006  -21.5272  -48.1981 S.3       23 UNK        -0.2404 
     17 C17         2.0023  -20.7618  -47.3030 C.3       23 UNK        -0.0398 
     18 CA          0.9116  -21.7556  -46.8414 C.3       11 UNK         0.1400 
     19 N          -0.0212  -21.1172  -45.9145 N.am      11 UNK        -0.5000 
     20 C          -0.9603  -21.7431  -45.1940 C.2       10 UNK         0.5000 
     21 O          -1.1138  -22.9644  -45.1783 O.2       10 UNK        -0.5000 
     22 CA         -1.9076  -20.8463  -44.3727 C.3       10 UNK         0.1400 
     23 CB         -1.2718  -20.4686  -43.0266 C.3       10 UNK        -0.1800 
     24 N          -2.3071  -19.6293  -45.0847 N.am      10 UNK        -0.5000 
     25 C          -3.0217  -19.6243  -46.2202 C.2       9 UNK         0.5000 
     26 O          -3.4317  -20.6424  -46.7724 O.2       9 UNK        -0.5000 
     27 CA         -3.2804  -18.2623  -46.8852 C.3       9 UNK         0.1400 
     28 CB         -4.4239  -17.5176  -46.1823 C.3       9 UNK        -0.1800 
     29 N          -2.0880  -17.4192  -46.9286 N.am      9 UNK        -0.5000 
     30 C          -0.9547  -17.7508  -47.5643 C.2       8 UNK         0.5000 
     31 O          -0.7983  -18.8036  -48.1830 O.2       8 UNK        -0.5000 
     32 CA          0.2257  -16.7788  -47.4162 C.3       8 UNK         0.1400 
     33 CB          0.0126  -15.4996  -48.2377 C.3       8 UNK        -0.1800 
     34 N           0.4776  -16.4161  -46.0234 N.am      8 UNK        -0.5000 
     35 C           0.7878  -17.2814  -45.0492 C.2       7 UNK         0.5000 
     36 O           0.9001  -18.4950  -45.2125 O.2       7 UNK        -0.5000 
     37 CA          0.9645  -16.6939  -43.6420 C.3       7 UNK         0.1400 
     38 CB          2.3718  -16.1039  -43.4707 C.3       7 UNK        -0.1800 
     39 N          -0.0498  -15.6831  -43.3456 N.am      7 UNK        -0.5000 
     40 C          -1.3451  -15.9636  -43.1428 C.2       6 UNK         0.5000 
     41 O          -1.8090  -17.1047  -43.1372 O.2       6 UNK        -0.5000 
     42 CA         -2.2837  -14.7587  -42.9583 C.3       6 UNK         0.1400 
     43 CB         -2.1860  -14.2026  -41.5299 C.3       6 UNK        -0.1800 
     44 N          -2.0130  -13.6893  -43.9201 N.am      6 UNK        -0.5000 
     45 C          -2.2244  -13.7969  -45.2400 C.2       5 UNK         0.5000 
     46 O          -2.6737  -14.8071  -45.7797 O.2       5 UNK        -0.5000 
     47 CA         -1.8438  -12.5877  -46.1142 C.3       5 UNK         0.1400 
     48 CB         -3.0262  -11.6136  -46.2221 C.3       5 UNK        -0.1800 
     49 N          -0.6615  -11.8572  -45.6550 N.am      5 UNK        -0.5000 
     50 C           0.5567  -12.3771  -45.4519 C.2       4 UNK         0.5000 
     51 O           0.8219  -13.5741  -45.5785 O.2       4 UNK        -0.5000 
     52 CA          1.6729  -11.4085  -45.0151 C.3       4 UNK         0.1400 
     53 CB          1.2482   -9.9235  -44.9538 C.3       4 UNK        -0.1800 
     54 N           2.2741  -11.8194  -43.7460 N.am      4 UNK        -0.5000 
     55 C           1.6564  -11.9813  -42.5650 C.2       3 UNK         0.5000 
     56 O           0.4454  -11.8193  -42.4045 O.2       3 UNK        -0.5000 
     57 CA          2.5247  -12.4096  -41.3615 C.3       3 UNK         0.1400 
     58 CB          1.8446  -13.5206  -40.5426 C.3       3 UNK        -0.1800 
     59 N           3.8666  -12.8495  -41.7606 N.am      3 UNK        -0.5000 
     60 C           4.9361  -12.0469  -41.8612 C.2       2 UNK         0.5000 
     61 O           4.9227  -10.8507  -41.5700 O.2       2 UNK        -0.5000 
     62 CA          6.2312  -12.6751  -42.4139 C.3       2 UNK         0.1400 
     63 CB          7.1074  -13.1991  -41.2663 C.3       2 UNK        -0.1800 
     64 N           6.0085  -13.7584  -43.3767 N.am      2 UNK        -0.5000 
     65 C           5.4002  -13.6382  -44.5643 C.2       1 UNK         0.5000 
     66 O           4.9248  -12.5798  -44.9780 O.2       1 UNK        -0.5000 
     67 C           0.1634  -22.3967  -48.0259 C.2       11 UNK         0.5000 
     68 O           0.2919  -23.6021  -48.2433 O.2       11 UNK        -0.5000 
     69 N          -0.6351  -21.6022  -48.7524 N.am      12 UNK        -0.5000 
     70 CA         -1.3942  -22.0624  -49.9159 C.3       12 UNK         0.1400 
     71 CB         -1.9407  -20.8682  -50.7017 C.3       12 UNK        -0.1800 
     72 C          -2.4959  -23.0840  -49.5831 C.2       12 UNK         0.5000 
     73 O          -2.7661  -23.9538  -50.4102 O.2       12 UNK        -0.5000 
     74 N          -3.0655  -23.0269  -48.3717 N.am      13 UNK        -0.5000 
     75 CA         -3.9969  -24.0330  -47.8519 C.3       13 UNK         0.1400 
     76 CB         -4.6106  -23.5431  -46.5322 C.3       13 UNK        -0.1800 
     77 C          -3.3690  -25.4310  -47.6685 C.2       13 UNK         0.5000 
     78 O          -4.1104  -26.4126  -47.6309 O.2       13 UNK        -0.5000 
     79 N          -2.0347  -25.5051  -47.5759 N.am      14 UNK        -0.5000 
     80 CA         -1.2753  -26.7520  -47.5678 C.3       14 UNK         0.1400 
     81 CB         -0.1573  -26.6585  -46.5168 C.3       14 UNK        -0.1800 
     82 C          -0.6933  -27.0519  -48.9602 C.2       14 UNK         0.5000 
     83 O          -0.8001  -28.1861  -49.4272 O.2       14 UNK        -0.5000 
     84 N          -0.0701  -26.0436  -49.5878 N.am      15 UNK        -0.5000 
     85 CA          0.6795  -26.1809  -50.8376 C.3       15 UNK         0.1400 
     86 CB          1.5796  -24.9499  -51.0316 C.3       15 UNK        -0.1800 
     87 C          -0.2036  -26.4103  -52.0773 C.2       15 UNK         0.5000 
     88 O           0.1500  -27.2383  -52.9182 O.2       15 UNK        -0.5000 
     89 N          -1.3205  -25.6784  -52.1757 N.am      16 UNK        -0.5000 
     90 CA         -2.2944  -25.7947  -53.2626 C.3       16 UNK         0.1400 
     91 CB         -2.6781  -24.3943  -53.7711 C.3       16 UNK        -0.1800 
     92 C          -3.5345  -26.5645  -52.7870 C.2       16 UNK         0.5000 
     93 O          -3.9899  -27.4675  -53.4896 O.2       16 UNK        -0.5000 
     94 N          -4.0321  -26.2062  -51.5926 N.am      17 UNK        -0.5000 
     95 CA         -5.1581  -26.8190  -50.8793 C.3       17 UNK         0.1400 
     96 CB         -4.7748  -28.2327  -50.3935 C.3       17 UNK        -0.1800 
     97 C          -6.4790  -26.7914  -51.6780 C.2       17 UNK         0.5000 
     98 O          -7.2185  -27.7780  -51.6902 O.2       17 UNK        -0.5000 
     99 N          -6.7498  -25.6601  -52.3387 N.am      18 UNK        -0.5000 
    100 CA        -7.9195  -25.4415  -53.1827 C.3       18 UNK         0.1400 
    101 CB        -7.6291  -25.9658  -54.6012 C.3       18 UNK        -0.1800 
    102 C         -8.2731  -23.9480  -53.2098 C.2       18 UNK         0.5000 
    103 O         -7.4368  -23.1091  -52.8595 O.2       18 UNK        -0.5000 
    104 N         -9.5046  -23.6546  -53.6520 N.am      19 UNK        -0.5000 
    105 CA       -10.0887  -22.3218  -53.8350 C.3       19 UNK         0.1400 
    106 CB        -9.4310  -21.6217  -55.0471 C.3       19 UNK        -0.1800 
    107 C        -10.0672  -21.4883  -52.5339 C.2       19 UNK         0.5000 
    108 O        -10.4006  -22.0164  -51.4711 O.2       19 UNK        -0.5000 
    109 N         -9.6629  -20.2169  -52.6332 N.am      20 UNK        -0.5000 
    110 CA        -9.4671  -19.2921  -51.5155 C.3       20 UNK         0.1400 
    111 CB        -9.9980  -17.9070  -51.9280 C.3       20 UNK        -0.1800 
    112 C         -7.9861  -19.2385  -51.0823 C.2       20 UNK         0.5000 
    113 O         -7.5322  -18.1997  -50.5939 O.2       20 UNK        -0.5000 
    114 N         -7.2489  -20.3430  -51.2930 N.am      21 UNK        -0.5000 
    115 CA        -5.8086  -20.4977  -51.0793 C.3       21 UNK         0.1400 
    116 CB        -5.4745  -20.3828  -49.5731 C.3       21 UNK        -0.1800 
    117 C         -5.0460  -19.5253  -52.0036 C.2       21 UNK         0.5000 
    118 O         -5.0074  -19.7576  -53.2128 O.2       21 UNK        -0.5000 
    119 N         -4.5215  -18.4331  -51.4439 N.am      22 UNK        -0.5000 
    120 CA        -4.0588  -17.2498  -52.1832 C.3       22 UNK         0.1400 
    121 C         -4.4870  -15.9247  -51.4880 C.2       22 UNK         0.5000 
    122 N         -5.5487  -15.9231  -50.6866 N.am      22 UNK        -0.7600 
    123 O         -3.8760  -14.8789  -51.6899 O.2       22 UNK        -0.5000 
    124 C124       -2.5660  -17.3256  -52.6093 C.3       23 UNK        -0.0398 
    125 S125       -1.3768  -17.4239  -51.2315 S.3       23 UNK        -0.2404 
    126 C126        0.1890  -17.5717  -52.1493 C.3       23 UNK        -0.0205 
    127 H127        8.9053  -15.9152  -46.9172 H         1 UNK         0.0600 
    128 H128        9.0917  -17.3168  -45.8595 H         1 UNK         0.0600 
    129 H129        9.7288  -15.7449  -45.3640 H         1 UNK         0.0600 
    130 H130        6.8482  -15.0655  -46.8659 H         1 UNK         0.3000 
    131 H131        4.9650  -15.7051  -44.7518 H         1 UNK         0.0600 
    132 H132        4.6753  -14.1574  -47.3710 H         1 UNK         0.0800 
    133 H133        3.3643  -14.3478  -46.2335 H         1 UNK         0.0800 
    134 H134        3.5786  -15.2186  -49.2976 H         1 UNK         0.0800 
    135 H135        5.0110  -16.2277  -49.3535 H         1 UNK         0.0800 
    136 H136        1.8550  -15.9079  -50.7621 H         1 UNK         0.1150 
    137 H137        1.0873  -20.0554  -51.4996 H         1 UNK         0.1150 
    138 H138        4.3420  -18.9001  -48.9643 H         1 UNK         0.1150 
    139 H139        2.1999  -21.7349  -50.2704 H         1 UNK         0.0800 
    140 H140        3.8923  -21.4163  -50.5573 H         1 UNK         0.0800 
    141 H141        1.5641  -19.9505  -47.8828 H         1 UNK         0.0800 
    142 H142        2.4383  -20.2800  -46.4272 H         1 UNK         0.0800 
    143 H143        1.4044  -22.5608  -46.2924 H         1 UNK         0.0600 
    144 H144        0.0658  -20.1085  -45.8213 H         1 UNK         0.3000 
    145 H145       -2.8123  -21.4231  -44.1697 H         1 UNK         0.0600 
    146 H146       -1.9695  -19.9064  -42.4056 H         1 UNK         0.0600 
    147 H147       -0.9827  -21.3591  -42.4672 H         1 UNK         0.0600 
    148 H148       -0.3779  -19.8588  -43.1597 H         1 UNK         0.0600 
    149 H149       -2.0047  -18.7477  -44.6883 H         1 UNK         0.3000 
    150 H150       -3.5828  -18.4515  -47.9170 H         1 UNK         0.0600 
    151 H151       -5.3241  -18.1320  -46.1413 H         1 UNK         0.0600 
    152 H152       -4.6801  -16.6008  -46.7136 H         1 UNK         0.0600 
    153 H153       -4.1591  -17.2483  -45.1588 H         1 UNK         0.0600 
    154 H154       -2.1451  -16.5270  -46.4444 H         1 UNK         0.3000 
    155 H155        1.1128  -17.2882  -47.7935 H         1 UNK         0.0600 
    156 H156       -0.1189  -15.7274  -49.2933 H         1 UNK         0.0600 
    157 H157        0.8690  -14.8302  -48.1547 H         1 UNK         0.0600 
    158 H158       -0.8742  -14.9589  -47.9134 H         1 UNK         0.0600 
    159 H159        0.4507  -15.4245  -45.8025 H         1 UNK         0.3000 
    160 H160        0.8552  -17.5136  -42.9285 H         1 UNK         0.0600 
    161 H161        2.4924  -15.1748  -44.0277 H         1 UNK         0.0600 
    162 H162        3.1270  -16.8066  -43.8246 H         1 UNK         0.0600 
    163 H163        2.5941  -15.9079  -42.4235 H         1 UNK         0.0600 
    164 H164        0.2288  -14.7152  -43.4166 H         1 UNK         0.3000 
    165 H165       -3.3065  -15.1070  -43.1178 H         1 UNK         0.0600 
    166 H166       -2.9028  -13.3970  -41.3709 H         1 UNK         0.0600 
    167 H167       -2.4000  -14.9784  -40.7936 H         1 UNK         0.0600 
    168 H168       -1.1910  -13.8120  -41.3155 H         1 UNK         0.0600 
    169 H169       -1.6013  -12.8388  -43.5596 H         1 UNK         0.3000 
    170 H170       -1.6249  -12.9590  -47.1159 H         1 UNK         0.0600 
    171 H171       -3.9199  -12.1229  -46.5857 H         1 UNK         0.0600 
    172 H172       -3.2712  -11.1693  -45.2565 H         1 UNK         0.0600 
    173 H173       -2.8096  -10.8043  -46.9198 H         1 UNK         0.0600 
    174 H174       -0.7838  -10.8679  -45.4960 H         1 UNK         0.3000 
    175 H175        2.4561  -11.4956  -45.7693 H         1 UNK         0.0600 
    176 H176        0.4633   -9.7468  -44.2175 H         1 UNK         0.0600 
    177 H177        2.0950   -9.2913  -44.6861 H         1 UNK         0.0600 
    178 H178        0.8866   -9.5746  -45.9219 H         1 UNK         0.0600 
    179 H179        3.2663  -12.0160  -43.7980 H         1 UNK         0.3000 
    180 H180        2.6126  -11.5366  -40.7116 H         1 UNK         0.0600 
    181 H181        1.5570  -14.3686  -41.1612 H         1 UNK         0.0600 
    182 H182        0.9364  -13.1484  -40.0671 H         1 UNK         0.0600 
    183 H183        2.4956  -13.8851  -39.7478 H         1 UNK         0.0600 
    184 H184        3.9701  -13.8192  -42.0204 H         1 UNK         0.3000 
    185 H185        6.7816  -11.8854  -42.9295 H         1 UNK         0.0600 
    186 H186        7.3185  -12.4102  -40.5431 H         1 UNK         0.0600 
    187 H187        6.6219  -14.0156  -40.7303 H         1 UNK         0.0600 
    188 H188        8.0657  -13.5638  -41.6367 H         1 UNK         0.0600 
    189 H189        6.4266  -14.6569  -43.1572 H         1 UNK         0.3000 
    190 H190       -0.7127  -20.6140  -48.5133 H         1 UNK         0.3000 
    191 H191       -0.6967  -22.5783  -50.5768 H         1 UNK         0.0600 
    192 H192       -1.1431  -20.3724  -51.2502 H         1 UNK         0.0600 
    193 H193       -2.6815  -21.1802  -51.4381 H         1 UNK         0.0600 
    194 H194       -2.3936  -20.1238  -50.0489 H         1 UNK         0.0600 
    195 H195       -2.8572  -22.2443  -47.7580 H         1 UNK         0.3000 
    196 H196       -4.8062  -24.1383  -48.5771 H         1 UNK         0.0600 
    197 H197       -5.2874  -24.2878  -46.1114 H         1 UNK         0.0600 
    198 H198       -5.1905  -22.6327  -46.6829 H         1 UNK         0.0600 
    199 H199       -3.8435  -23.3361  -45.7856 H         1 UNK         0.0600 
    200 H200       -1.4949  -24.6489  -47.6075 H         1 UNK         0.3000 
    201 H201       -1.9203  -27.5880  -47.2893 H         1 UNK         0.0600 
    202 H202       -0.5695  -26.4962  -45.5207 H         1 UNK         0.0600 
    203 H203        0.5337  -25.8414  -46.7264 H         1 UNK         0.0600 
    204 H204        0.4244  -27.5804  -46.4830 H         1 UNK         0.0600 
    205 H205        0.0104  -25.1471  -49.1120 H         1 UNK         0.3000 
    206 H206        1.3311  -27.0515  -50.7362 H         1 UNK         0.0600 
    207 H207        2.2499  -24.8121  -50.1828 H         1 UNK         0.0600 
    208 H208        2.2002  -25.0572  -51.9220 H         1 UNK         0.0600 
    209 H209        0.9975  -24.0367  -51.1478 H         1 UNK         0.0600 
    210 H210       -1.5728  -25.0536  -51.4172 H         1 UNK         0.3000 
    211 H211       -1.8645  -26.3426  -54.1037 H         1 UNK         0.0600 
    212 H212       -3.1502  -23.7876  -52.9984 H         1 UNK         0.0600 
    213 H213       -3.3799  -24.4636  -54.6032 H         1 UNK         0.0600 
    214 H214       -1.8019  -23.8539  -54.1292 H         1 UNK         0.0600 
    215 H215       -3.5928  -25.4191  -51.1204 H         1 UNK         0.3000 
    216 H216       -5.3341  -26.2023  -49.9985 H         1 UNK         0.0600 
    217 H217       -5.5445  -28.6434  -49.7393 H         1 UNK         0.0600 
    218 H218       -3.8448  -28.2140  -49.8248 H         1 UNK         0.0600 
    219 H219       -4.6445  -28.9260  -51.2248 H         1 UNK         0.0600 
    220 H220       -6.1334  -24.8622  -52.2543 H         1 UNK         0.3000 
    221 H221       -8.7744  -25.9774  -52.7646 H         1 UNK         0.0600 
    222 H222       -6.7768  -25.4533  -55.0493 H         1 UNK         0.0600 
    223 H223       -7.4071  -27.0331  -54.5906 H         1 UNK         0.0600 
    224 H224       -8.4852  -25.8209  -55.2611 H         1 UNK         0.0600 
    225 H225      -10.1197  -24.4228  -53.8808 H         1 UNK         0.3000 
    226 H226      -11.1415  -22.4773  -54.0747 H         1 UNK         0.0600 
    227 H227       -9.4757  -22.2562  -55.9325 H         1 UNK         0.0600 
    228 H228       -9.9451  -20.6936  -55.2996 H         1 UNK         0.0600 
    229 H229       -8.3811  -21.3875  -54.8650 H         1 UNK         0.0600 
    230 H230       -9.3817  -19.8768  -53.5420 H         1 UNK         0.3000 
    231 H231      -10.0406  -19.6249  -50.6481 H         1 UNK         0.0600 
    232 H232       -9.4250  -17.4867  -52.7555 H         1 UNK         0.0600 
    233 H233       -9.9445  -17.2011  -51.0981 H         1 UNK         0.0600 
    234 H234      -11.0423  -17.9611  -52.2359 H         1 UNK         0.0600 
    235 H235       -7.6942  -21.1329  -51.7436 H         1 UNK         0.3000 
    236 H236       -5.5479  -21.5074  -51.4007 H         1 UNK         0.0600 
    237 H237       -6.0506  -21.1054  -48.9952 H         1 UNK         0.0600 
    238 H238       -4.4282  -20.6005  -49.3793 H         1 UNK         0.0600 
    239 H239       -5.6874  -19.3965  -49.1614 H         1 UNK         0.0600 
    240 H240       -4.6053  -18.3062  -50.4463 H         1 UNK         0.3000 
    241 H241       -4.6261  -17.2120  -53.1152 H         1 UNK         0.0600 
    242 H242       -5.8257  -15.0604  -50.2462 H         1 UNK         0.3800 
    243 H243       -6.1437  -16.7410  -50.5947 H         1 UNK         0.3800 
    244 H244       -2.4219  -18.2023  -53.2420 H         1 UNK         0.0800 
    245 H245       -2.3071  -16.4668  -53.2306 H         1 UNK         0.0800 
    246 H246        0.3968  -16.6302  -52.6598 H         1 UNK         0.0800 
    247 H247        0.0816  -18.3272  -52.9292 H         1 UNK         0.0800 
@<TRIPOS>BOND
     1    1    2 1    
     2    1  127 1    
     3    1  128 1    
     4    1  129 1    
     5    2    3 2    
     6    2    4 am   BACKBONE|DICT|INTERRES
     7    4    5 1    
     8    4  130 1    
     9    5    6 1    
    10    5   65 1    
    11    5  131 1    
    12    6    7 1    
    13    6  132 1    
    14    6  133 1    
    15    7    8 1    
    16    8    9 1    
    17    8  134 1    
    18    8  135 1    
    19    9   10 ar   
    20    9   14 ar   
    21   10   11 ar   
    22   10  136 1    
    23   11   12 ar   
    24   11  126 1    
    25   12   13 ar   
    26   12  137 1    
    27   13   14 ar   
    28   13   15 1    
    29   14  138 1    
    30   15   16 1    
    31   15  139 1    
    32   15  140 1    
    33   16   17 1    
    34   17   18 1    
    35   17  141 1    
    36   17  142 1    
    37   18   19 1    
    38   18   67 1    
    39   18  143 1    
    40   19   20 am   BACKBONE|DICT|INTERRES
    41   19  144 1    
    42   20   21 2    
    43   20   22 1    
    44   22   23 1    
    45   22   24 1    
    46   22  145 1    
    47   23  146 1    
    48   23  147 1    
    49   23  148 1    
    50   24   25 am   BACKBONE|DICT|INTERRES
    51   24  149 1    
    52   25   26 2    
    53   25   27 1    
    54   27   28 1    
    55   27   29 1    
    56   27  150 1    
    57   28  151 1    
    58   28  152 1    
    59   28  153 1    
    60   29   30 am   BACKBONE|DICT|INTERRES
    61   29  154 1    
    62   30   31 2    
    63   30   32 1    
    64   32   33 1    
    65   32   34 1    
    66   32  155 1    
    67   33  156 1    
    68   33  157 1    
    69   33  158 1    
    70   34   35 am   BACKBONE|DICT|INTERRES
    71   34  159 1    
    72   35   36 2    
    73   35   37 1    
    74   37   38 1    
    75   37   39 1    
    76   37  160 1    
    77   38  161 1    
    78   38  162 1    
    79   38  163 1    
    80   39   40 am   BACKBONE|DICT|INTERRES
    81   39  164 1    
    82   40   41 2    
    83   40   42 1    
    84   42   43 1    
    85   42   44 1    
    86   42  165 1    
    87   43  166 1    
    88   43  167 1    
    89   43  168 1    
    90   44   45 am   BACKBONE|DICT|INTERRES
    91   44  169 1    
    92   45   46 2    
    93   45   47 1    
    94   47   48 1    
    95   47   49 1    
    96   47  170 1    
    97   48  171 1    
    98   48  172 1    
    99   48  173 1    
   100   49   50 am   BACKBONE|DICT|INTERRES
   101   49  174 1    
   102   50   51 2    
   103   50   52 1    
   104   52   53 1    
   105   52   54 1    
   106   52  175 1    
   107   53  176 1    
   108   53  177 1    
   109   53  178 1    
   110   54   55 am   BACKBONE|DICT|INTERRES
   111   54  179 1    
   112   55   56 2    
   113   55   57 1    
   114   57   58 1    
   115   57   59 1    
   116   57  180 1    
   117   58  181 1    
   118   58  182 1    
   119   58  183 1    
   120   59   60 am   BACKBONE|DICT|INTERRES
   121   59  184 1    
   122   60   61 2    
   123   60   62 1    
   124   62   63 1    
   125   62   64 1    
   126   62  185 1    
   127   63  186 1    
   128   63  187 1    
   129   63  188 1    
   130   64   65 am   BACKBONE|DICT|INTERRES
   131   64  189 1    
   132   65   66 2    
   133   67   68 2    
   134   67   69 am   BACKBONE|DICT|INTERRES
   135   69   70 1    
   136   69  190 1    
   137   70   71 1    
   138   70   72 1    
   139   70  191 1    
   140   71  192 1    
   141   71  193 1    
   142   71  194 1    
   143   72   73 2    
   144   72   74 am   BACKBONE|DICT|INTERRES
   145   74   75 1    
   146   74  195 1    
   147   75   76 1    
   148   75   77 1    
   149   75  196 1    
   150   76  197 1    
   151   76  198 1    
   152   76  199 1    
   153   77   78 2    
   154   77   79 am   BACKBONE|DICT|INTERRES
   155   79   80 1    
   156   79  200 1    
   157   80   81 1    
   158   80   82 1    
   159   80  201 1    
   160   81  202 1    
   161   81  203 1    
   162   81  204 1    
   163   82   83 2    
   164   82   84 am   BACKBONE|DICT|INTERRES
   165   84   85 1    
   166   84  205 1    
   167   85   86 1    
   168   85   87 1    
   169   85  206 1    
   170   86  207 1    
   171   86  208 1    
   172   86  209 1    
   173   87   88 2    
   174   87   89 am   BACKBONE|DICT|INTERRES
   175   89   90 1    
   176   89  210 1    
   177   90   91 1    
   178   90   92 1    
   179   90  211 1    
   180   91  212 1    
   181   91  213 1    
   182   91  214 1    
   183   92   93 2    
   184   92   94 am   BACKBONE|DICT|INTERRES
   185   94   95 1    
   186   94  215 1    
   187   95   96 1    
   188   95   97 1    
   189   95  216 1    
   190   96  217 1    
   191   96  218 1    
   192   96  219 1    
   193   97   98 2    
   194   97   99 am   BACKBONE|DICT|INTERRES
   195   99  100 1    
   196   99  220 1    
   197  100  101 1    
   198  100  102 1    
   199  100  221 1    
   200  101  222 1    
   201  101  223 1    
   202  101  224 1    
   203  102  103 2    
   204  102  104 am   BACKBONE|DICT|INTERRES
   205  104  105 1    
   206  104  225 1    
   207  105  106 1    
   208  105  107 1    
   209  105  226 1    
   210  106  227 1    
   211  106  228 1    
   212  106  229 1    
   213  107  108 2    
   214  107  109 am   BACKBONE|DICT|INTERRES
   215  109  110 1    
   216  109  230 1    
   217  110  111 1    
   218  110  112 1    
   219  110  231 1    
   220  111  232 1    
   221  111  233 1    
   222  111  234 1    
   223  112  113 2    
   224  112  114 am   BACKBONE|DICT|INTERRES
   225  114  115 1    
   226  114  235 1    
   227  115  116 1    
   228  115  117 1    
   229  115  236 1    
   230  116  237 1    
   231  116  238 1    
   232  116  239 1    
   233  117  118 2    
   234  117  119 am   BACKBONE|DICT|INTERRES
   235  119  120 1    
   236  119  240 1    
   237  120  121 1    
   238  120  124 1    
   239  120  241 1    
   240  121  122 am   BACKBONE|DICT|INTERRES
   241  121  123 2    
   242  122  242 1    
   243  122  243 1    
   244  124  125 1    
   245  124  244 1    
   246  124  245 1    
   247  125  126 1    
   248  126  246 1    
   249  126  247 1    
@<TRIPOS>SUBSTRUCTURE
     1 UNK         1 GROUP             0       ****    0 ROOT    
