@<TRIPOS>MOLECULE
3R540
247   249    1
SMALL
USER_CHARGES


@<TRIPOS>ATOM
      1 CA         -4.6592  -11.9245  -50.3486 C.3       0 UNK        -0.1800 
      2 C          -3.4478  -12.4673  -51.0933 C.2       0 UNK         0.5000 
      3 O          -2.5680  -11.6965  -51.4770 O.2       0 UNK        -0.5000 
      4 N          -3.4009  -13.7894  -51.2995 N.am      1 UNK        -0.5000 
      5 CA         -2.2981  -14.5063  -51.9539 C.3       1 UNK         0.1400 
      6 C6         -2.7149  -15.9422  -52.3577 C.3       23 UNK        -0.0398 
      7 S7         -3.2694  -16.9715  -50.9489 S.3       23 UNK        -0.2404 
      8 C8         -2.7722  -18.6404  -51.4665 C.3       23 UNK        -0.0205 
      9 C9         -1.2636  -18.8477  -51.4885 C.ar      23 UNK        -0.0193 
     10 C10        -0.5738  -18.8729  -52.7017 C.ar      23 UNK        -0.1150 
     11 C11         0.7939  -19.1599  -52.7412 C.ar      23 UNK        -0.0193 
     12 C12         1.4762  -19.4199  -51.5479 C.ar      23 UNK        -0.1150 
     13 C13         0.8007  -19.3894  -50.3237 C.ar      23 UNK        -0.0193 
     14 C14        -0.5651  -19.0872  -50.3029 C.ar      23 UNK        -0.1150 
     15 C15         1.5351  -19.7050  -49.0275 C.3       23 UNK        -0.0205 
     16 S16         1.3693  -21.4667  -48.5974 S.3       23 UNK        -0.2404 
     17 C17         1.8006  -21.4785  -46.8209 C.3       23 UNK        -0.0398 
     18 CA          1.5653  -22.8654  -46.1665 C.3       11 UNK         0.1400 
     19 N           2.0625  -22.9425  -44.7905 N.am      11 UNK        -0.5000 
     20 C           2.2466  -24.1003  -44.1366 C.2       10 UNK         0.5000 
     21 O           2.2692  -25.1935  -44.7063 O.2       10 UNK        -0.5000 
     22 CA          2.3475  -24.0475  -42.5994 C.3       10 UNK         0.1400 
     23 CB          2.9966  -25.3055  -41.9823 C.3       10 UNK        -0.1800 
     24 N           2.9445  -22.8201  -42.0733 N.am      10 UNK        -0.5000 
     25 C           4.2291  -22.4398  -42.1231 C.2       9 UNK         0.5000 
     26 O           5.1067  -23.0805  -42.7031 O.2       9 UNK        -0.5000 
     27 CA          4.6127  -21.1330  -41.3903 C.3       9 UNK         0.1400 
     28 CB          5.4010  -20.1899  -42.3140 C.3       9 UNK        -0.1800 
     29 N           3.4621  -20.4109  -40.8377 N.am      9 UNK        -0.5000 
     30 C           2.8352  -20.6985  -39.6881 C.2       8 UNK         0.5000 
     31 O           3.2135  -21.5692  -38.9045 O.2       8 UNK        -0.5000 
     32 CA          1.5343  -19.9221  -39.3920 C.3       8 UNK         0.1400 
     33 CB          1.8329  -18.6334  -38.6122 C.3       8 UNK        -0.1800 
     34 N           0.7730  -19.5943  -40.6015 N.am      8 UNK        -0.5000 
     35 C           0.2181  -20.4959  -41.4259 C.2       7 UNK         0.5000 
     36 O           0.2326  -21.7090  -41.2201 O.2       7 UNK        -0.5000 
     37 CA         -0.3793  -19.9572  -42.7388 C.3       7 UNK         0.1400 
     38 CB         -1.8054  -19.4279  -42.5251 C.3       7 UNK        -0.1800 
     39 N           0.4650  -18.9141  -43.3269 N.am      7 UNK        -0.5000 
     40 C           1.6951  -19.1363  -43.8127 C.2       6 UNK         0.5000 
     41 O           2.2066  -20.2525  -43.8781 O.2       6 UNK        -0.5000 
     42 CA          2.5092  -17.9110  -44.2561 C.3       6 UNK         0.1400 
     43 CB          2.1912  -17.5439  -45.7111 C.3       6 UNK        -0.1800 
     44 N           2.2763  -16.7626  -43.3808 N.am      6 UNK        -0.5000 
     45 C           2.7830  -16.6611  -42.1417 C.2       5 UNK         0.5000 
     46 O           3.5310  -17.5032  -41.6481 O.2       5 UNK        -0.5000 
     47 CA          2.3612  -15.4464  -41.2903 C.3       5 UNK         0.1400 
     48 CB          3.3555  -14.2909  -41.4760 C.3       5 UNK        -0.1800 
     49 N           1.0129  -14.9686  -41.5913 N.am      5 UNK        -0.5000 
     50 C          -0.1103  -15.6878  -41.4572 C.2       4 UNK         0.5000 
     51 O          -0.1400  -16.8118  -40.9563 O.2       4 UNK        -0.5000 
     52 CA         -1.4010  -15.0773  -42.0440 C.3       4 UNK         0.1400 
     53 CB         -2.2371  -14.4229  -40.9348 C.3       4 UNK        -0.1800 
     54 N          -1.1604  -14.0959  -43.1117 N.am      4 UNK        -0.5000 
     55 C          -0.5311  -14.3574  -44.2662 C.2       3 UNK         0.5000 
     56 O          -0.0995  -15.4737  -44.5637 O.2       3 UNK        -0.5000 
     57 CA         -0.2589  -13.1516  -45.1847 C.3       3 UNK         0.1400 
     58 CB          0.8795  -12.2931  -44.6081 C.3       3 UNK        -0.1800 
     59 N           0.1206  -13.5706  -46.5337 N.am      3 UNK        -0.5000 
     60 C          -0.7347  -14.0266  -47.4536 C.2       2 UNK         0.5000 
     61 O          -1.9584  -14.0760  -47.2918 O.2       2 UNK        -0.5000 
     62 CA         -0.1163  -14.5042  -48.7756 C.3       2 UNK         0.1400 
     63 CB          0.4819  -15.9157  -48.6344 C.3       2 UNK        -0.1800 
     64 N          -1.1647  -14.5093  -49.7829 N.am      2 UNK        -0.5000 
     65 C          -1.0037  -14.5085  -51.1098 C.2       1 UNK         0.5000 
     66 O           0.0931  -14.4951  -51.6703 O.2       1 UNK        -0.5000 
     67 C           0.0728  -23.2576  -46.1518 C.2       11 UNK         0.5000 
     68 O          -0.7642  -22.4694  -45.7041 O.2       11 UNK        -0.5000 
     69 N          -0.2284  -24.4750  -46.6233 N.am      12 UNK        -0.5000 
     70 CA         -1.5771  -25.0446  -46.6675 C.3       12 UNK         0.1400 
     71 CB         -1.5009  -26.4951  -47.1652 C.3       12 UNK        -0.1800 
     72 C          -2.5530  -24.2262  -47.5307 C.2       12 UNK         0.5000 
     73 O          -3.7320  -24.1380  -47.1938 O.2       12 UNK        -0.5000 
     74 N          -2.0321  -23.6032  -48.5959 N.am      13 UNK        -0.5000 
     75 CA         -2.7637  -22.6891  -49.4693 C.3       13 UNK         0.1400 
     76 CB         -1.8844  -22.3570  -50.6843 C.3       13 UNK        -0.1800 
     77 C          -3.2323  -21.4175  -48.7346 C.2       13 UNK         0.5000 
     78 O          -4.3703  -20.9928  -48.9318 O.2       13 UNK        -0.5000 
     79 N          -2.3803  -20.8610  -47.8585 N.am      14 UNK        -0.5000 
     80 CA         -2.7174  -19.7069  -47.0190 C.3       14 UNK         0.1400 
     81 CB         -1.4496  -19.0967  -46.4014 C.3       14 UNK        -0.1800 
     82 C          -3.7170  -20.0741  -45.9127 C.2       14 UNK         0.5000 
     83 O          -4.6250  -19.2916  -45.6349 O.2       14 UNK        -0.5000 
     84 N          -3.5412  -21.2631  -45.3186 N.am      15 UNK        -0.5000 
     85 CA         -4.4274  -21.8133  -44.2929 C.3       15 UNK         0.1400 
     86 CB         -3.7817  -23.0644  -43.6793 C.3       15 UNK        -0.1800 
     87 C          -5.8402  -22.1179  -44.8295 C.2       15 UNK         0.5000 
     88 O          -6.8243  -21.8155  -44.1536 O.2       15 UNK        -0.5000 
     89 N          -5.9160  -22.6825  -46.0428 N.am      16 UNK        -0.5000 
     90 CA         -7.1639  -22.9431  -46.7631 C.3       16 UNK         0.1400 
     91 CB         -6.8924  -23.9625  -47.8810 C.3       16 UNK        -0.1800 
     92 C          -7.7977  -21.6718  -47.3596 C.2       16 UNK         0.5000 
     93 O          -9.0117  -21.6498  -47.5653 O.2       16 UNK        -0.5000 
     94 N          -6.9634  -20.6605  -47.6450 N.am      17 UNK        -0.5000 
     95 CA         -7.2642  -19.4253  -48.3750 C.3       17 UNK         0.1400 
     96 CB         -8.2480  -18.5358  -47.5869 C.3       17 UNK        -0.1800 
     97 C          -7.7208  -19.7305  -49.8167 C.2       17 UNK         0.5000 
     98 O          -8.7757  -19.2662  -50.2545 O.2       17 UNK        -0.5000 
     99 N          -6.9235  -20.5480  -50.5118 N.am      18 UNK        -0.5000 
    100 CA        -7.1921  -21.0733  -51.8471 C.3       18 UNK         0.1400 
    101 CB        -7.9921  -22.3826  -51.7150 C.3       18 UNK        -0.1800 
    102 C         -5.8648  -21.2996  -52.5867 C.2       18 UNK         0.5000 
    103 O         -4.8024  -21.1723  -51.9802 O.2       18 UNK        -0.5000 
    104 N         -5.9484  -21.6447  -53.8801 N.am      19 UNK        -0.5000 
    105 CA        -4.8213  -21.9282  -54.7812 C.3       19 UNK         0.1400 
    106 CB        -4.0496  -23.1864  -54.3274 C.3       19 UNK        -0.1800 
    107 C         -3.9073  -20.7027  -54.9984 C.2       19 UNK         0.5000 
    108 O         -2.6829  -20.8166  -54.9666 O.2       19 UNK        -0.5000 
    109 N         -4.5339  -19.5420  -55.2342 N.am      20 UNK        -0.5000 
    110 CA        -3.8840  -18.2419  -55.4308 C.3       20 UNK         0.1400 
    111 CB        -4.9536  -17.1441  -55.3170 C.3       20 UNK        -0.1800 
    112 C         -3.0910  -18.0959  -56.7478 C.2       20 UNK         0.5000 
    113 O         -2.4065  -17.0869  -56.9214 O.2       20 UNK        -0.5000 
    114 N         -3.1897  -19.0839  -57.6491 N.am      21 UNK        -0.5000 
    115 CA        -2.5794  -19.1141  -58.9831 C.3       21 UNK         0.1400 
    116 CB        -2.9746  -20.4268  -59.6768 C.3       21 UNK        -0.1800 
    117 C         -1.0471  -18.9318  -59.0124 C.2       21 UNK         0.5000 
    118 O         -0.5243  -18.4194  -60.0032 O.2       21 UNK        -0.5000 
    119 N         -0.3596  -19.3290  -57.9340 N.am      22 UNK        -0.5000 
    120 CA         1.0731  -19.0687  -57.7128 C.3       22 UNK         0.1400 
    121 C          1.4213  -17.6013  -57.3170 C.2       22 UNK         0.5000 
    122 N          0.4619  -16.7247  -57.0440 N.am      22 UNK        -0.7600 
    123 O          2.5955  -17.2450  -57.2681 O.2       22 UNK        -0.5000 
    124 C124        1.7227  -20.1047  -56.7531 C.3       23 UNK        -0.0398 
    125 S125        0.7934  -20.4116  -55.2117 S.3       23 UNK        -0.2404 
    126 C126        1.5238  -19.1884  -54.0764 C.3       23 UNK        -0.0205 
    127 H127       -5.3612  -12.7159  -50.0847 H         1 UNK         0.0600 
    128 H128       -5.1846  -11.1960  -50.9662 H         1 UNK         0.0600 
    129 H129       -4.3433  -11.4304  -49.4298 H         1 UNK         0.0600 
    130 H130       -4.1514  -14.3736  -50.9583 H         1 UNK         0.3000 
    131 H131       -2.0663  -13.9676  -52.8754 H         1 UNK         0.0600 
    132 H132       -1.8944  -16.4320  -52.8824 H         1 UNK         0.0800 
    133 H133       -3.5335  -15.8916  -53.0753 H         1 UNK         0.0800 
    134 H134       -3.2106  -18.8706  -52.4372 H         1 UNK         0.0800 
    135 H135       -3.2166  -19.3507  -50.7714 H         1 UNK         0.0800 
    136 H136       -1.1053  -18.7015  -53.6266 H         1 UNK         0.1150 
    137 H137        2.5308  -19.6557  -51.5704 H         1 UNK         0.1150 
    138 H138       -1.0989  -19.0690  -49.3673 H         1 UNK         0.1150 
    139 H139        2.5931  -19.4548  -49.1181 H         1 UNK         0.0800 
    140 H140        1.1442  -19.0822  -48.2255 H         1 UNK         0.0800 
    141 H141        1.2237  -20.7065  -46.3129 H         1 UNK         0.0800 
    142 H142        2.8490  -21.1943  -46.7216 H         1 UNK         0.0800 
    143 H143        2.1154  -23.5970  -46.7628 H         1 UNK         0.0600 
    144 H144        2.0792  -22.0663  -44.2730 H         1 UNK         0.3000 
    145 H145        1.3138  -24.0301  -42.2520 H         1 UNK         0.0600 
    146 H146        3.0381  -25.2356  -40.8953 H         1 UNK         0.0600 
    147 H147        2.4223  -26.2002  -42.2254 H         1 UNK         0.0600 
    148 H148        4.0110  -25.4629  -42.3491 H         1 UNK         0.0600 
    149 H149        2.2908  -22.2028  -41.6076 H         1 UNK         0.3000 
    150 H150        5.2704  -21.4147  -40.5658 H         1 UNK         0.0600 
    151 H151        6.3221  -20.6592  -42.6614 H         1 UNK         0.0600 
    152 H152        5.6826  -19.2728  -41.7965 H         1 UNK         0.0600 
    153 H153        4.8228  -19.9158  -43.1954 H         1 UNK         0.0600 
    154 H154        3.1165  -19.6379  -41.3926 H         1 UNK         0.3000 
    155 H155        0.9043  -20.5587  -38.7674 H         1 UNK         0.0600 
    156 H156        2.3326  -18.8566  -37.6687 H         1 UNK         0.0600 
    157 H157        0.9165  -18.0921  -38.3762 H         1 UNK         0.0600 
    158 H158        2.4823  -17.9637  -39.1751 H         1 UNK         0.0600 
    159 H159        0.6596  -18.6085  -40.8184 H         1 UNK         0.3000 
    160 H160       -0.4319  -20.7872  -43.4472 H         1 UNK         0.0600 
    161 H161       -1.8386  -18.6257  -41.7887 H         1 UNK         0.0600 
    162 H162       -2.4614  -20.2230  -42.1694 H         1 UNK         0.0600 
    163 H163       -2.2316  -19.0471  -43.4522 H         1 UNK         0.0600 
    164 H164        0.1237  -17.9647  -43.2838 H         1 UNK         0.3000 
    165 H165        3.5684  -18.1703  -44.2062 H         1 UNK         0.0600 
    166 H166        2.7169  -16.6381  -46.0129 H         1 UNK         0.0600 
    167 H167        2.5064  -18.3411  -46.3841 H         1 UNK         0.0600 
    168 H168        1.1243  -17.3847  -45.8679 H         1 UNK         0.0600 
    169 H169        1.6135  -16.0704  -43.7137 H         1 UNK         0.3000 
    170 H170        2.3807  -15.7517  -40.2425 H         1 UNK         0.0600 
    171 H171        3.1141  -13.4529  -40.8219 H         1 UNK         0.0600 
    172 H172        4.3711  -14.6078  -41.2347 H         1 UNK         0.0600 
    173 H173        3.3611  -13.9254  -42.5037 H         1 UNK         0.0600 
    174 H174        0.9411  -14.0512  -42.0041 H         1 UNK         0.3000 
    175 H175       -1.9804  -15.8979  -42.4720 H         1 UNK         0.0600 
    176 H176       -2.4544  -15.1354  -40.1377 H         1 UNK         0.0600 
    177 H177       -1.7174  -13.5758  -40.4854 H         1 UNK         0.0600 
    178 H178       -3.1931  -14.0667  -41.3188 H         1 UNK         0.0600 
    179 H179       -1.4751  -13.1535  -42.9297 H         1 UNK         0.3000 
    180 H180       -1.1658  -12.5458  -45.2416 H         1 UNK         0.0600 
    181 H181        0.6255  -11.9079  -43.6199 H         1 UNK         0.0600 
    182 H182        1.8050  -12.8626  -44.5111 H         1 UNK         0.0600 
    183 H183        1.0828  -11.4313  -45.2441 H         1 UNK         0.0600 
    184 H184        1.1102  -13.5975  -46.7300 H         1 UNK         0.3000 
    185 H185        0.6618  -13.7989  -49.0745 H         1 UNK         0.0600 
    186 H186        1.2964  -15.9213  -47.9113 H         1 UNK         0.0600 
    187 H187       -0.2666  -16.6339  -48.2989 H         1 UNK         0.0600 
    188 H188        0.8886  -16.2761  -49.5794 H         1 UNK         0.0600 
    189 H189       -2.1007  -14.4809  -49.3975 H         1 UNK         0.3000 
    190 H190        0.5234  -25.0772  -46.9281 H         1 UNK         0.3000 
    191 H191       -1.9654  -25.0537  -45.6475 H         1 UNK         0.0600 
    192 H192       -1.0890  -26.5546  -48.1734 H         1 UNK         0.0600 
    193 H193       -2.4911  -26.9524  -47.1872 H         1 UNK         0.0600 
    194 H194       -0.8775  -27.1045  -46.5105 H         1 UNK         0.0600 
    195 H195       -1.0495  -23.7273  -48.7898 H         1 UNK         0.3000 
    196 H196       -3.6565  -23.2046  -49.8297 H         1 UNK         0.0600 
    197 H197       -1.6758  -23.2496  -51.2737 H         1 UNK         0.0600 
    198 H198       -0.9304  -21.9237  -50.3885 H         1 UNK         0.0600 
    199 H199       -2.3704  -21.6430  -51.3475 H         1 UNK         0.0600 
    200 H200       -1.4864  -21.3021  -47.6958 H         1 UNK         0.3000 
    201 H201       -3.1825  -18.9474  -47.6519 H         1 UNK         0.0600 
    202 H202       -1.6959  -18.2450  -45.7658 H         1 UNK         0.0600 
    203 H203       -0.9119  -19.8164  -45.7862 H         1 UNK         0.0600 
    204 H204       -0.7707  -18.7286  -47.1642 H         1 UNK         0.0600 
    205 H205       -2.7364  -21.8217  -45.5817 H         1 UNK         0.3000 
    206 H206       -4.5271  -21.0643  -43.5046 H         1 UNK         0.0600 
    207 H207       -2.7924  -22.8424  -43.2779 H         1 UNK         0.0600 
    208 H208       -4.3877  -23.4523  -42.8597 H         1 UNK         0.0600 
    209 H209       -3.6746  -23.8628  -44.4131 H         1 UNK         0.0600 
    210 H210       -5.0587  -22.9787  -46.5029 H         1 UNK         0.3000 
    211 H211       -7.8828  -23.3809  -46.0675 H         1 UNK         0.0600 
    212 H212       -7.8073  -24.2020  -48.4245 H         1 UNK         0.0600 
    213 H213       -6.4995  -24.8958  -47.4773 H         1 UNK         0.0600 
    214 H214       -6.1710  -23.5803  -48.6049 H         1 UNK         0.0600 
    215 H215       -5.9764  -20.8233  -47.4901 H         1 UNK         0.3000 
    216 H216       -6.3220  -18.8810  -48.4570 H         1 UNK         0.0600 
    217 H217       -8.3778  -17.5714  -48.0790 H         1 UNK         0.0600 
    218 H218       -7.8783  -18.3402  -46.5802 H         1 UNK         0.0600 
    219 H219       -9.2341  -18.9924  -47.4997 H         1 UNK         0.0600 
    220 H220       -6.0246  -20.8196  -50.1185 H         1 UNK         0.3000 
    221 H221       -7.7702  -20.3452  -52.4195 H         1 UNK         0.0600 
    222 H222       -7.4294  -23.1402  -51.1678 H         1 UNK         0.0600 
    223 H223       -8.9309  -22.2195  -51.1852 H         1 UNK         0.0600 
    224 H224       -8.2419  -22.7982  -52.6916 H         1 UNK         0.0600 
    225 H225       -6.8663  -21.7259  -54.2950 H         1 UNK         0.3000 
    226 H226       -5.2587  -22.1529  -55.7550 H         1 UNK         0.0600 
    227 H227       -4.7208  -24.0347  -54.1945 H         1 UNK         0.0600 
    228 H228       -3.3048  -23.4750  -55.0699 H         1 UNK         0.0600 
    229 H229       -3.5225  -23.0250  -53.3866 H         1 UNK         0.0600 
    230 H230       -5.5434  -19.5415  -55.2493 H         1 UNK         0.3000 
    231 H231       -3.1666  -18.0969  -54.6231 H         1 UNK         0.0600 
    232 H232       -5.4490  -17.1755  -54.3462 H         1 UNK         0.0600 
    233 H233       -5.7175  -17.2470  -56.0886 H         1 UNK         0.0600 
    234 H234       -4.5141  -16.1513  -55.4226 H         1 UNK         0.0600 
    235 H235       -3.7654  -19.8756  -57.4061 H         1 UNK         0.3000 
    236 H236       -3.0095  -18.2865  -59.5505 H         1 UNK         0.0600 
    237 H237       -2.5617  -20.4769  -60.6854 H         1 UNK         0.0600 
    238 H238       -4.0573  -20.5168  -59.7668 H         1 UNK         0.0600 
    239 H239       -2.6084  -21.2959  -59.1286 H         1 UNK         0.0600 
    240 H240       -0.8597  -19.7346  -57.1548 H         1 UNK         0.3000 
    241 H241        1.5682  -19.2078  -58.6758 H         1 UNK         0.0600 
    242 H242        0.7167  -15.7811  -56.8013 H         1 UNK         0.3800 
    243 H243       -0.5213  -16.9792  -57.0785 H         1 UNK         0.3800 
    244 H244        1.7888  -21.0618  -57.2717 H         1 UNK         0.0800 
    245 H245        2.7545  -19.8399  -56.5148 H         1 UNK         0.0800 
    246 H246        1.4708  -18.1932  -54.5174 H         1 UNK         0.0800 
    247 H247        2.5819  -19.4155  -53.9382 H         1 UNK         0.0800 
@<TRIPOS>BOND
     1    1    2 1    
     2    1  127 1    
     3    1  128 1    
     4    1  129 1    
     5    2    3 2    
     6    2    4 am   BACKBONE|DICT|INTERRES
     7    4    5 1    
     8    4  130 1    
     9    5    6 1    
    10    5   65 1    
    11    5  131 1    
    12    6    7 1    
    13    6  132 1    
    14    6  133 1    
    15    7    8 1    
    16    8    9 1    
    17    8  134 1    
    18    8  135 1    
    19    9   10 ar   
    20    9   14 ar   
    21   10   11 ar   
    22   10  136 1    
    23   11   12 ar   
    24   11  126 1    
    25   12   13 ar   
    26   12  137 1    
    27   13   14 ar   
    28   13   15 1    
    29   14  138 1    
    30   15   16 1    
    31   15  139 1    
    32   15  140 1    
    33   16   17 1    
    34   17   18 1    
    35   17  141 1    
    36   17  142 1    
    37   18   19 1    
    38   18   67 1    
    39   18  143 1    
    40   19   20 am   BACKBONE|DICT|INTERRES
    41   19  144 1    
    42   20   21 2    
    43   20   22 1    
    44   22   23 1    
    45   22   24 1    
    46   22  145 1    
    47   23  146 1    
    48   23  147 1    
    49   23  148 1    
    50   24   25 am   BACKBONE|DICT|INTERRES
    51   24  149 1    
    52   25   26 2    
    53   25   27 1    
    54   27   28 1    
    55   27   29 1    
    56   27  150 1    
    57   28  151 1    
    58   28  152 1    
    59   28  153 1    
    60   29   30 am   BACKBONE|DICT|INTERRES
    61   29  154 1    
    62   30   31 2    
    63   30   32 1    
    64   32   33 1    
    65   32   34 1    
    66   32  155 1    
    67   33  156 1    
    68   33  157 1    
    69   33  158 1    
    70   34   35 am   BACKBONE|DICT|INTERRES
    71   34  159 1    
    72   35   36 2    
    73   35   37 1    
    74   37   38 1    
    75   37   39 1    
    76   37  160 1    
    77   38  161 1    
    78   38  162 1    
    79   38  163 1    
    80   39   40 am   BACKBONE|DICT|INTERRES
    81   39  164 1    
    82   40   41 2    
    83   40   42 1    
    84   42   43 1    
    85   42   44 1    
    86   42  165 1    
    87   43  166 1    
    88   43  167 1    
    89   43  168 1    
    90   44   45 am   BACKBONE|DICT|INTERRES
    91   44  169 1    
    92   45   46 2    
    93   45   47 1    
    94   47   48 1    
    95   47   49 1    
    96   47  170 1    
    97   48  171 1    
    98   48  172 1    
    99   48  173 1    
   100   49   50 am   BACKBONE|DICT|INTERRES
   101   49  174 1    
   102   50   51 2    
   103   50   52 1    
   104   52   53 1    
   105   52   54 1    
   106   52  175 1    
   107   53  176 1    
   108   53  177 1    
   109   53  178 1    
   110   54   55 am   BACKBONE|DICT|INTERRES
   111   54  179 1    
   112   55   56 2    
   113   55   57 1    
   114   57   58 1    
   115   57   59 1    
   116   57  180 1    
   117   58  181 1    
   118   58  182 1    
   119   58  183 1    
   120   59   60 am   BACKBONE|DICT|INTERRES
   121   59  184 1    
   122   60   61 2    
   123   60   62 1    
   124   62   63 1    
   125   62   64 1    
   126   62  185 1    
   127   63  186 1    
   128   63  187 1    
   129   63  188 1    
   130   64   65 am   BACKBONE|DICT|INTERRES
   131   64  189 1    
   132   65   66 2    
   133   67   68 2    
   134   67   69 am   BACKBONE|DICT|INTERRES
   135   69   70 1    
   136   69  190 1    
   137   70   71 1    
   138   70   72 1    
   139   70  191 1    
   140   71  192 1    
   141   71  193 1    
   142   71  194 1    
   143   72   73 2    
   144   72   74 am   BACKBONE|DICT|INTERRES
   145   74   75 1    
   146   74  195 1    
   147   75   76 1    
   148   75   77 1    
   149   75  196 1    
   150   76  197 1    
   151   76  198 1    
   152   76  199 1    
   153   77   78 2    
   154   77   79 am   BACKBONE|DICT|INTERRES
   155   79   80 1    
   156   79  200 1    
   157   80   81 1    
   158   80   82 1    
   159   80  201 1    
   160   81  202 1    
   161   81  203 1    
   162   81  204 1    
   163   82   83 2    
   164   82   84 am   BACKBONE|DICT|INTERRES
   165   84   85 1    
   166   84  205 1    
   167   85   86 1    
   168   85   87 1    
   169   85  206 1    
   170   86  207 1    
   171   86  208 1    
   172   86  209 1    
   173   87   88 2    
   174   87   89 am   BACKBONE|DICT|INTERRES
   175   89   90 1    
   176   89  210 1    
   177   90   91 1    
   178   90   92 1    
   179   90  211 1    
   180   91  212 1    
   181   91  213 1    
   182   91  214 1    
   183   92   93 2    
   184   92   94 am   BACKBONE|DICT|INTERRES
   185   94   95 1    
   186   94  215 1    
   187   95   96 1    
   188   95   97 1    
   189   95  216 1    
   190   96  217 1    
   191   96  218 1    
   192   96  219 1    
   193   97   98 2    
   194   97   99 am   BACKBONE|DICT|INTERRES
   195   99  100 1    
   196   99  220 1    
   197  100  101 1    
   198  100  102 1    
   199  100  221 1    
   200  101  222 1    
   201  101  223 1    
   202  101  224 1    
   203  102  103 2    
   204  102  104 am   BACKBONE|DICT|INTERRES
   205  104  105 1    
   206  104  225 1    
   207  105  106 1    
   208  105  107 1    
   209  105  226 1    
   210  106  227 1    
   211  106  228 1    
   212  106  229 1    
   213  107  108 2    
   214  107  109 am   BACKBONE|DICT|INTERRES
   215  109  110 1    
   216  109  230 1    
   217  110  111 1    
   218  110  112 1    
   219  110  231 1    
   220  111  232 1    
   221  111  233 1    
   222  111  234 1    
   223  112  113 2    
   224  112  114 am   BACKBONE|DICT|INTERRES
   225  114  115 1    
   226  114  235 1    
   227  115  116 1    
   228  115  117 1    
   229  115  236 1    
   230  116  237 1    
   231  116  238 1    
   232  116  239 1    
   233  117  118 2    
   234  117  119 am   BACKBONE|DICT|INTERRES
   235  119  120 1    
   236  119  240 1    
   237  120  121 1    
   238  120  124 1    
   239  120  241 1    
   240  121  122 am   BACKBONE|DICT|INTERRES
   241  121  123 2    
   242  122  242 1    
   243  122  243 1    
   244  124  125 1    
   245  124  244 1    
   246  124  245 1    
   247  125  126 1    
   248  126  246 1    
   249  126  247 1    
@<TRIPOS>SUBSTRUCTURE
     1 UNK         1 GROUP             0       ****    0 ROOT    
