@<TRIPOS>MOLECULE
3R540
247   249    1
SMALL
USER_CHARGES


@<TRIPOS>ATOM
      1 CA          4.8635   -9.9357  -48.0656 C.3       0 UNK        -0.1800 
      2 C           4.2557  -11.1778  -47.4310 C.2       0 UNK         0.5000 
      3 O           4.0324  -11.2003  -46.2227 O.2       0 UNK        -0.5000 
      4 N           3.9720  -12.2042  -48.2414 N.am      1 UNK        -0.5000 
      5 CA          3.4048  -13.4957  -47.8306 C.3       1 UNK         0.1400 
      6 C6          3.3528  -14.4576  -49.0407 C.3       23 UNK        -0.0398 
      7 S7          3.2021  -16.2155  -48.5925 S.3       23 UNK        -0.2404 
      8 C8          2.7941  -16.9255  -50.2181 C.3       23 UNK        -0.0205 
      9 C9          1.3157  -17.2632  -50.3358 C.ar      23 UNK        -0.0193 
     10 C10         0.3536  -16.2549  -50.4054 C.ar      23 UNK        -0.1150 
     11 C11        -1.0040  -16.5675  -50.5244 C.ar      23 UNK        -0.0193 
     12 C12        -1.3938  -17.9118  -50.5545 C.ar      23 UNK        -0.1150 
     13 C13        -0.4437  -18.9389  -50.4908 C.ar      23 UNK        -0.0193 
     14 C14         0.9116  -18.5968  -50.3885 C.ar      23 UNK        -0.1150 
     15 C15        -0.9261  -20.3922  -50.5541 C.3       23 UNK        -0.0205 
     16 S16         0.3616  -21.6778  -50.3600 S.3       23 UNK        -0.2404 
     17 C17         0.7837  -21.4674  -48.5911 C.3       23 UNK        -0.0398 
     18 CA          0.3753  -22.6316  -47.6535 C.3       11 UNK         0.1400 
     19 N           0.5631  -22.2673  -46.2484 N.am      11 UNK        -0.5000 
     20 C           0.4241  -23.1004  -45.2076 C.2       10 UNK         0.5000 
     21 O           0.2066  -24.3075  -45.3148 O.2       10 UNK        -0.5000 
     22 CA          0.4783  -22.4611  -43.8096 C.3       10 UNK         0.1400 
     23 CB          1.9325  -22.2410  -43.3676 C.3       10 UNK        -0.1800 
     24 N          -0.2589  -21.1967  -43.7466 N.am      10 UNK        -0.5000 
     25 C          -1.5816  -21.0814  -43.9382 C.2       9 UNK         0.5000 
     26 O          -2.3266  -22.0401  -44.1371 O.2       9 UNK        -0.5000 
     27 CA         -2.1698  -19.6598  -43.9504 C.3       9 UNK         0.1400 
     28 CB         -2.3582  -19.1350  -42.5197 C.3       9 UNK        -0.1800 
     29 N          -1.3593  -18.7169  -44.7205 N.am      9 UNK        -0.5000 
     30 C          -1.1454  -18.7894  -46.0418 C.2       8 UNK         0.5000 
     31 O          -1.6390  -19.6525  -46.7664 O.2       8 UNK        -0.5000 
     32 CA         -0.1778  -17.7548  -46.6459 C.3       8 UNK         0.1400 
     33 CB         -0.8817  -16.4142  -46.9039 C.3       8 UNK        -0.1800 
     34 N           0.9971  -17.5383  -45.8032 N.am      8 UNK        -0.5000 
     35 C           1.9314  -18.4668  -45.5545 C.2       7 UNK         0.5000 
     36 O           1.9179  -19.6016  -46.0340 O.2       7 UNK        -0.5000 
     37 CA          3.0336  -18.0746  -44.5533 C.3       7 UNK         0.1400 
     38 CB          4.0898  -17.1756  -45.2126 C.3       7 UNK        -0.1800 
     39 N           2.4947  -17.3965  -43.3744 N.am      7 UNK        -0.5000 
     40 C           1.7023  -17.9746  -42.4609 C.2       6 UNK         0.5000 
     41 O           1.3668  -19.1571  -42.4948 O.2       6 UNK        -0.5000 
     42 CA          1.1544  -17.0639  -41.3480 C.3       6 UNK         0.1400 
     43 CB          2.1660  -16.9427  -40.1991 C.3       6 UNK        -0.1800 
     44 N           0.8042  -15.7262  -41.8260 N.am      6 UNK        -0.5000 
     45 C          -0.1150  -15.4504  -42.7586 C.2       5 UNK         0.5000 
     46 O          -0.7825  -16.3129  -43.3261 O.2       5 UNK        -0.5000 
     47 CA         -0.3047  -13.9789  -43.1603 C.3       5 UNK         0.1400 
     48 CB         -1.3251  -13.2775  -42.2457 C.3       5 UNK        -0.1800 
     49 N           0.9392  -13.2096  -43.2680 N.am      5 UNK        -0.5000 
     50 C           1.7887  -12.8097  -42.3100 C.2       4 UNK         0.5000 
     51 O           1.6998  -13.1311  -41.1247 O.2       4 UNK        -0.5000 
     52 CA          2.9318  -11.8849  -42.7652 C.3       4 UNK         0.1400 
     53 CB          4.1369  -12.7164  -43.2314 C.3       4 UNK        -0.1800 
     54 N           2.5137  -10.9907  -43.8459 N.am      4 UNK        -0.5000 
     55 C           1.6117  -10.0057  -43.7215 C.2       3 UNK         0.5000 
     56 O           1.1293   -9.6475  -42.6464 O.2       3 UNK        -0.5000 
     57 CA          1.1355   -9.3437  -45.0262 C.3       3 UNK         0.1400 
     58 CB          2.1401   -8.2865  -45.5101 C.3       3 UNK        -0.1800 
     59 N           0.9068  -10.3347  -46.0807 N.am      3 UNK        -0.5000 
     60 C          -0.1439  -11.1683  -46.1222 C.2       2 UNK         0.5000 
     61 O          -1.0619  -11.1487  -45.3031 O.2       2 UNK        -0.5000 
     62 CA         -0.1784  -12.2073  -47.2598 C.3       2 UNK         0.1400 
     63 CB         -1.0528  -11.7100  -48.4200 C.3       2 UNK        -0.1800 
     64 N           1.1520  -12.5349  -47.7730 N.am      2 UNK        -0.5000 
     65 C           2.0233  -13.3438  -47.1541 C.2       1 UNK         0.5000 
     66 O           1.7914  -13.9048  -46.0811 O.2       1 UNK        -0.5000 
     67 C          -1.0556  -23.1529  -47.9035 C.2       11 UNK         0.5000 
     68 O          -1.2063  -24.2483  -48.4420 O.2       11 UNK        -0.5000 
     69 N          -2.0709  -22.3922  -47.4701 N.am      12 UNK        -0.5000 
     70 CA         -3.4825  -22.7517  -47.6056 C.3       12 UNK         0.1400 
     71 CB         -4.3669  -21.5860  -47.1428 C.3       12 UNK        -0.1800 
     72 C          -3.8537  -24.0542  -46.8781 C.2       12 UNK         0.5000 
     73 O          -4.6035  -24.8568  -47.4330 O.2       12 UNK        -0.5000 
     74 N          -3.2945  -24.2655  -45.6794 N.am      13 UNK        -0.5000 
     75 CA         -3.4356  -25.4987  -44.9070 C.3       13 UNK         0.1400 
     76 CB         -2.8337  -25.3053  -43.5070 C.3       13 UNK        -0.1800 
     77 C          -2.8075  -26.7129  -45.6157 C.2       13 UNK         0.5000 
     78 O          -3.4516  -27.7586  -45.7051 O.2       13 UNK        -0.5000 
     79 N          -1.5831  -26.5453  -46.1361 N.am      14 UNK        -0.5000 
     80 CA         -0.8514  -27.5696  -46.8856 C.3       14 UNK         0.1400 
     81 CB          0.6004  -27.1122  -47.0938 C.3       14 UNK        -0.1800 
     82 C          -1.5116  -27.9184  -48.2332 C.2       14 UNK         0.5000 
     83 O          -1.5692  -29.0933  -48.5975 O.2       14 UNK        -0.5000 
     84 N          -2.0156  -26.8961  -48.9361 N.am      15 UNK        -0.5000 
     85 CA         -2.7182  -27.0162  -50.2141 C.3       15 UNK         0.1400 
     86 CB         -2.6995  -25.6492  -50.9200 C.3       15 UNK        -0.1800 
     87 C          -4.1687  -27.5175  -50.0789 C.2       15 UNK         0.5000 
     88 O          -4.7895  -27.8107  -51.0995 O.2       15 UNK        -0.5000 
     89 N          -4.7036  -27.5620  -48.8492 N.am      16 UNK        -0.5000 
     90 CA         -6.0987  -27.8631  -48.5046 C.3       16 UNK         0.1400 
     91 CB         -6.4305  -29.3417  -48.7935 C.3       16 UNK        -0.1800 
     92 C          -7.0818  -26.8734  -49.1687 C.2       16 UNK         0.5000 
     93 O          -8.1021  -27.2787  -49.7276 O.2       16 UNK        -0.5000 
     94 N          -6.7135  -25.5856  -49.1150 N.am      17 UNK        -0.5000 
     95 CA         -7.3898  -24.4129  -49.6770 C.3       17 UNK         0.1400 
     96 CB         -8.7890  -24.2303  -49.0538 C.3       17 UNK        -0.1800 
     97 C          -7.4207  -24.3511  -51.2206 C.2       17 UNK         0.5000 
     98 O          -8.1009  -23.4812  -51.7667 O.2       17 UNK        -0.5000 
     99 N          -6.6723  -25.2271  -51.9108 N.am      18 UNK        -0.5000 
    100 CA        -6.5532  -25.2301  -53.3746 C.3       18 UNK         0.1400 
    101 CB        -5.9416  -26.5596  -53.8395 C.3       18 UNK        -0.1800 
    102 C         -5.7318  -24.0439  -53.9190 C.2       18 UNK         0.5000 
    103 O         -5.9242  -23.6505  -55.0699 O.2       18 UNK        -0.5000 
    104 N         -4.8475  -23.4934  -53.0806 N.am      19 UNK        -0.5000 
    105 CA        -4.0834  -22.2765  -53.3152 C.3       19 UNK         0.1400 
    106 CB        -2.6092  -22.6445  -53.5531 C.3       19 UNK        -0.1800 
    107 C         -4.2366  -21.4197  -52.0456 C.2       19 UNK         0.5000 
    108 O         -4.0116  -21.9604  -50.9647 O.2       19 UNK        -0.5000 
    109 N         -4.6012  -20.1293  -52.0946 N.am      20 UNK        -0.5000 
    110 CA        -5.0320  -19.2942  -53.2229 C.3       20 UNK         0.1400 
    111 CB        -6.3983  -19.7555  -53.7763 C.3       20 UNK        -0.1800 
    112 C         -3.9552  -19.0661  -54.3029 C.2       20 UNK         0.5000 
    113 O         -4.2783  -18.9923  -55.4885 O.2       20 UNK        -0.5000 
    114 N         -2.6898  -18.9557  -53.8716 N.am      21 UNK        -0.5000 
    115 CA        -1.5680  -18.5649  -54.7342 C.3       21 UNK         0.1400 
    116 CB        -0.2392  -18.9397  -54.0612 C.3       21 UNK        -0.1800 
    117 C         -1.5962  -17.0594  -55.0687 C.2       21 UNK         0.5000 
    118 O         -1.1220  -16.6628  -56.1338 O.2       21 UNK        -0.5000 
    119 N         -2.1638  -16.2593  -54.1563 N.am      22 UNK        -0.5000 
    120 CA        -2.4597  -14.8323  -54.3307 C.3       22 UNK         0.1400 
    121 C         -3.5183  -14.5895  -55.4428 C.2       22 UNK         0.5000 
    122 N         -3.2997  -13.6192  -56.3196 N.am      22 UNK        -0.7600 
    123 O         -4.5576  -15.2439  -55.4863 O.2       22 UNK        -0.5000 
    124 C124       -2.9340  -14.1972  -52.9995 C.3       23 UNK        -0.0398 
    125 S125       -1.6129  -14.1209  -51.7428 S.3       23 UNK        -0.2404 
    126 C126       -2.0476  -15.4547  -50.5699 C.3       23 UNK        -0.0205 
    127 H127        5.7886   -9.6693  -47.5546 H         1 UNK         0.0600 
    128 H128        4.1736   -9.0960  -47.9838 H         1 UNK         0.0600 
    129 H129        5.0905  -10.0890  -49.1208 H         1 UNK         0.0600 
    130 H130        4.1803  -12.1122  -49.2255 H         1 UNK         0.3000 
    131 H131        4.0862  -13.9148  -47.0869 H         1 UNK         0.0600 
    132 H132        2.5542  -14.1749  -49.7271 H         1 UNK         0.0800 
    133 H133        4.2770  -14.3723  -49.6146 H         1 UNK         0.0800 
    134 H134        3.4018  -17.8206  -50.3591 H         1 UNK         0.0800 
    135 H135        3.0781  -16.2441  -51.0212 H         1 UNK         0.0800 
    136 H136        0.6590  -15.2207  -50.3633 H         1 UNK         0.1150 
    137 H137       -2.4430  -18.1619  -50.6208 H         1 UNK         0.1150 
    138 H138        1.6723  -19.3609  -50.3479 H         1 UNK         0.1150 
    139 H139       -1.6988  -20.5502  -49.7996 H         1 UNK         0.0800 
    140 H140       -1.4019  -20.5519  -51.5206 H         1 UNK         0.0800 
    141 H141        0.3396  -20.5382  -48.2366 H         1 UNK         0.0800 
    142 H142        1.8610  -21.3122  -48.5218 H         1 UNK         0.0800 
    143 H143        1.0511  -23.4645  -47.8592 H         1 UNK         0.0600 
    144 H144        0.7833  -21.2942  -46.0620 H         1 UNK         0.3000 
    145 H145        0.0112  -23.1558  -43.1086 H         1 UNK         0.0600 
    146 H146        1.9804  -21.8825  -42.3393 H         1 UNK         0.0600 
    147 H147        2.5008  -23.1707  -43.4142 H         1 UNK         0.0600 
    148 H148        2.4401  -21.5116  -43.9997 H         1 UNK         0.0600 
    149 H149        0.2842  -20.3658  -43.5283 H         1 UNK         0.3000 
    150 H150       -3.1529  -19.7121  -44.4225 H         1 UNK         0.0600 
    151 H151       -2.9886  -19.8078  -41.9370 H         1 UNK         0.0600 
    152 H152       -2.8381  -18.1562  -42.5188 H         1 UNK         0.0600 
    153 H153       -1.4065  -19.0412  -41.9968 H         1 UNK         0.0600 
    154 H154       -0.9617  -17.9347  -44.2055 H         1 UNK         0.3000 
    155 H155        0.1666  -18.1427  -47.6058 H         1 UNK         0.0600 
    156 H156       -1.2118  -15.9419  -45.9788 H         1 UNK         0.0600 
    157 H157       -1.7608  -16.5538  -47.5336 H         1 UNK         0.0600 
    158 H158       -0.2197  -15.7178  -47.4193 H         1 UNK         0.0600 
    159 H159        1.0764  -16.6358  -45.3585 H         1 UNK         0.3000 
    160 H160        3.5247  -18.9925  -44.2233 H         1 UNK         0.0600 
    161 H161        3.6692  -16.2174  -45.5207 H         1 UNK         0.0600 
    162 H162        4.5087  -17.6525  -46.0996 H         1 UNK         0.0600 
    163 H163        4.9168  -16.9743  -44.5317 H         1 UNK         0.0600 
    164 H164        2.7058  -16.4151  -43.2738 H         1 UNK         0.3000 
    165 H165        0.2458  -17.5257  -40.9572 H         1 UNK         0.0600 
    166 H166        1.7530  -16.3677  -39.3701 H         1 UNK         0.0600 
    167 H167        2.4354  -17.9257  -39.8103 H         1 UNK         0.0600 
    168 H168        3.0854  -16.4523  -40.5214 H         1 UNK         0.0600 
    169 H169        1.2818  -14.9370  -41.3988 H         1 UNK         0.3000 
    170 H170       -0.7240  -13.9865  -44.1677 H         1 UNK         0.0600 
    171 H171       -2.2834  -13.7979  -42.2634 H         1 UNK         0.0600 
    172 H172       -0.9913  -13.2455  -41.2083 H         1 UNK         0.0600 
    173 H173       -1.5049  -12.2531  -42.5727 H         1 UNK         0.0600 
    174 H174        1.1921  -12.9695  -44.2190 H         1 UNK         0.3000 
    175 H175        3.2368  -11.2764  -41.9115 H         1 UNK         0.0600 
    176 H176        3.8911  -13.3310  -44.0988 H         1 UNK         0.0600 
    177 H177        4.9744  -12.0747  -43.5056 H         1 UNK         0.0600 
    178 H178        4.4823  -13.3837  -42.4409 H         1 UNK         0.0600 
    179 H179        2.9258  -11.1645  -44.7605 H         1 UNK         0.3000 
    180 H180        0.1902   -8.8369  -44.8199 H         1 UNK         0.0600 
    181 H181        3.1251   -8.7140  -45.6957 H         1 UNK         0.0600 
    182 H182        2.2632   -7.5008  -44.7638 H         1 UNK         0.0600 
    183 H183        1.8007   -7.8101  -46.4300 H         1 UNK         0.0600 
    184 H184        1.6338  -10.4395  -46.7718 H         1 UNK         0.3000 
    185 H185       -0.6322  -13.1174  -46.8612 H         1 UNK         0.0600 
    186 H186       -2.0639  -11.4841  -48.0787 H         1 UNK         0.0600 
    187 H187       -0.6477  -10.8038  -48.8718 H         1 UNK         0.0600 
    188 H188       -1.1366  -12.4662  -49.2002 H         1 UNK         0.0600 
    189 H189        1.4255  -12.0949  -48.6395 H         1 UNK         0.3000 
    190 H190       -1.8712  -21.4821  -47.0618 H         1 UNK         0.3000 
    191 H191       -3.6721  -22.9207  -48.6649 H         1 UNK         0.0600 
    192 H192       -4.1971  -21.3440  -46.0935 H         1 UNK         0.0600 
    193 H193       -5.4240  -21.8271  -47.2603 H         1 UNK         0.0600 
    194 H194       -4.1704  -20.6888  -47.7303 H         1 UNK         0.0600 
    195 H195       -2.7378  -23.5240  -45.2622 H         1 UNK         0.3000 
    196 H196       -4.5030  -25.6976  -44.7908 H         1 UNK         0.0600 
    197 H197       -2.9429  -26.2089  -42.9062 H         1 UNK         0.0600 
    198 H198       -3.3330  -24.4966  -42.9729 H         1 UNK         0.0600 
    199 H199       -1.7709  -25.0670  -43.5532 H         1 UNK         0.0600 
    200 H200       -1.1090  -25.6568  -46.0027 H         1 UNK         0.3000 
    201 H201       -0.8355  -28.4785  -46.2806 H         1 UNK         0.0600 
    202 H202        1.1011  -26.9464  -46.1397 H         1 UNK         0.0600 
    203 H203        0.6523  -26.1835  -47.6630 H         1 UNK         0.0600 
    204 H204        1.1741  -27.8643  -47.6367 H         1 UNK         0.0600 
    205 H205       -1.8592  -25.9480  -48.5970 H         1 UNK         0.3000 
    206 H206       -2.1812  -27.7314  -50.8404 H         1 UNK         0.0600 
    207 H207       -1.6795  -25.2897  -51.0578 H         1 UNK         0.0600 
    208 H208       -3.1554  -25.7092  -51.9086 H         1 UNK         0.0600 
    209 H209       -3.2435  -24.8946  -50.3500 H         1 UNK         0.0600 
    210 H210       -4.1207  -27.2641  -48.0781 H         1 UNK         0.3000 
    211 H211       -6.1875  -27.7082  -47.4283 H         1 UNK         0.0600 
    212 H212       -6.4111  -29.5629  -49.8610 H         1 UNK         0.0600 
    213 H213       -7.4250  -29.5965  -48.4256 H         1 UNK         0.0600 
    214 H214       -5.7217  -30.0068  -48.3002 H         1 UNK         0.0600 
    215 H215       -5.8620  -25.3743  -48.5944 H         1 UNK         0.3000 
    216 H216       -6.7853  -23.5591  -49.3667 H         1 UNK         0.0600 
    217 H217       -9.2231  -23.2711  -49.3381 H         1 UNK         0.0600 
    218 H218       -8.7414  -24.2516  -47.9651 H         1 UNK         0.0600 
    219 H219       -9.4816  -25.0081  -49.3759 H         1 UNK         0.0600 
    220 H220       -6.1652  -25.9456  -51.4103 H         1 UNK         0.3000 
    221 H221       -7.5579  -25.1570  -53.7963 H         1 UNK         0.0600 
    222 H222       -4.9079  -26.6647  -53.5092 H         1 UNK         0.0600 
    223 H223       -6.5058  -27.4111  -53.4583 H         1 UNK         0.0600 
    224 H224       -5.9435  -26.6286  -54.9279 H         1 UNK         0.0600 
    225 H225       -4.7954  -23.8444  -52.1344 H         1 UNK         0.3000 
    226 H226       -4.4519  -21.7629  -54.1992 H         1 UNK         0.0600 
    227 H227       -2.0145  -21.7573  -53.7691 H         1 UNK         0.0600 
    228 H228       -2.1658  -23.1332  -52.6841 H         1 UNK         0.0600 
    229 H229       -2.5051  -23.3188  -54.4032 H         1 UNK         0.0600 
    230 H230       -4.6654  -19.6612  -51.2026 H         1 UNK         0.3000 
    231 H231       -5.1987  -18.3054  -52.7926 H         1 UNK         0.0600 
    232 H232       -7.1353  -19.8369  -52.9773 H         1 UNK         0.0600 
    233 H233       -6.3559  -20.7180  -54.2829 H         1 UNK         0.0600 
    234 H234       -6.7878  -19.0336  -54.4952 H         1 UNK         0.0600 
    235 H235       -2.4972  -19.0517  -52.8867 H         1 UNK         0.3000 
    236 H236       -1.6402  -19.1210  -55.6715 H         1 UNK         0.0600 
    237 H237        0.5958  -18.7830  -54.7450 H         1 UNK         0.0600 
    238 H238       -0.0491  -18.3284  -53.1797 H         1 UNK         0.0600 
    239 H239       -0.2196  -19.9871  -53.7609 H         1 UNK         0.0600 
    240 H240       -2.5141  -16.6787  -53.3109 H         1 UNK         0.3000 
    241 H241       -1.5317  -14.3425  -54.6329 H         1 UNK         0.0600 
    242 H242       -3.9875  -13.4421  -57.0355 H         1 UNK         0.3800 
    243 H243       -2.4570  -13.0654  -56.2978 H         1 UNK         0.3800 
    244 H244       -3.2550  -13.1677  -53.1695 H         1 UNK         0.0800 
    245 H245       -3.8095  -14.7168  -52.6074 H         1 UNK         0.0800 
    246 H246       -3.0332  -15.8600  -50.7996 H         1 UNK         0.0800 
    247 H247       -2.1251  -15.0195  -49.5729 H         1 UNK         0.0800 
@<TRIPOS>BOND
     1    1    2 1    
     2    1  127 1    
     3    1  128 1    
     4    1  129 1    
     5    2    3 2    
     6    2    4 am   BACKBONE|DICT|INTERRES
     7    4    5 1    
     8    4  130 1    
     9    5    6 1    
    10    5   65 1    
    11    5  131 1    
    12    6    7 1    
    13    6  132 1    
    14    6  133 1    
    15    7    8 1    
    16    8    9 1    
    17    8  134 1    
    18    8  135 1    
    19    9   10 ar   
    20    9   14 ar   
    21   10   11 ar   
    22   10  136 1    
    23   11   12 ar   
    24   11  126 1    
    25   12   13 ar   
    26   12  137 1    
    27   13   14 ar   
    28   13   15 1    
    29   14  138 1    
    30   15   16 1    
    31   15  139 1    
    32   15  140 1    
    33   16   17 1    
    34   17   18 1    
    35   17  141 1    
    36   17  142 1    
    37   18   19 1    
    38   18   67 1    
    39   18  143 1    
    40   19   20 am   BACKBONE|DICT|INTERRES
    41   19  144 1    
    42   20   21 2    
    43   20   22 1    
    44   22   23 1    
    45   22   24 1    
    46   22  145 1    
    47   23  146 1    
    48   23  147 1    
    49   23  148 1    
    50   24   25 am   BACKBONE|DICT|INTERRES
    51   24  149 1    
    52   25   26 2    
    53   25   27 1    
    54   27   28 1    
    55   27   29 1    
    56   27  150 1    
    57   28  151 1    
    58   28  152 1    
    59   28  153 1    
    60   29   30 am   BACKBONE|DICT|INTERRES
    61   29  154 1    
    62   30   31 2    
    63   30   32 1    
    64   32   33 1    
    65   32   34 1    
    66   32  155 1    
    67   33  156 1    
    68   33  157 1    
    69   33  158 1    
    70   34   35 am   BACKBONE|DICT|INTERRES
    71   34  159 1    
    72   35   36 2    
    73   35   37 1    
    74   37   38 1    
    75   37   39 1    
    76   37  160 1    
    77   38  161 1    
    78   38  162 1    
    79   38  163 1    
    80   39   40 am   BACKBONE|DICT|INTERRES
    81   39  164 1    
    82   40   41 2    
    83   40   42 1    
    84   42   43 1    
    85   42   44 1    
    86   42  165 1    
    87   43  166 1    
    88   43  167 1    
    89   43  168 1    
    90   44   45 am   BACKBONE|DICT|INTERRES
    91   44  169 1    
    92   45   46 2    
    93   45   47 1    
    94   47   48 1    
    95   47   49 1    
    96   47  170 1    
    97   48  171 1    
    98   48  172 1    
    99   48  173 1    
   100   49   50 am   BACKBONE|DICT|INTERRES
   101   49  174 1    
   102   50   51 2    
   103   50   52 1    
   104   52   53 1    
   105   52   54 1    
   106   52  175 1    
   107   53  176 1    
   108   53  177 1    
   109   53  178 1    
   110   54   55 am   BACKBONE|DICT|INTERRES
   111   54  179 1    
   112   55   56 2    
   113   55   57 1    
   114   57   58 1    
   115   57   59 1    
   116   57  180 1    
   117   58  181 1    
   118   58  182 1    
   119   58  183 1    
   120   59   60 am   BACKBONE|DICT|INTERRES
   121   59  184 1    
   122   60   61 2    
   123   60   62 1    
   124   62   63 1    
   125   62   64 1    
   126   62  185 1    
   127   63  186 1    
   128   63  187 1    
   129   63  188 1    
   130   64   65 am   BACKBONE|DICT|INTERRES
   131   64  189 1    
   132   65   66 2    
   133   67   68 2    
   134   67   69 am   BACKBONE|DICT|INTERRES
   135   69   70 1    
   136   69  190 1    
   137   70   71 1    
   138   70   72 1    
   139   70  191 1    
   140   71  192 1    
   141   71  193 1    
   142   71  194 1    
   143   72   73 2    
   144   72   74 am   BACKBONE|DICT|INTERRES
   145   74   75 1    
   146   74  195 1    
   147   75   76 1    
   148   75   77 1    
   149   75  196 1    
   150   76  197 1    
   151   76  198 1    
   152   76  199 1    
   153   77   78 2    
   154   77   79 am   BACKBONE|DICT|INTERRES
   155   79   80 1    
   156   79  200 1    
   157   80   81 1    
   158   80   82 1    
   159   80  201 1    
   160   81  202 1    
   161   81  203 1    
   162   81  204 1    
   163   82   83 2    
   164   82   84 am   BACKBONE|DICT|INTERRES
   165   84   85 1    
   166   84  205 1    
   167   85   86 1    
   168   85   87 1    
   169   85  206 1    
   170   86  207 1    
   171   86  208 1    
   172   86  209 1    
   173   87   88 2    
   174   87   89 am   BACKBONE|DICT|INTERRES
   175   89   90 1    
   176   89  210 1    
   177   90   91 1    
   178   90   92 1    
   179   90  211 1    
   180   91  212 1    
   181   91  213 1    
   182   91  214 1    
   183   92   93 2    
   184   92   94 am   BACKBONE|DICT|INTERRES
   185   94   95 1    
   186   94  215 1    
   187   95   96 1    
   188   95   97 1    
   189   95  216 1    
   190   96  217 1    
   191   96  218 1    
   192   96  219 1    
   193   97   98 2    
   194   97   99 am   BACKBONE|DICT|INTERRES
   195   99  100 1    
   196   99  220 1    
   197  100  101 1    
   198  100  102 1    
   199  100  221 1    
   200  101  222 1    
   201  101  223 1    
   202  101  224 1    
   203  102  103 2    
   204  102  104 am   BACKBONE|DICT|INTERRES
   205  104  105 1    
   206  104  225 1    
   207  105  106 1    
   208  105  107 1    
   209  105  226 1    
   210  106  227 1    
   211  106  228 1    
   212  106  229 1    
   213  107  108 2    
   214  107  109 am   BACKBONE|DICT|INTERRES
   215  109  110 1    
   216  109  230 1    
   217  110  111 1    
   218  110  112 1    
   219  110  231 1    
   220  111  232 1    
   221  111  233 1    
   222  111  234 1    
   223  112  113 2    
   224  112  114 am   BACKBONE|DICT|INTERRES
   225  114  115 1    
   226  114  235 1    
   227  115  116 1    
   228  115  117 1    
   229  115  236 1    
   230  116  237 1    
   231  116  238 1    
   232  116  239 1    
   233  117  118 2    
   234  117  119 am   BACKBONE|DICT|INTERRES
   235  119  120 1    
   236  119  240 1    
   237  120  121 1    
   238  120  124 1    
   239  120  241 1    
   240  121  122 am   BACKBONE|DICT|INTERRES
   241  121  123 2    
   242  122  242 1    
   243  122  243 1    
   244  124  125 1    
   245  124  244 1    
   246  124  245 1    
   247  125  126 1    
   248  126  246 1    
   249  126  247 1    
@<TRIPOS>SUBSTRUCTURE
     1 UNK         1 GROUP             0       ****    0 ROOT    
