@<TRIPOS>MOLECULE
3R540
247   249    1
SMALL
USER_CHARGES


@<TRIPOS>ATOM
      1 CA          0.5703  -16.0269  -50.2014 C.3       0 UNK        -0.1800 
      2 C           1.4475  -14.8188  -49.9107 C.2       0 UNK         0.5000 
      3 O           1.0460  -13.6901  -50.1929 O.2       0 UNK        -0.5000 
      4 N           2.6397  -15.0508  -49.3428 N.am      1 UNK        -0.5000 
      5 CA          3.6071  -14.0132  -48.9607 C.3       1 UNK         0.1400 
      6 C6          4.9928  -14.6014  -48.5795 C.3       23 UNK        -0.0398 
      7 S7          6.0720  -15.2792  -49.9008 S.3       23 UNK        -0.2404 
      8 C8          5.0834  -15.4226  -51.4351 C.3       23 UNK        -0.0205 
      9 C9          4.1932  -16.6622  -51.5591 C.ar      23 UNK        -0.0193 
     10 C10         3.4097  -16.7952  -52.7088 C.ar      23 UNK        -0.1150 
     11 C11         2.5640  -17.8943  -52.8808 C.ar      23 UNK        -0.0193 
     12 C12         2.4840  -18.8654  -51.8783 C.ar      23 UNK        -0.1150 
     13 C13         3.2598  -18.7492  -50.7214 C.ar      23 UNK        -0.0193 
     14 C14         4.1228  -17.6594  -50.5771 C.ar      23 UNK        -0.1150 
     15 C15         3.1884  -19.7990  -49.6234 C.3       23 UNK        -0.0205 
     16 S16         2.4509  -19.1325  -48.0962 S.3       23 UNK        -0.2404 
     17 C17         0.6691  -19.4031  -48.3840 C.3       23 UNK        -0.0398 
     18 CA          0.2009  -20.7605  -47.8103 C.3       11 UNK         0.1400 
     19 N           0.3649  -20.8631  -46.3566 N.am      11 UNK        -0.5000 
     20 C           0.3070  -22.0200  -45.6823 C.2       10 UNK         0.5000 
     21 O           0.1218  -23.1126  -46.2189 O.2       10 UNK        -0.5000 
     22 CA          0.4293  -21.9452  -44.1507 C.3       10 UNK         0.1400 
     23 CB          1.8927  -21.7526  -43.7265 C.3       10 UNK        -0.1800 
     24 N          -0.4077  -20.8959  -43.5662 N.am      10 UNK        -0.5000 
     25 C          -1.7468  -20.8744  -43.6364 C.2       9 UNK         0.5000 
     26 O          -2.4145  -21.7517  -44.1813 O.2       9 UNK        -0.5000 
     27 CA         -2.4668  -19.6575  -43.0310 C.3       9 UNK         0.1400 
     28 CB         -2.6043  -19.8106  -41.5091 C.3       9 UNK        -0.1800 
     29 N          -1.8064  -18.3912  -43.3426 N.am      9 UNK        -0.5000 
     30 C          -1.6472  -17.8916  -44.5768 C.2       8 UNK         0.5000 
     31 O          -2.0702  -18.4327  -45.5985 O.2       8 UNK        -0.5000 
     32 CA         -0.8121  -16.6024  -44.6919 C.3       8 UNK         0.1400 
     33 CB         -1.6260  -15.3735  -44.2584 C.3       8 UNK        -0.1800 
     34 N           0.4282  -16.6781  -43.9172 N.am      8 UNK        -0.5000 
     35 C           1.3868  -17.5937  -44.1259 C.2       7 UNK         0.5000 
     36 O           1.3472  -18.4346  -45.0224 O.2       7 UNK        -0.5000 
     37 CA          2.5624  -17.6012  -43.1386 C.3       7 UNK         0.1400 
     38 CB          3.5918  -16.5328  -43.5225 C.3       7 UNK        -0.1800 
     39 N           2.1154  -17.3912  -41.7618 N.am      7 UNK        -0.5000 
     40 C           1.4352  -18.3033  -41.0523 C.2       6 UNK         0.5000 
     41 O           1.1405  -19.4195  -41.4788 O.2       6 UNK        -0.5000 
     42 CA          0.9678  -17.8828  -39.6473 C.3       6 UNK         0.1400 
     43 CB          2.1132  -18.0104  -38.6319 C.3       6 UNK        -0.1800 
     44 N           0.4364  -16.5203  -39.6113 N.am      6 UNK        -0.5000 
     45 C          -0.6535  -16.1104  -40.2750 C.2       5 UNK         0.5000 
     46 O          -1.3469  -16.8486  -40.9726 O.2       5 UNK        -0.5000 
     47 CA         -1.0117  -14.6170  -40.1755 C.3       5 UNK         0.1400 
     48 CB         -1.9977  -14.3781  -39.0226 C.3       5 UNK        -0.1800 
     49 N           0.1478  -13.7366  -40.0097 N.am      5 UNK        -0.5000 
     50 C           1.1496  -13.6078  -40.8897 C.2       4 UNK         0.5000 
     51 O           1.2282  -14.2680  -41.9317 O.2       4 UNK        -0.5000 
     52 CA          2.2131  -12.5492  -40.5315 C.3       4 UNK         0.1400 
     53 CB          2.9507  -12.8828  -39.2169 C.3       4 UNK        -0.1800 
     54 N           3.1350  -12.3015  -41.6432 N.am      4 UNK        -0.5000 
     55 C           4.1386  -13.0687  -42.0881 C.2       3 UNK         0.5000 
     56 O           4.5879  -14.0492  -41.4927 O.2       3 UNK        -0.5000 
     57 CA          4.6741  -12.6969  -43.4874 C.3       3 UNK         0.1400 
     58 CB          6.0186  -13.3733  -43.8092 C.3       3 UNK        -0.1800 
     59 N           3.7039  -13.0720  -44.5176 N.am      3 UNK        -0.5000 
     60 C           2.5430  -12.4497  -44.7645 C.2       2 UNK         0.5000 
     61 O           2.2134  -11.3894  -44.2275 O.2       2 UNK        -0.5000 
     62 CA          1.5951  -13.1522  -45.7594 C.3       2 UNK         0.1400 
     63 CB          0.4442  -12.2466  -46.2419 C.3       2 UNK        -0.1800 
     64 N           2.2839  -13.7603  -46.9033 N.am      2 UNK        -0.5000 
     65 C           3.0725  -13.1439  -47.7999 C.2       1 UNK         0.5000 
     66 O           3.3787  -11.9521  -47.7496 O.2       1 UNK        -0.5000 
     67 C          -1.2371  -21.0992  -48.2524 C.2       11 UNK         0.5000 
     68 O          -1.4041  -21.7553  -49.2799 O.2       11 UNK        -0.5000 
     69 N          -2.2455  -20.7064  -47.4583 N.am      12 UNK        -0.5000 
     70 CA         -3.6442  -21.0859  -47.6679 C.3       12 UNK         0.1400 
     71 CB         -4.5581  -20.2976  -46.7193 C.3       12 UNK        -0.1800 
     72 C          -3.8727  -22.5999  -47.5138 C.2       12 UNK         0.5000 
     73 O          -4.5581  -23.1908  -48.3480 O.2       12 UNK        -0.5000 
     74 N          -3.2732  -23.2089  -46.4813 N.am      13 UNK        -0.5000 
     75 CA         -3.3054  -24.6511  -46.2314 C.3       13 UNK         0.1400 
     76 CB         -2.6846  -24.9599  -44.8611 C.3       13 UNK        -0.1800 
     77 C          -2.6145  -25.4589  -47.3438 C.2       13 UNK         0.5000 
     78 O          -3.1725  -26.4581  -47.7986 O.2       13 UNK        -0.5000 
     79 N          -1.4491  -24.9816  -47.8061 N.am      14 UNK        -0.5000 
     80 CA         -0.7125  -25.5348  -48.9476 C.3       14 UNK         0.1400 
     81 CB          0.6410  -24.8210  -49.0782 C.3       14 UNK        -0.1800 
     82 C          -1.5011  -25.4508  -50.2701 C.2       14 UNK         0.5000 
     83 O          -1.3939  -26.3503  -51.1035 O.2       14 UNK        -0.5000 
     84 N          -2.3183  -24.3998  -50.4092 N.am      15 UNK        -0.5000 
     85 CA         -3.2657  -24.1842  -51.5013 C.3       15 UNK         0.1400 
     86 CB         -3.4376  -22.6701  -51.7100 C.3       15 UNK        -0.1800 
     87 C          -4.6246  -24.8880  -51.2841 C.2       15 UNK         0.5000 
     88 O          -5.5888  -24.5338  -51.9605 O.2       15 UNK        -0.5000 
     89 N          -4.6961  -25.8565  -50.3572 N.am      16 UNK        -0.5000 
     90 CA         -5.8552  -26.7005  -50.0441 C.3       16 UNK         0.1400 
     91 CB         -6.1814  -27.6350  -51.2284 C.3       16 UNK        -0.1800 
     92 C          -7.0727  -25.8862  -49.5613 C.2       16 UNK         0.5000 
     93 O          -8.1704  -26.0244  -50.1034 O.2       16 UNK        -0.5000 
     94 N          -6.8308  -25.0379  -48.5523 N.am      17 UNK        -0.5000 
     95 CA         -7.7567  -24.0610  -47.9681 C.3       17 UNK         0.1400 
     96 CB         -9.0050  -24.7384  -47.3633 C.3       17 UNK        -0.1800 
     97 C          -8.0816  -22.9256  -48.9592 C.2       17 UNK         0.5000 
     98 O          -9.2402  -22.5333  -49.1081 O.2       17 UNK        -0.5000 
     99 N          -7.0212  -22.4222  -49.6062 N.am      18 UNK        -0.5000 
    100 CA        -6.9945  -21.3262  -50.5756 C.3       18 UNK         0.1400 
    101 CB        -7.2810  -19.9796  -49.8810 C.3       18 UNK        -0.1800 
    102 C         -7.8746  -21.5707  -51.8185 C.2       18 UNK         0.5000 
    103 O         -8.5734  -20.6629  -52.2749 O.2       18 UNK        -0.5000 
    104 N         -7.8057  -22.7890  -52.3682 N.am      19 UNK        -0.5000 
    105 CA        -8.4691  -23.1909  -53.6055 C.3       19 UNK         0.1400 
    106 CB        -8.6151  -24.7230  -53.6183 C.3       19 UNK        -0.1800 
    107 C         -7.6774  -22.6579  -54.8153 C.2       19 UNK         0.5000 
    108 O         -6.8892  -23.3939  -55.4113 O.2       19 UNK        -0.5000 
    109 N         -7.8790  -21.3659  -55.1147 N.am      20 UNK        -0.5000 
    110 CA        -7.1731  -20.5617  -56.1189 C.3       20 UNK         0.1400 
    111 CB        -7.4301  -21.0900  -57.5464 C.3       20 UNK        -0.1800 
    112 C         -5.6760  -20.4179  -55.7769 C.2       20 UNK         0.5000 
    113 O         -4.8100  -20.7721  -56.5817 O.2       20 UNK        -0.5000 
    114 N         -5.4083  -19.9138  -54.5618 N.am      21 UNK        -0.5000 
    115 CA        -4.0711  -19.6780  -54.0124 C.3       21 UNK         0.1400 
    116 CB        -4.1883  -19.0509  -52.6142 C.3       21 UNK        -0.1800 
    117 C         -3.2032  -18.7955  -54.9262 C.2       21 UNK         0.5000 
    118 O         -3.6329  -17.7057  -55.3113 O.2       21 UNK        -0.5000 
    119 N         -2.0140  -19.3077  -55.2604 N.am      22 UNK        -0.5000 
    120 CA        -1.0315  -18.7072  -56.1784 C.3       22 UNK         0.1400 
    121 C         -1.4669  -18.6850  -57.6776 C.2       22 UNK         0.5000 
    122 N         -2.5443  -19.3526  -58.0766 N.am      22 UNK        -0.7600 
    123 O         -0.7950  -18.0788  -58.5079 O.2       22 UNK        -0.5000 
    124 C124       -0.4898  -17.3280  -55.7009 C.3       23 UNK        -0.0398 
    125 S125        0.0925  -17.3182  -53.9688 S.3       23 UNK        -0.2404 
    126 C126        1.7524  -18.0318  -54.1588 C.3       23 UNK        -0.0205 
    127 H127        1.0898  -16.9604  -49.9925 H         1 UNK         0.0600 
    128 H128        0.2770  -16.0320  -51.2504 H         1 UNK         0.0600 
    129 H129       -0.3327  -15.9939  -49.5921 H         1 UNK         0.0600 
    130 H130        2.9289  -16.0058  -49.1838 H         1 UNK         0.3000 
    131 H131        3.7391  -13.3393  -49.8088 H         1 UNK         0.0600 
    132 H132        4.8676  -15.3822  -47.8273 H         1 UNK         0.0800 
    133 H133        5.5981  -13.8332  -48.0936 H         1 UNK         0.0800 
    134 H134        4.4872  -14.5230  -51.5848 H         1 UNK         0.0800 
    135 H135        5.7899  -15.4465  -52.2658 H         1 UNK         0.0800 
    136 H136        3.4597  -16.0374  -53.4785 H         1 UNK         0.1150 
    137 H137        1.8218  -19.7107  -52.0028 H         1 UNK         0.1150 
    138 H138        4.7210  -17.5956  -49.6805 H         1 UNK         0.1150 
    139 H139        2.6349  -20.6798  -49.9525 H         1 UNK         0.0800 
    140 H140        4.1996  -20.1420  -49.4003 H         1 UNK         0.0800 
    141 H141        0.4719  -19.3423  -49.4560 H         1 UNK         0.0800 
    142 H142        0.1166  -18.5835  -47.9210 H         1 UNK         0.0800 
    143 H143        0.8393  -21.5277  -48.2537 H         1 UNK         0.0600 
    144 H144        0.5665  -20.0013  -45.8555 H         1 UNK         0.3000 
    145 H145        0.0875  -22.9005  -43.7471 H         1 UNK         0.0600 
    146 H146        1.9968  -21.7887  -42.6421 H         1 UNK         0.0600 
    147 H147        2.5249  -22.5395  -44.1396 H         1 UNK         0.0600 
    148 H148        2.2913  -20.7983  -44.0702 H         1 UNK         0.0600 
    149 H149        0.0722  -20.1596  -43.0598 H         1 UNK         0.3000 
    150 H150       -3.4705  -19.6201  -43.4587 H         1 UNK         0.0600 
    151 H151       -3.1020  -20.7468  -41.2531 H         1 UNK         0.0600 
    152 H152       -3.1972  -19.0004  -41.0843 H         1 UNK         0.0600 
    153 H153       -1.6324  -19.8076  -41.0146 H         1 UNK         0.0600 
    154 H154       -1.4571  -17.8600  -42.5486 H         1 UNK         0.3000 
    155 H155       -0.5380  -16.4751  -45.7414 H         1 UNK         0.0600 
    156 H156       -1.9645  -15.4561  -43.2261 H         1 UNK         0.0600 
    157 H157       -1.0447  -14.4562  -44.3458 H         1 UNK         0.0600 
    158 H158       -2.5126  -15.2573  -44.8828 H         1 UNK         0.0600 
    159 H159        0.5405  -16.0216  -43.1540 H         1 UNK         0.3000 
    160 H160        3.0487  -18.5770  -43.1991 H         1 UNK         0.0600 
    161 H161        3.1578  -15.5361  -43.4673 H         1 UNK         0.0600 
    162 H162        3.9535  -16.6826  -44.5406 H         1 UNK         0.0600 
    163 H163        4.4570  -16.5604  -42.8599 H         1 UNK         0.0600 
    164 H164        2.2743  -16.4755  -41.3650 H         1 UNK         0.3000 
    165 H165        0.1676  -18.5627  -39.3472 H         1 UNK         0.0600 
    166 H166        1.7685  -17.7972  -37.6200 H         1 UNK         0.0600 
    167 H167        2.5205  -19.0224  -38.6289 H         1 UNK         0.0600 
    168 H168        2.9326  -17.3270  -38.8589 H         1 UNK         0.0600 
    169 H169        0.9478  -15.8429  -39.0655 H         1 UNK         0.3000 
    170 H170       -1.5055  -14.3370  -41.1078 H         1 UNK         0.0600 
    171 H171       -1.5497  -14.6081  -38.0550 H         1 UNK         0.0600 
    172 H172       -2.3352  -13.3417  -38.9996 H         1 UNK         0.0600 
    173 H173       -2.8845  -15.0042  -39.1310 H         1 UNK         0.0600 
    174 H174        0.1509  -13.1583  -39.1818 H         1 UNK         0.3000 
    175 H175        1.6808  -11.6084  -40.3841 H         1 UNK         0.0600 
    176 H176        3.7685  -12.1856  -39.0344 H         1 UNK         0.0600 
    177 H177        3.3636  -13.8919  -39.2223 H         1 UNK         0.0600 
    178 H178        2.2774  -12.8173  -38.3619 H         1 UNK         0.0600 
    179 H179        2.8108  -11.5963  -42.2976 H         1 UNK         0.3000 
    180 H180        4.8258  -11.6158  -43.5165 H         1 UNK         0.0600 
    181 H181        5.9320  -14.4604  -43.8293 H         1 UNK         0.0600 
    182 H182        6.7715  -13.1173  -43.0628 H         1 UNK         0.0600 
    183 H183        6.3994  -13.0503  -44.7782 H         1 UNK         0.0600 
    184 H184        3.8888  -13.9351  -45.0049 H         1 UNK         0.3000 
    185 H185        1.1500  -13.9778  -45.2031 H         1 UNK         0.0600 
    186 H186       -0.1550  -11.8926  -45.4021 H         1 UNK         0.0600 
    187 H187        0.8160  -11.3700  -46.7733 H         1 UNK         0.0600 
    188 H188       -0.2256  -12.7855  -46.9121 H         1 UNK         0.0600 
    189 H189        2.0966  -14.7411  -47.0542 H         1 UNK         0.3000 
    190 H190       -2.0467  -20.1235  -46.6506 H         1 UNK         0.3000 
    191 H191       -3.9136  -20.8151  -48.6908 H         1 UNK         0.0600 
    192 H192       -4.4764  -19.2251  -46.8962 H         1 UNK         0.0600 
    193 H193       -5.6035  -20.5731  -46.8640 H         1 UNK         0.0600 
    194 H194       -4.3125  -20.4833  -45.6740 H         1 UNK         0.0600 
    195 H195       -2.7741  -22.6434  -45.7988 H         1 UNK         0.3000 
    196 H196       -4.3528  -24.9584  -46.2020 H         1 UNK         0.0600 
    197 H197       -2.7094  -26.0302  -44.6525 H         1 UNK         0.0600 
    198 H198       -3.2306  -24.4601  -44.0610 H         1 UNK         0.0600 
    199 H199       -1.6446  -24.6380  -44.8064 H         1 UNK         0.0600 
    200 H200       -1.0296  -24.1820  -47.3384 H         1 UNK         0.3000 
    201 H201       -0.5240  -26.5902  -48.7408 H         1 UNK         0.0600 
    202 H202        1.2300  -24.9209  -48.1663 H         1 UNK         0.0600 
    203 H203        0.5161  -23.7574  -49.2813 H         1 UNK         0.0600 
    204 H204        1.2287  -25.2441  -49.8937 H         1 UNK         0.0600 
    205 H205       -2.3040  -23.6853  -49.6908 H         1 UNK         0.3000 
    206 H206       -2.8467  -24.5984  -52.4203 H         1 UNK         0.0600 
    207 H207       -2.4898  -22.2010  -51.9746 H         1 UNK         0.0600 
    208 H208       -4.1415  -22.4570  -52.5147 H         1 UNK         0.0600 
    209 H209       -3.8055  -22.1828  -50.8082 H         1 UNK         0.0600 
    210 H210       -3.8729  -26.0365  -49.7955 H         1 UNK         0.3000 
    211 H211       -5.5571  -27.3305  -49.2048 H         1 UNK         0.0600 
    212 H212       -6.5210  -27.0804  -52.1036 H         1 UNK         0.0600 
    213 H213       -6.9702  -28.3397  -50.9629 H         1 UNK         0.0600 
    214 H214       -5.3090  -28.2197  -51.5201 H         1 UNK         0.0600 
    215 H215       -5.8680  -24.9378  -48.2552 H         1 UNK         0.3000 
    216 H216       -7.2157  -23.5931  -47.1442 H         1 UNK         0.0600 
    217 H217       -9.5988  -24.0194  -46.7979 H         1 UNK         0.0600 
    218 H218       -8.7265  -25.5390  -46.6782 H         1 UNK         0.0600 
    219 H219       -9.6549  -25.1615  -48.1293 H         1 UNK         0.0600 
    220 H220       -6.1167  -22.8258  -49.3774 H         1 UNK         0.3000 
    221 H221       -5.9720  -21.2916  -50.9446 H         1 UNK         0.0600 
    222 H222       -8.3007  -19.9317  -49.4978 H         1 UNK         0.0600 
    223 H223       -6.6003  -19.8137  -49.0465 H         1 UNK         0.0600 
    224 H224       -7.1508  -19.1461  -50.5722 H         1 UNK         0.0600 
    225 H225       -7.1377  -23.4599  -51.9946 H         1 UNK         0.3000 
    226 H226       -9.4731  -22.7622  -53.6337 H         1 UNK         0.0600 
    227 H227       -9.2002  -25.0689  -52.7658 H         1 UNK         0.0600 
    228 H228       -9.1239  -25.0584  -54.5225 H         1 UNK         0.0600 
    229 H229       -7.6476  -25.2246  -53.5799 H         1 UNK         0.0600 
    230 H230       -8.5021  -20.8501  -54.5043 H         1 UNK         0.3000 
    231 H231       -7.5982  -19.5583  -56.0648 H         1 UNK         0.0600 
    232 H232       -6.9934  -22.0762  -57.7052 H         1 UNK         0.0600 
    233 H233       -6.9963  -20.4207  -58.2902 H         1 UNK         0.0600 
    234 H234       -8.4977  -21.1585  -57.7549 H         1 UNK         0.0600 
    235 H235       -6.1846  -19.6338  -53.9813 H         1 UNK         0.3000 
    236 H236       -3.5890  -20.6514  -53.9119 H         1 UNK         0.0600 
    237 H237       -4.7161  -19.7065  -51.9259 H         1 UNK         0.0600 
    238 H238       -3.2019  -18.8648  -52.1869 H         1 UNK         0.0600 
    239 H239       -4.7178  -18.0977  -52.6438 H         1 UNK         0.0600 
    240 H240       -1.7634  -20.2187  -54.9047 H         1 UNK         0.3000 
    241 H241       -0.1862  -19.3955  -56.1633 H         1 UNK         0.0600 
    242 H242       -3.1325  -19.8532  -57.4199 H         1 UNK         0.3800 
    243 H243       -2.7980  -19.3359  -59.0517 H         1 UNK         0.3800 
    244 H244        0.3290  -16.9954  -56.3408 H         1 UNK         0.0800 
    245 H245       -1.2646  -16.5662  -55.7960 H         1 UNK         0.0800 
    246 H246        1.6662  -19.0839  -54.4340 H         1 UNK         0.0800 
    247 H247        2.2726  -17.5391  -54.9818 H         1 UNK         0.0800 
@<TRIPOS>BOND
     1    1    2 1    
     2    1  127 1    
     3    1  128 1    
     4    1  129 1    
     5    2    3 2    
     6    2    4 am   BACKBONE|DICT|INTERRES
     7    4    5 1    
     8    4  130 1    
     9    5    6 1    
    10    5   65 1    
    11    5  131 1    
    12    6    7 1    
    13    6  132 1    
    14    6  133 1    
    15    7    8 1    
    16    8    9 1    
    17    8  134 1    
    18    8  135 1    
    19    9   10 ar   
    20    9   14 ar   
    21   10   11 ar   
    22   10  136 1    
    23   11   12 ar   
    24   11  126 1    
    25   12   13 ar   
    26   12  137 1    
    27   13   14 ar   
    28   13   15 1    
    29   14  138 1    
    30   15   16 1    
    31   15  139 1    
    32   15  140 1    
    33   16   17 1    
    34   17   18 1    
    35   17  141 1    
    36   17  142 1    
    37   18   19 1    
    38   18   67 1    
    39   18  143 1    
    40   19   20 am   BACKBONE|DICT|INTERRES
    41   19  144 1    
    42   20   21 2    
    43   20   22 1    
    44   22   23 1    
    45   22   24 1    
    46   22  145 1    
    47   23  146 1    
    48   23  147 1    
    49   23  148 1    
    50   24   25 am   BACKBONE|DICT|INTERRES
    51   24  149 1    
    52   25   26 2    
    53   25   27 1    
    54   27   28 1    
    55   27   29 1    
    56   27  150 1    
    57   28  151 1    
    58   28  152 1    
    59   28  153 1    
    60   29   30 am   BACKBONE|DICT|INTERRES
    61   29  154 1    
    62   30   31 2    
    63   30   32 1    
    64   32   33 1    
    65   32   34 1    
    66   32  155 1    
    67   33  156 1    
    68   33  157 1    
    69   33  158 1    
    70   34   35 am   BACKBONE|DICT|INTERRES
    71   34  159 1    
    72   35   36 2    
    73   35   37 1    
    74   37   38 1    
    75   37   39 1    
    76   37  160 1    
    77   38  161 1    
    78   38  162 1    
    79   38  163 1    
    80   39   40 am   BACKBONE|DICT|INTERRES
    81   39  164 1    
    82   40   41 2    
    83   40   42 1    
    84   42   43 1    
    85   42   44 1    
    86   42  165 1    
    87   43  166 1    
    88   43  167 1    
    89   43  168 1    
    90   44   45 am   BACKBONE|DICT|INTERRES
    91   44  169 1    
    92   45   46 2    
    93   45   47 1    
    94   47   48 1    
    95   47   49 1    
    96   47  170 1    
    97   48  171 1    
    98   48  172 1    
    99   48  173 1    
   100   49   50 am   BACKBONE|DICT|INTERRES
   101   49  174 1    
   102   50   51 2    
   103   50   52 1    
   104   52   53 1    
   105   52   54 1    
   106   52  175 1    
   107   53  176 1    
   108   53  177 1    
   109   53  178 1    
   110   54   55 am   BACKBONE|DICT|INTERRES
   111   54  179 1    
   112   55   56 2    
   113   55   57 1    
   114   57   58 1    
   115   57   59 1    
   116   57  180 1    
   117   58  181 1    
   118   58  182 1    
   119   58  183 1    
   120   59   60 am   BACKBONE|DICT|INTERRES
   121   59  184 1    
   122   60   61 2    
   123   60   62 1    
   124   62   63 1    
   125   62   64 1    
   126   62  185 1    
   127   63  186 1    
   128   63  187 1    
   129   63  188 1    
   130   64   65 am   BACKBONE|DICT|INTERRES
   131   64  189 1    
   132   65   66 2    
   133   67   68 2    
   134   67   69 am   BACKBONE|DICT|INTERRES
   135   69   70 1    
   136   69  190 1    
   137   70   71 1    
   138   70   72 1    
   139   70  191 1    
   140   71  192 1    
   141   71  193 1    
   142   71  194 1    
   143   72   73 2    
   144   72   74 am   BACKBONE|DICT|INTERRES
   145   74   75 1    
   146   74  195 1    
   147   75   76 1    
   148   75   77 1    
   149   75  196 1    
   150   76  197 1    
   151   76  198 1    
   152   76  199 1    
   153   77   78 2    
   154   77   79 am   BACKBONE|DICT|INTERRES
   155   79   80 1    
   156   79  200 1    
   157   80   81 1    
   158   80   82 1    
   159   80  201 1    
   160   81  202 1    
   161   81  203 1    
   162   81  204 1    
   163   82   83 2    
   164   82   84 am   BACKBONE|DICT|INTERRES
   165   84   85 1    
   166   84  205 1    
   167   85   86 1    
   168   85   87 1    
   169   85  206 1    
   170   86  207 1    
   171   86  208 1    
   172   86  209 1    
   173   87   88 2    
   174   87   89 am   BACKBONE|DICT|INTERRES
   175   89   90 1    
   176   89  210 1    
   177   90   91 1    
   178   90   92 1    
   179   90  211 1    
   180   91  212 1    
   181   91  213 1    
   182   91  214 1    
   183   92   93 2    
   184   92   94 am   BACKBONE|DICT|INTERRES
   185   94   95 1    
   186   94  215 1    
   187   95   96 1    
   188   95   97 1    
   189   95  216 1    
   190   96  217 1    
   191   96  218 1    
   192   96  219 1    
   193   97   98 2    
   194   97   99 am   BACKBONE|DICT|INTERRES
   195   99  100 1    
   196   99  220 1    
   197  100  101 1    
   198  100  102 1    
   199  100  221 1    
   200  101  222 1    
   201  101  223 1    
   202  101  224 1    
   203  102  103 2    
   204  102  104 am   BACKBONE|DICT|INTERRES
   205  104  105 1    
   206  104  225 1    
   207  105  106 1    
   208  105  107 1    
   209  105  226 1    
   210  106  227 1    
   211  106  228 1    
   212  106  229 1    
   213  107  108 2    
   214  107  109 am   BACKBONE|DICT|INTERRES
   215  109  110 1    
   216  109  230 1    
   217  110  111 1    
   218  110  112 1    
   219  110  231 1    
   220  111  232 1    
   221  111  233 1    
   222  111  234 1    
   223  112  113 2    
   224  112  114 am   BACKBONE|DICT|INTERRES
   225  114  115 1    
   226  114  235 1    
   227  115  116 1    
   228  115  117 1    
   229  115  236 1    
   230  116  237 1    
   231  116  238 1    
   232  116  239 1    
   233  117  118 2    
   234  117  119 am   BACKBONE|DICT|INTERRES
   235  119  120 1    
   236  119  240 1    
   237  120  121 1    
   238  120  124 1    
   239  120  241 1    
   240  121  122 am   BACKBONE|DICT|INTERRES
   241  121  123 2    
   242  122  242 1    
   243  122  243 1    
   244  124  125 1    
   245  124  244 1    
   246  124  245 1    
   247  125  126 1    
   248  126  246 1    
   249  126  247 1    
@<TRIPOS>SUBSTRUCTURE
     1 UNK         1 GROUP             0       ****    0 ROOT    
