@<TRIPOS>MOLECULE
3R540
247   249    1
SMALL
USER_CHARGES


@<TRIPOS>ATOM
      1 CA         -4.6177  -16.0647  -44.1967 C.3       0 UNK        -0.1800 
      2 C          -4.3609  -15.1537  -45.3866 C.2       0 UNK         0.5000 
      3 O          -5.0869  -14.1764  -45.5723 O.2       0 UNK        -0.5000 
      4 N          -3.3377  -15.4692  -46.1926 N.am      1 UNK        -0.5000 
      5 CA         -2.8790  -14.6368  -47.3085 C.3       1 UNK         0.1400 
      6 C6         -1.9424  -15.4316  -48.2534 C.3       23 UNK        -0.0398 
      7 S7         -1.8054  -14.6654  -49.9048 S.3       23 UNK        -0.2404 
      8 C8         -0.0038  -14.5985  -50.1459 C.3       23 UNK        -0.0205 
      9 C9          0.5270  -15.9168  -50.6868 C.ar      23 UNK        -0.0193 
     10 C10         0.5694  -16.1362  -52.0652 C.ar      23 UNK        -0.1150 
     11 C11         1.0424  -17.3453  -52.5850 C.ar      23 UNK        -0.0193 
     12 C12         1.5014  -18.3303  -51.7034 C.ar      23 UNK        -0.1150 
     13 C13         1.4907  -18.1136  -50.3212 C.ar      23 UNK        -0.0193 
     14 C14         0.9931  -16.9072  -49.8199 C.ar      23 UNK        -0.1150 
     15 C15         2.0675  -19.1562  -49.3717 C.3       23 UNK        -0.0205 
     16 S16         1.1179  -20.7086  -49.3531 S.3       23 UNK        -0.2404 
     17 C17        -0.4929  -20.1523  -48.7106 C.3       23 UNK        -0.0398 
     18 CA         -1.2114  -21.2792  -47.9295 C.3       11 UNK         0.1400 
     19 N          -0.7204  -21.4148  -46.5530 N.am      11 UNK        -0.5000 
     20 C          -1.0857  -22.3846  -45.7019 C.2       10 UNK         0.5000 
     21 O          -1.8629  -23.2905  -45.9942 O.2       10 UNK        -0.5000 
     22 CA         -0.5468  -22.3047  -44.2630 C.3       10 UNK         0.1400 
     23 CB          0.8925  -22.8334  -44.1850 C.3       10 UNK        -0.1800 
     24 N          -0.6238  -20.9565  -43.6979 N.am      10 UNK        -0.5000 
     25 C          -1.7638  -20.2723  -43.5176 C.2       9 UNK         0.5000 
     26 O          -2.8782  -20.7114  -43.8012 O.2       9 UNK        -0.5000 
     27 CA         -1.6344  -18.8366  -42.9816 C.3       9 UNK         0.1400 
     28 CB         -1.3675  -18.8227  -41.4694 C.3       9 UNK        -0.1800 
     29 N          -0.5866  -18.0935  -43.6763 N.am      9 UNK        -0.5000 
     30 C          -0.6234  -17.7445  -44.9694 C.2       8 UNK         0.5000 
     31 O          -1.6093  -17.8802  -45.6974 O.2       8 UNK        -0.5000 
     32 CA          0.6819  -17.1806  -45.5555 C.3       8 UNK         0.1400 
     33 CB          0.7909  -15.6695  -45.3090 C.3       8 UNK        -0.1800 
     34 N           1.8650  -17.8403  -45.0027 N.am      8 UNK        -0.5000 
     35 C           2.2206  -19.1067  -45.2564 C.2       7 UNK         0.5000 
     36 O           1.5849  -19.8528  -45.9966 O.2       7 UNK        -0.5000 
     37 CA          3.4757  -19.6353  -44.5376 C.3       7 UNK         0.1400 
     38 CB          4.7366  -19.2955  -45.3455 C.3       7 UNK        -0.1800 
     39 N           3.6109  -19.1038  -43.1808 N.am      7 UNK        -0.5000 
     40 C           2.7765  -19.3855  -42.1693 C.2       6 UNK         0.5000 
     41 O           1.8445  -20.1842  -42.2574 O.2       6 UNK        -0.5000 
     42 CA          2.9768  -18.5817  -40.8680 C.3       6 UNK         0.1400 
     43 CB          4.0139  -19.2634  -39.9636 C.3       6 UNK        -0.1800 
     44 N           3.3796  -17.1912  -41.1149 N.am      6 UNK        -0.5000 
     45 C           2.6393  -16.3060  -41.7961 C.2       5 UNK         0.5000 
     46 O           1.5156  -16.5672  -42.2315 O.2       5 UNK        -0.5000 
     47 CA          3.3014  -14.9498  -42.1126 C.3       5 UNK         0.1400 
     48 CB          4.4649  -15.1383  -43.1017 C.3       5 UNK        -0.1800 
     49 N           2.3565  -14.0051  -42.7068 N.am      5 UNK        -0.5000 
     50 C           1.4012  -13.3401  -42.0480 C.2       4 UNK         0.5000 
     51 O           1.2662  -13.3946  -40.8241 O.2       4 UNK        -0.5000 
     52 CA          0.4143  -12.4904  -42.8836 C.3       4 UNK         0.1400 
     53 CB          0.1793  -11.1012  -42.2561 C.3       4 UNK        -0.1800 
     54 N           0.7215  -12.3565  -44.3170 N.am      4 UNK        -0.5000 
     55 C           1.7799  -11.7545  -44.8863 C.2       3 UNK         0.5000 
     56 O           2.7444  -11.3237  -44.2545 O.2       3 UNK        -0.5000 
     57 CA          1.7603  -11.5901  -46.4231 C.3       3 UNK         0.1400 
     58 CB          2.5964  -12.6808  -47.1107 C.3       3 UNK        -0.1800 
     59 N           0.4133  -11.5903  -46.9976 N.am      3 UNK        -0.5000 
     60 C          -0.5068  -10.6390  -46.7880 C.2       2 UNK         0.5000 
     61 O          -0.2797   -9.5994  -46.1677 O.2       2 UNK        -0.5000 
     62 CA         -1.9245  -10.8848  -47.3451 C.3       2 UNK         0.1400 
     63 CB         -2.1474  -10.0482  -48.6147 C.3       2 UNK        -0.1800 
     64 N          -2.2779  -12.2797  -47.6408 N.am      2 UNK        -0.5000 
     65 C          -2.2461  -13.3190  -46.7949 C.2       1 UNK         0.5000 
     66 O          -1.7428  -13.2689  -45.6689 O.2       1 UNK        -0.5000 
     67 C          -2.7400  -21.0988  -48.0003 C.2       11 UNK         0.5000 
     68 O          -3.3688  -21.6855  -48.8796 O.2       11 UNK        -0.5000 
     69 N          -3.3186  -20.3283  -47.0697 N.am      12 UNK        -0.5000 
     70 CA         -4.7666  -20.1510  -46.9629 C.3       12 UNK         0.1400 
     71 CB         -5.0679  -18.9323  -46.0832 C.3       12 UNK        -0.1800 
     72 C          -5.4834  -21.4064  -46.4349 C.2       12 UNK         0.5000 
     73 O          -6.5514  -21.7487  -46.9428 O.2       12 UNK        -0.5000 
     74 N          -4.8862  -22.0695  -45.4355 N.am      13 UNK        -0.5000 
     75 CA         -5.4158  -23.2824  -44.8126 C.3       13 UNK         0.1400 
     76 CB         -4.6425  -23.5695  -43.5161 C.3       13 UNK        -0.1800 
     77 C          -5.3828  -24.5030  -45.7501 C.2       13 UNK         0.5000 
     78 O          -6.3787  -25.2209  -45.8496 O.2       13 UNK        -0.5000 
     79 N          -4.2401  -24.7180  -46.4139 N.am      14 UNK        -0.5000 
     80 CA         -4.0136  -25.8290  -47.3375 C.3       14 UNK         0.1400 
     81 CB         -2.5018  -26.0433  -47.4923 C.3       14 UNK        -0.1800 
     82 C          -4.6612  -25.6030  -48.7135 C.2       14 UNK         0.5000 
     83 O          -5.0405  -26.5773  -49.3657 O.2       14 UNK        -0.5000 
     84 N          -4.7630  -24.3332  -49.1363 N.am      15 UNK        -0.5000 
     85 CA         -5.2851  -23.8768  -50.4250 C.3       15 UNK         0.1400 
     86 CB         -6.8193  -24.0526  -50.4743 C.3       15 UNK        -0.1800 
     87 C          -4.5232  -24.5368  -51.5920 C.2       15 UNK         0.5000 
     88 O          -3.3016  -24.3877  -51.6713 O.2       15 UNK        -0.5000 
     89 N          -5.2376  -25.2881  -52.4399 N.am      16 UNK        -0.5000 
     90 CA         -4.7189  -26.0130  -53.6019 C.3       16 UNK         0.1400 
     91 CB         -5.8940  -26.6825  -54.3304 C.3       16 UNK        -0.1800 
     92 C          -3.6234  -27.0509  -53.2848 C.2       16 UNK         0.5000 
     93 O          -2.8277  -27.3662  -54.1703 O.2       16 UNK        -0.5000 
     94 N          -3.5831  -27.5559  -52.0420 N.am      17 UNK        -0.5000 
     95 CA         -2.5480  -28.4794  -51.5725 C.3       17 UNK         0.1400 
     96 CB         -3.0316  -29.1945  -50.3022 C.3       17 UNK        -0.1800 
     97 C          -1.1836  -27.7959  -51.3448 C.2       17 UNK         0.5000 
     98 O          -0.1617  -28.4824  -51.3855 O.2       17 UNK        -0.5000 
     99 N          -1.1811  -26.4718  -51.1322 N.am      18 UNK        -0.5000 
    100 CA         0.0257  -25.6469  -51.0965 C.3       18 UNK         0.1400 
    101 CB        -0.1056  -24.5633  -50.0127 C.3       18 UNK        -0.1800 
    102 C          0.2668  -25.0262  -52.4801 C.2       18 UNK         0.5000 
    103 O          1.3007  -25.2890  -53.0948 O.2       18 UNK        -0.5000 
    104 N         -0.7111  -24.2408  -52.9443 N.am      19 UNK        -0.5000 
    105 CA        -0.7563  -23.5518  -54.2307 C.3       19 UNK         0.1400 
    106 CB         0.4290  -22.5761  -54.4155 C.3       19 UNK        -0.1800 
    107 C         -2.0968  -22.8133  -54.2951 C.2       19 UNK         0.5000 
    108 O         -2.9723  -23.1973  -55.0694 O.2       19 UNK        -0.5000 
    109 N         -2.2267  -21.8020  -53.4307 N.am      20 UNK        -0.5000 
    110 CA        -3.3728  -20.9354  -53.1789 C.3       20 UNK         0.1400 
    111 CB        -3.9042  -20.2958  -54.4814 C.3       20 UNK        -0.1800 
    112 C         -2.8934  -19.8284  -52.2276 C.2       20 UNK         0.5000 
    113 O         -1.6857  -19.6379  -52.0689 O.2       20 UNK        -0.5000 
    114 N         -3.8395  -19.0702  -51.6642 N.am      21 UNK        -0.5000 
    115 CA        -3.5798  -17.7458  -51.1044 C.3       21 UNK         0.1400 
    116 CB        -4.5977  -17.4519  -49.9890 C.3       21 UNK        -0.1800 
    117 C         -3.6707  -16.7432  -52.2674 C.2       21 UNK         0.5000 
    118 O         -4.7531  -16.2250  -52.5468 O.2       21 UNK        -0.5000 
    119 N         -2.5548  -16.5810  -52.9875 N.am      22 UNK        -0.5000 
    120 CA        -2.4800  -15.8880  -54.2859 C.3       22 UNK         0.1400 
    121 C         -2.7483  -14.3538  -54.2528 C.2       22 UNK         0.5000 
    122 N         -2.7209  -13.6968  -53.1000 N.am      22 UNK        -0.7600 
    123 O         -2.9819  -13.7498  -55.2961 O.2       22 UNK        -0.5000 
    124 C124       -1.1633  -16.1836  -55.0615 C.3       23 UNK        -0.0398 
    125 S125       -0.5041  -17.8807  -54.8684 S.3       23 UNK        -0.2404 
    126 C126        1.1195  -17.5691  -54.0925 C.3       23 UNK        -0.0205 
    127 H127       -4.4947  -15.5120  -43.2654 H         1 UNK         0.0600 
    128 H128       -5.6336  -16.4578  -44.2333 H         1 UNK         0.0600 
    129 H129       -3.9276  -16.9048  -44.1878 H         1 UNK         0.0600 
    130 H130       -2.7734  -16.2871  -45.9850 H         1 UNK         0.3000 
    131 H131       -3.7722  -14.3686  -47.8777 H         1 UNK         0.0600 
    132 H132       -2.3316  -16.4396  -48.4007 H         1 UNK         0.0800 
    133 H133       -0.9570  -15.5676  -47.8145 H         1 UNK         0.0800 
    134 H134        0.2228  -13.7969  -50.8506 H         1 UNK         0.0800 
    135 H135        0.4991  -14.3296  -49.2161 H         1 UNK         0.0800 
    136 H136        0.2353  -15.3524  -52.7264 H         1 UNK         0.1150 
    137 H137        1.8858  -19.2632  -52.0909 H         1 UNK         0.1150 
    138 H138        0.9893  -16.7266  -48.7567 H         1 UNK         0.1150 
    139 H139        3.0912  -19.3791  -49.6748 H         1 UNK         0.0800 
    140 H140        2.1330  -18.7626  -48.3574 H         1 UNK         0.0800 
    141 H141       -0.3657  -19.2692  -48.0826 H         1 UNK         0.0800 
    142 H142       -1.0745  -19.8255  -49.5731 H         1 UNK         0.0800 
    143 H143       -1.0056  -22.2276  -48.4290 H         1 UNK         0.0600 
    144 H144       -0.0103  -20.7477  -46.2588 H         1 UNK         0.3000 
    145 H145       -1.1714  -22.9501  -43.6423 H         1 UNK         0.0600 
    146 H146        1.2659  -22.8158  -43.1610 H         1 UNK         0.0600 
    147 H147        0.9453  -23.8656  -44.5331 H         1 UNK         0.0600 
    148 H148        1.5729  -22.2477  -44.8014 H         1 UNK         0.0600 
    149 H149        0.2507  -20.5408  -43.3933 H         1 UNK         0.3000 
    150 H150       -2.5845  -18.3330  -43.1550 H         1 UNK         0.0600 
    151 H151       -2.1644  -19.3357  -40.9296 H         1 UNK         0.0600 
    152 H152       -1.3197  -17.8023  -41.0886 H         1 UNK         0.0600 
    153 H153       -0.4300  -19.3166  -41.2158 H         1 UNK         0.0600 
    154 H154        0.2453  -17.8638  -43.1427 H         1 UNK         0.3000 
    155 H155        0.6734  -17.3599  -46.6305 H         1 UNK         0.0600 
    156 H156        1.8051  -15.3115  -45.4800 H         1 UNK         0.0600 
    157 H157        0.5069  -15.4031  -44.2919 H         1 UNK         0.0600 
    158 H158        0.1346  -15.1118  -45.9702 H         1 UNK         0.0600 
    159 H159        2.3953  -17.3178  -44.3230 H         1 UNK         0.3000 
    160 H160        3.3942  -20.7218  -44.4724 H         1 UNK         0.0600 
    161 H161        4.8877  -18.2182  -45.4259 H         1 UNK         0.0600 
    162 H162        4.6689  -19.6940  -46.3589 H         1 UNK         0.0600 
    163 H163        5.6267  -19.7266  -44.8869 H         1 UNK         0.0600 
    164 H164        4.3582  -18.4452  -43.0199 H         1 UNK         0.3000 
    165 H165        2.0206  -18.5651  -40.3407 H         1 UNK         0.0600 
    166 H166        5.0013  -19.2858  -40.4262 H         1 UNK         0.0600 
    167 H167        4.1022  -18.7481  -39.0070 H         1 UNK         0.0600 
    168 H168        3.7275  -20.2943  -39.7505 H         1 UNK         0.0600 
    169 H169        4.2938  -16.9193  -40.7827 H         1 UNK         0.3000 
    170 H170        3.6878  -14.5282  -41.1824 H         1 UNK         0.0600 
    171 H171        5.2413  -15.7824  -42.6876 H         1 UNK         0.0600 
    172 H172        4.1316  -15.5851  -44.0394 H         1 UNK         0.0600 
    173 H173        4.9363  -14.1839  -43.3381 H         1 UNK         0.0600 
    174 H174        2.3933  -13.8949  -43.7077 H         1 UNK         0.3000 
    175 H175       -0.5341  -13.0281  -42.8438 H         1 UNK         0.0600 
    176 H176       -0.5511  -10.5295  -42.8289 H         1 UNK         0.0600 
    177 H177       -0.2047  -11.1874  -41.2390 H         1 UNK         0.0600 
    178 H178        1.0994  -10.5181  -42.2090 H         1 UNK         0.0600 
    179 H179       -0.0246  -12.6752  -44.9299 H         1 UNK         0.3000 
    180 H180        2.2205  -10.6249  -46.6448 H         1 UNK         0.0600 
    181 H181        2.7359  -12.4559  -48.1682 H         1 UNK         0.0600 
    182 H182        3.5886  -12.7592  -46.6640 H         1 UNK         0.0600 
    183 H183        2.1237  -13.6592  -47.0421 H         1 UNK         0.0600 
    184 H184        0.1382  -12.4050  -47.5235 H         1 UNK         0.3000 
    185 H185       -2.6234  -10.5364  -46.5821 H         1 UNK         0.0600 
    186 H186       -3.1823  -10.1083  -48.9520 H         1 UNK         0.0600 
    187 H187       -1.9283   -8.9945  -48.4358 H         1 UNK         0.0600 
    188 H188       -1.5069  -10.3826  -49.4319 H         1 UNK         0.0600 
    189 H189       -2.6678  -12.4365  -48.5596 H         1 UNK         0.3000 
    190 H190       -2.7442  -19.8735  -46.3716 H         1 UNK         0.3000 
    191 H191       -5.1634  -19.9506  -47.9600 H         1 UNK         0.0600 
    192 H192       -6.1421  -18.7621  -46.0022 H         1 UNK         0.0600 
    193 H193       -4.6264  -18.0314  -46.5073 H         1 UNK         0.0600 
    194 H194       -4.6766  -19.0589  -45.0736 H         1 UNK         0.0600 
    195 H195       -4.0322  -21.6894  -45.0374 H         1 UNK         0.3000 
    196 H196       -6.4585  -23.0958  -44.5469 H         1 UNK         0.0600 
    197 H197       -5.0281  -24.4606  -43.0193 H         1 UNK         0.0600 
    198 H198       -4.7308  -22.7406  -42.8136 H         1 UNK         0.0600 
    199 H199       -3.5814  -23.7321  -43.7075 H         1 UNK         0.0600 
    200 H200       -3.4487  -24.0957  -46.2540 H         1 UNK         0.3000 
    201 H201       -4.4446  -26.7366  -46.9097 H         1 UNK         0.0600 
    202 H202       -2.0329  -26.2617  -46.5328 H         1 UNK         0.0600 
    203 H203       -2.0243  -25.1547  -47.9024 H         1 UNK         0.0600 
    204 H204       -2.2787  -26.8735  -48.1612 H         1 UNK         0.0600 
    205 H205       -4.3623  -23.6019  -48.5621 H         1 UNK         0.3000 
    206 H206       -5.0763  -22.8092  -50.4932 H         1 UNK         0.0600 
    207 H207       -7.2928  -23.5182  -49.6503 H         1 UNK         0.0600 
    208 H208       -7.2349  -23.6460  -51.3971 H         1 UNK         0.0600 
    209 H209       -7.1204  -25.0981  -50.4003 H         1 UNK         0.0600 
    210 H210       -6.2276  -25.3817  -52.2662 H         1 UNK         0.3000 
    211 H211       -4.2786  -25.2785  -54.2759 H         1 UNK         0.0600 
    212 H212       -6.3999  -27.4090  -53.6933 H         1 UNK         0.0600 
    213 H213       -5.5528  -27.2094  -55.2226 H         1 UNK         0.0600 
    214 H214       -6.6303  -25.9461  -54.6530 H         1 UNK         0.0600 
    215 H215       -4.2610  -27.2415  -51.3572 H         1 UNK         0.3000 
    216 H216       -2.3998  -29.2417  -52.3405 H         1 UNK         0.0600 
    217 H217       -2.2914  -29.9163  -49.9547 H         1 UNK         0.0600 
    218 H218       -3.9564  -29.7413  -50.4866 H         1 UNK         0.0600 
    219 H219       -3.2146  -28.4969  -49.4872 H         1 UNK         0.0600 
    220 H220       -2.0627  -25.9733  -51.1720 H         1 UNK         0.3000 
    221 H221        0.8989  -26.2542  -50.8484 H         1 UNK         0.0600 
    222 H222       -1.0493  -24.0217  -50.0855 H         1 UNK         0.0600 
    223 H223       -0.0419  -25.0026  -49.0181 H         1 UNK         0.0600 
    224 H224        0.7003  -23.8320  -50.0877 H         1 UNK         0.0600 
    225 H225       -1.5590  -24.1440  -52.3884 H         1 UNK         0.3000 
    226 H226       -0.7365  -24.2974  -55.0278 H         1 UNK         0.0600 
    227 H227        1.3656  -23.1101  -54.5724 H         1 UNK         0.0600 
    228 H228        0.2787  -21.9396  -55.2886 H         1 UNK         0.0600 
    229 H229        0.5609  -21.9229  -53.5520 H         1 UNK         0.0600 
    230 H230       -1.4269  -21.5436  -52.8638 H         1 UNK         0.3000 
    231 H231       -4.1570  -21.5151  -52.6898 H         1 UNK         0.0600 
    232 H232       -4.6759  -19.5532  -54.2759 H         1 UNK         0.0600 
    233 H233       -4.3557  -21.0347  -55.1422 H         1 UNK         0.0600 
    234 H234       -3.1082  -19.7931  -55.0323 H         1 UNK         0.0600 
    235 H235       -4.8081  -19.2790  -51.8588 H         1 UNK         0.3000 
    236 H236       -2.5777  -17.6936  -50.6719 H         1 UNK         0.0600 
    237 H237       -5.6248  -17.6105  -50.3195 H         1 UNK         0.0600 
    238 H238       -4.4177  -18.0895  -49.1255 H         1 UNK         0.0600 
    239 H239       -4.5198  -16.4187  -49.6492 H         1 UNK         0.0600 
    240 H240       -1.7234  -17.0928  -52.7197 H         1 UNK         0.3000 
    241 H241       -3.2907  -16.3096  -54.8835 H         1 UNK         0.0600 
    242 H242       -2.8991  -12.7052  -53.0910 H         1 UNK         0.3800 
    243 H243       -2.5403  -14.1841  -52.2353 H         1 UNK         0.3800 
    244 H244       -0.3852  -15.4667  -54.8013 H         1 UNK         0.0800 
    245 H245       -1.3359  -16.0249  -56.1272 H         1 UNK         0.0800 
    246 H246        1.7603  -18.4261  -54.3050 H         1 UNK         0.0800 
    247 H247        1.6040  -16.7154  -54.5684 H         1 UNK         0.0800 
@<TRIPOS>BOND
     1    1    2 1    
     2    1  127 1    
     3    1  128 1    
     4    1  129 1    
     5    2    3 2    
     6    2    4 am   BACKBONE|DICT|INTERRES
     7    4    5 1    
     8    4  130 1    
     9    5    6 1    
    10    5   65 1    
    11    5  131 1    
    12    6    7 1    
    13    6  132 1    
    14    6  133 1    
    15    7    8 1    
    16    8    9 1    
    17    8  134 1    
    18    8  135 1    
    19    9   10 ar   
    20    9   14 ar   
    21   10   11 ar   
    22   10  136 1    
    23   11   12 ar   
    24   11  126 1    
    25   12   13 ar   
    26   12  137 1    
    27   13   14 ar   
    28   13   15 1    
    29   14  138 1    
    30   15   16 1    
    31   15  139 1    
    32   15  140 1    
    33   16   17 1    
    34   17   18 1    
    35   17  141 1    
    36   17  142 1    
    37   18   19 1    
    38   18   67 1    
    39   18  143 1    
    40   19   20 am   BACKBONE|DICT|INTERRES
    41   19  144 1    
    42   20   21 2    
    43   20   22 1    
    44   22   23 1    
    45   22   24 1    
    46   22  145 1    
    47   23  146 1    
    48   23  147 1    
    49   23  148 1    
    50   24   25 am   BACKBONE|DICT|INTERRES
    51   24  149 1    
    52   25   26 2    
    53   25   27 1    
    54   27   28 1    
    55   27   29 1    
    56   27  150 1    
    57   28  151 1    
    58   28  152 1    
    59   28  153 1    
    60   29   30 am   BACKBONE|DICT|INTERRES
    61   29  154 1    
    62   30   31 2    
    63   30   32 1    
    64   32   33 1    
    65   32   34 1    
    66   32  155 1    
    67   33  156 1    
    68   33  157 1    
    69   33  158 1    
    70   34   35 am   BACKBONE|DICT|INTERRES
    71   34  159 1    
    72   35   36 2    
    73   35   37 1    
    74   37   38 1    
    75   37   39 1    
    76   37  160 1    
    77   38  161 1    
    78   38  162 1    
    79   38  163 1    
    80   39   40 am   BACKBONE|DICT|INTERRES
    81   39  164 1    
    82   40   41 2    
    83   40   42 1    
    84   42   43 1    
    85   42   44 1    
    86   42  165 1    
    87   43  166 1    
    88   43  167 1    
    89   43  168 1    
    90   44   45 am   BACKBONE|DICT|INTERRES
    91   44  169 1    
    92   45   46 2    
    93   45   47 1    
    94   47   48 1    
    95   47   49 1    
    96   47  170 1    
    97   48  171 1    
    98   48  172 1    
    99   48  173 1    
   100   49   50 am   BACKBONE|DICT|INTERRES
   101   49  174 1    
   102   50   51 2    
   103   50   52 1    
   104   52   53 1    
   105   52   54 1    
   106   52  175 1    
   107   53  176 1    
   108   53  177 1    
   109   53  178 1    
   110   54   55 am   BACKBONE|DICT|INTERRES
   111   54  179 1    
   112   55   56 2    
   113   55   57 1    
   114   57   58 1    
   115   57   59 1    
   116   57  180 1    
   117   58  181 1    
   118   58  182 1    
   119   58  183 1    
   120   59   60 am   BACKBONE|DICT|INTERRES
   121   59  184 1    
   122   60   61 2    
   123   60   62 1    
   124   62   63 1    
   125   62   64 1    
   126   62  185 1    
   127   63  186 1    
   128   63  187 1    
   129   63  188 1    
   130   64   65 am   BACKBONE|DICT|INTERRES
   131   64  189 1    
   132   65   66 2    
   133   67   68 2    
   134   67   69 am   BACKBONE|DICT|INTERRES
   135   69   70 1    
   136   69  190 1    
   137   70   71 1    
   138   70   72 1    
   139   70  191 1    
   140   71  192 1    
   141   71  193 1    
   142   71  194 1    
   143   72   73 2    
   144   72   74 am   BACKBONE|DICT|INTERRES
   145   74   75 1    
   146   74  195 1    
   147   75   76 1    
   148   75   77 1    
   149   75  196 1    
   150   76  197 1    
   151   76  198 1    
   152   76  199 1    
   153   77   78 2    
   154   77   79 am   BACKBONE|DICT|INTERRES
   155   79   80 1    
   156   79  200 1    
   157   80   81 1    
   158   80   82 1    
   159   80  201 1    
   160   81  202 1    
   161   81  203 1    
   162   81  204 1    
   163   82   83 2    
   164   82   84 am   BACKBONE|DICT|INTERRES
   165   84   85 1    
   166   84  205 1    
   167   85   86 1    
   168   85   87 1    
   169   85  206 1    
   170   86  207 1    
   171   86  208 1    
   172   86  209 1    
   173   87   88 2    
   174   87   89 am   BACKBONE|DICT|INTERRES
   175   89   90 1    
   176   89  210 1    
   177   90   91 1    
   178   90   92 1    
   179   90  211 1    
   180   91  212 1    
   181   91  213 1    
   182   91  214 1    
   183   92   93 2    
   184   92   94 am   BACKBONE|DICT|INTERRES
   185   94   95 1    
   186   94  215 1    
   187   95   96 1    
   188   95   97 1    
   189   95  216 1    
   190   96  217 1    
   191   96  218 1    
   192   96  219 1    
   193   97   98 2    
   194   97   99 am   BACKBONE|DICT|INTERRES
   195   99  100 1    
   196   99  220 1    
   197  100  101 1    
   198  100  102 1    
   199  100  221 1    
   200  101  222 1    
   201  101  223 1    
   202  101  224 1    
   203  102  103 2    
   204  102  104 am   BACKBONE|DICT|INTERRES
   205  104  105 1    
   206  104  225 1    
   207  105  106 1    
   208  105  107 1    
   209  105  226 1    
   210  106  227 1    
   211  106  228 1    
   212  106  229 1    
   213  107  108 2    
   214  107  109 am   BACKBONE|DICT|INTERRES
   215  109  110 1    
   216  109  230 1    
   217  110  111 1    
   218  110  112 1    
   219  110  231 1    
   220  111  232 1    
   221  111  233 1    
   222  111  234 1    
   223  112  113 2    
   224  112  114 am   BACKBONE|DICT|INTERRES
   225  114  115 1    
   226  114  235 1    
   227  115  116 1    
   228  115  117 1    
   229  115  236 1    
   230  116  237 1    
   231  116  238 1    
   232  116  239 1    
   233  117  118 2    
   234  117  119 am   BACKBONE|DICT|INTERRES
   235  119  120 1    
   236  119  240 1    
   237  120  121 1    
   238  120  124 1    
   239  120  241 1    
   240  121  122 am   BACKBONE|DICT|INTERRES
   241  121  123 2    
   242  122  242 1    
   243  122  243 1    
   244  124  125 1    
   245  124  244 1    
   246  124  245 1    
   247  125  126 1    
   248  126  246 1    
   249  126  247 1    
@<TRIPOS>SUBSTRUCTURE
     1 UNK         1 GROUP             0       ****    0 ROOT    
