@<TRIPOS>MOLECULE
3R540
247   249    1
SMALL
USER_CHARGES


@<TRIPOS>ATOM
      1 CA          5.9822  -14.1555  -48.9648 C.3       0 UNK        -0.1800 
      2 C           5.2618  -13.1615  -48.0655 C.2       0 UNK         0.5000 
      3 O           5.1981  -11.9770  -48.3923 O.2       0 UNK        -0.5000 
      4 N           4.7195  -13.6442  -46.9382 N.am      1 UNK        -0.5000 
      5 CA          3.9572  -12.8835  -45.9326 C.3       1 UNK         0.1400 
      6 C6          2.6135  -12.3060  -46.4637 C.3       23 UNK        -0.0398 
      7 S7          1.4486  -13.6033  -47.0037 S.3       23 UNK        -0.2404 
      8 C8          1.6290  -13.5073  -48.8109 C.3       23 UNK        -0.0205 
      9 C9          0.8967  -14.6363  -49.5182 C.ar      23 UNK        -0.0193 
     10 C10        -0.2292  -14.3658  -50.3010 C.ar      23 UNK        -0.1150 
     11 C11        -0.8727  -15.3945  -50.9938 C.ar      23 UNK        -0.0193 
     12 C12        -0.3849  -16.7004  -50.8964 C.ar      23 UNK        -0.1150 
     13 C13         0.7218  -16.9911  -50.0928 C.ar      23 UNK        -0.0193 
     14 C14         1.3648  -15.9505  -49.4148 C.ar      23 UNK        -0.1150 
     15 C15         1.2174  -18.4250  -49.9512 C.3       23 UNK        -0.0205 
     16 S16        -0.0955  -19.5413  -49.3596 S.3       23 UNK        -0.2404 
     17 C17         0.8485  -21.0624  -49.0198 C.3       23 UNK        -0.0398 
     18 CA          0.1586  -22.0507  -48.0468 C.3       11 UNK         0.1400 
     19 N          -0.0018  -21.5283  -46.6838 N.am      11 UNK        -0.5000 
     20 C          -0.2569  -22.3147  -45.6257 C.2       10 UNK         0.5000 
     21 O          -0.3651  -23.5389  -45.7012 O.2       10 UNK        -0.5000 
     22 CA         -0.4685  -21.6333  -44.2629 C.3       10 UNK         0.1400 
     23 CB          0.8720  -21.2040  -43.6497 C.3       10 UNK        -0.1800 
     24 N          -1.3786  -20.4910  -44.3293 N.am      10 UNK        -0.5000 
     25 C          -2.6688  -20.5643  -44.6869 C.2       9 UNK         0.5000 
     26 O          -3.2312  -21.6110  -45.0049 O.2       9 UNK        -0.5000 
     27 CA         -3.4547  -19.2431  -44.7274 C.3       9 UNK         0.1400 
     28 CB         -3.9824  -18.8671  -43.3346 C.3       9 UNK        -0.1800 
     29 N          -2.6359  -18.1562  -45.2598 N.am      9 UNK        -0.5000 
     30 C          -2.3393  -18.0171  -46.5594 C.2       8 UNK         0.5000 
     31 O          -2.8114  -18.7325  -47.4420 O.2       8 UNK        -0.5000 
     32 CA         -1.3291  -16.9152  -46.9253 C.3       8 UNK         0.1400 
     33 CB         -2.0521  -15.5859  -47.1852 C.3       8 UNK        -0.1800 
     34 N          -0.3011  -16.7308  -45.8985 N.am      8 UNK        -0.5000 
     35 C           0.6571  -17.6290  -45.6167 C.2       7 UNK         0.5000 
     36 O           0.7955  -18.6936  -46.2190 O.2       7 UNK        -0.5000 
     37 CA          1.5836  -17.3257  -44.4198 C.3       7 UNK         0.1400 
     38 CB          2.8491  -16.5934  -44.8826 C.3       7 UNK        -0.1800 
     39 N           0.9321  -16.5518  -43.3621 N.am      7 UNK        -0.5000 
     40 C          -0.1483  -16.9617  -42.6802 C.2       6 UNK         0.5000 
     41 O          -0.6455  -18.0792  -42.8164 O.2       6 UNK        -0.5000 
     42 CA         -0.8256  -15.9509  -41.7324 C.3       6 UNK         0.1400 
     43 CB         -0.4454  -16.2491  -40.2748 C.3       6 UNK        -0.1800 
     44 N          -0.5164  -14.5488  -42.0243 N.am      6 UNK        -0.5000 
     45 C          -0.7423  -13.9082  -43.1814 C.2       5 UNK         0.5000 
     46 O          -1.3034  -14.4281  -44.1450 O.2       5 UNK        -0.5000 
     47 CA         -0.2128  -12.4632  -43.2988 C.3       5 UNK         0.1400 
     48 CB         -1.3710  -11.4574  -43.2196 C.3       5 UNK        -0.1800 
     49 N           0.7943  -12.1130  -42.2885 N.am      5 UNK        -0.5000 
     50 C           2.0078  -12.6711  -42.1854 C.2       4 UNK         0.5000 
     51 O           2.4311  -13.5409  -42.9527 O.2       4 UNK        -0.5000 
     52 CA          2.8524  -12.2414  -40.9787 C.3       4 UNK         0.1400 
     53 CB          2.3559  -12.9623  -39.7080 C.3       4 UNK        -0.1800 
     54 N           4.2440  -12.5799  -41.2520 N.am      4 UNK        -0.5000 
     55 C           5.3112  -12.2320  -40.5239 C.2       3 UNK         0.5000 
     56 O           5.2579  -11.5541  -39.4970 O.2       3 UNK        -0.5000 
     57 CA          6.6741  -12.7105  -41.0535 C.3       3 UNK         0.1400 
     58 CB          6.8670  -14.2140  -40.7965 C.3       3 UNK        -0.1800 
     59 N           6.8215  -12.4376  -42.4831 N.am      3 UNK        -0.5000 
     60 C           7.0649  -11.2242  -42.9984 C.2       2 UNK         0.5000 
     61 O           7.2500  -10.2136  -42.3190 O.2       2 UNK        -0.5000 
     62 CA          7.1018  -11.1221  -44.5339 C.3       2 UNK         0.1400 
     63 CB          8.5103  -11.4290  -45.0647 C.3       2 UNK        -0.1800 
     64 N           6.1389  -12.0133  -45.1825 N.am      2 UNK        -0.5000 
     65 C           4.8110  -11.8241  -45.1932 C.2       1 UNK         0.5000 
     66 O           4.2644  -10.8721  -44.6340 O.2       1 UNK        -0.5000 
     67 C          -1.1575  -22.6307  -48.6102 C.2       11 UNK         0.5000 
     68 O          -1.1188  -23.6647  -49.2767 O.2       11 UNK        -0.5000 
     69 N          -2.2977  -22.0008  -48.2856 N.am      12 UNK        -0.5000 
     70 CA         -3.6356  -22.4850  -48.6277 C.3       12 UNK         0.1400 
     71 CB         -4.6834  -21.4237  -48.2632 C.3       12 UNK        -0.1800 
     72 C          -3.9628  -23.8262  -47.9491 C.2       12 UNK         0.5000 
     73 O          -4.4798  -24.7278  -48.6087 O.2       12 UNK        -0.5000 
     74 N          -3.6249  -23.9476  -46.6579 N.am      13 UNK        -0.5000 
     75 CA         -3.7671  -25.1734  -45.8735 C.3       13 UNK         0.1400 
     76 CB         -3.4938  -24.8760  -44.3915 C.3       13 UNK        -0.1800 
     77 C          -2.8607  -26.3077  -46.3831 C.2       13 UNK         0.5000 
     78 O          -3.3250  -27.4418  -46.4988 O.2       13 UNK        -0.5000 
     79 N          -1.6039  -25.9780  -46.7155 N.am      14 UNK        -0.5000 
     80 CA         -0.6206  -26.9048  -47.2818 C.3       14 UNK         0.1400 
     81 CB          0.7574  -26.2282  -47.3296 C.3       14 UNK        -0.1800 
     82 C          -1.0179  -27.4282  -48.6749 C.2       14 UNK         0.5000 
     83 O          -0.8328  -28.6136  -48.9533 O.2       14 UNK        -0.5000 
     84 N          -1.5808  -26.5463  -49.5123 N.am      15 UNK        -0.5000 
     85 CA         -2.1151  -26.8792  -50.8345 C.3       15 UNK         0.1400 
     86 CB         -2.2936  -25.5833  -51.6408 C.3       15 UNK        -0.1800 
     87 C          -3.4492  -27.6494  -50.7831 C.2       15 UNK         0.5000 
     88 O          -3.8187  -28.2638  -51.7833 O.2       15 UNK        -0.5000 
     89 N          -4.1490  -27.5804  -49.6397 N.am      16 UNK        -0.5000 
     90 CA         -5.5201  -28.0429  -49.4019 C.3       16 UNK         0.1400 
     91 CB         -5.6245  -29.5780  -49.5164 C.3       16 UNK        -0.1800 
     92 C          -6.5188  -27.2845  -50.3003 C.2       16 UNK         0.5000 
     93 O          -7.3299  -27.8987  -50.9963 O.2       16 UNK        -0.5000 
     94 N          -6.3961  -25.9492  -50.2791 N.am      17 UNK        -0.5000 
     95 CA         -7.0280  -24.9608  -51.1518 C.3       17 UNK         0.1400 
     96 CB         -8.5679  -24.9803  -51.0478 C.3       17 UNK        -0.1800 
     97 C          -6.5010  -25.0863  -52.5913 C.2       17 UNK         0.5000 
     98 O          -5.5601  -24.3756  -52.9453 O.2       17 UNK        -0.5000 
     99 N          -7.1095  -25.9785  -53.3879 N.am      18 UNK        -0.5000 
    100 CA        -6.7089  -26.3925  -54.7424 C.3       18 UNK         0.1400 
    101 CB        -5.4347  -27.2574  -54.6619 C.3       18 UNK        -0.1800 
    102 C         -6.5655  -25.2377  -55.7611 C.2       18 UNK         0.5000 
    103 O         -5.7845  -25.3472  -56.7075 O.2       18 UNK        -0.5000 
    104 N         -7.3026  -24.1407  -55.5275 N.am      19 UNK        -0.5000 
    105 CA        -7.2508  -22.8554  -56.2378 C.3       19 UNK         0.1400 
    106 CB        -7.6819  -23.0159  -57.7109 C.3       19 UNK        -0.1800 
    107 C         -5.9061  -22.1013  -56.0943 C.2       19 UNK         0.5000 
    108 O         -5.6757  -21.1351  -56.8229 O.2       19 UNK        -0.5000 
    109 N         -5.0548  -22.5227  -55.1477 N.am      20 UNK        -0.5000 
    110 CA        -3.7761  -21.8872  -54.8218 C.3       20 UNK         0.1400 
    111 CB        -2.7691  -22.9791  -54.4273 C.3       20 UNK        -0.1800 
    112 C         -3.9168  -20.8543  -53.6873 C.2       20 UNK         0.5000 
    113 O         -2.9826  -20.0881  -53.4472 O.2       20 UNK        -0.5000 
    114 N         -5.0740  -20.8430  -53.0108 N.am      21 UNK        -0.5000 
    115 CA        -5.4307  -19.9739  -51.8880 C.3       21 UNK         0.1400 
    116 CB        -6.6072  -20.6242  -51.1380 C.3       21 UNK        -0.1800 
    117 C         -5.7316  -18.5193  -52.3169 C.2       21 UNK         0.5000 
    118 O         -6.8093  -17.9961  -52.0256 O.2       21 UNK        -0.5000 
    119 N         -4.7639  -17.8979  -52.9986 N.am      22 UNK        -0.5000 
    120 CA        -4.7832  -16.5208  -53.5181 C.3       22 UNK         0.1400 
    121 C         -5.8392  -16.2892  -54.6455 C.2       22 UNK         0.5000 
    122 N         -6.1141  -15.0474  -55.0264 N.am      22 UNK        -0.7600 
    123 O         -6.3840  -17.2261  -55.2258 O.2       22 UNK        -0.5000 
    124 C124       -4.8323  -15.4424  -52.3920 C.3       23 UNK        -0.0398 
    125 S125       -3.6112  -15.7038  -51.0587 S.3       23 UNK        -0.2404 
    126 C126       -2.0904  -15.1037  -51.8548 C.3       23 UNK        -0.0205 
    127 H127        7.0245  -13.8622  -49.0895 H         1 UNK         0.0600 
    128 H128        5.5127  -14.1783  -49.9482 H         1 UNK         0.0600 
    129 H129        5.9597  -15.1653  -48.5546 H         1 UNK         0.0600 
    130 H130        4.8116  -14.6310  -46.7425 H         1 UNK         0.3000 
    131 H131        3.7120  -13.6096  -45.1600 H         1 UNK         0.0600 
    132 H132        2.1030  -11.7456  -45.6795 H         1 UNK         0.0800 
    133 H133        2.7846  -11.5945  -47.2723 H         1 UNK         0.0800 
    134 H134        1.2683  -12.5363  -49.1535 H         1 UNK         0.0800 
    135 H135        2.6817  -13.5571  -49.0833 H         1 UNK         0.0800 
    136 H136       -0.5993  -13.3532  -50.3788 H         1 UNK         0.1150 
    137 H137       -0.8863  -17.4985  -51.4263 H         1 UNK         0.1150 
    138 H138        2.2275  -16.1593  -48.7979 H         1 UNK         0.1150 
    139 H139        1.5864  -18.7768  -50.9152 H         1 UNK         0.0800 
    140 H140        2.0569  -18.4667  -49.2557 H         1 UNK         0.0800 
    141 H141        1.8206  -20.7850  -48.6100 H         1 UNK         0.0800 
    142 H142        1.0564  -21.5551  -49.9711 H         1 UNK         0.0800 
    143 H143        0.8414  -22.8991  -47.9643 H         1 UNK         0.0600 
    144 H144        0.1008  -20.5245  -46.5580 H         1 UNK         0.3000 
    145 H145       -0.9218  -22.3671  -43.5932 H         1 UNK         0.0600 
    146 H146        0.7297  -20.7007  -42.6931 H         1 UNK         0.0600 
    147 H147        1.5096  -22.0706  -43.4710 H         1 UNK         0.0600 
    148 H148        1.4190  -20.5309  -44.3083 H         1 UNK         0.0600 
    149 H149       -1.0120  -19.5950  -44.0247 H         1 UNK         0.3000 
    150 H150       -4.3164  -19.3849  -45.3833 H         1 UNK         0.0600 
    151 H151       -4.6401  -19.6464  -42.9478 H         1 UNK         0.0600 
    152 H152       -4.5591  -17.9427  -43.3680 H         1 UNK         0.0600 
    153 H153       -3.1770  -18.7342  -42.6127 H         1 UNK         0.0600 
    154 H154       -2.1758  -17.5572  -44.5896 H         1 UNK         0.3000 
    155 H155       -0.8334  -17.2097  -47.8480 H         1 UNK         0.0600 
    156 H156       -2.6177  -15.2545  -46.3143 H         1 UNK         0.0600 
    157 H157       -2.7536  -15.6848  -48.0141 H         1 UNK         0.0600 
    158 H158       -1.3485  -14.7974  -47.4505 H         1 UNK         0.0600 
    159 H159       -0.3742  -15.8894  -45.3374 H         1 UNK         0.3000 
    160 H160        1.8886  -18.2786  -43.9854 H         1 UNK         0.0600 
    161 H161        2.6053  -15.6247  -45.3127 H         1 UNK         0.0600 
    162 H162        3.3782  -17.1682  -45.6436 H         1 UNK         0.0600 
    163 H163        3.5392  -16.4299  -44.0547 H         1 UNK         0.0600 
    164 H164        1.2854  -15.6176  -43.1991 H         1 UNK         0.3000 
    165 H165       -1.9041  -16.0799  -41.8413 H         1 UNK         0.0600 
    166 H166       -0.9872  -15.6025  -39.5844 H         1 UNK         0.0600 
    167 H167       -0.6879  -17.2794  -40.0101 H         1 UNK         0.0600 
    168 H168        0.6222  -16.1080  -40.1011 H         1 UNK         0.0600 
    169 H169       -0.0510  -14.0349  -41.2921 H         1 UNK         0.3000 
    170 H170        0.2506  -12.3730  -44.2825 H         1 UNK         0.0600 
    171 H171       -2.1250  -11.6688  -43.9795 H         1 UNK         0.0600 
    172 H172       -1.8660  -11.4889  -42.2482 H         1 UNK         0.0600 
    173 H173       -1.0211  -10.4385  -43.3870 H         1 UNK         0.0600 
    174 H174        0.5194  -11.4152  -41.6116 H         1 UNK         0.3000 
    175 H175        2.7684  -11.1598  -40.8550 H         1 UNK         0.0600 
    176 H176        2.4616  -14.0447  -39.7952 H         1 UNK         0.0600 
    177 H177        2.9064  -12.6449  -38.8227 H         1 UNK         0.0600 
    178 H178        1.3035  -12.7487  -39.5173 H         1 UNK         0.0600 
    179 H179        4.3668  -13.1247  -42.0957 H         1 UNK         0.3000 
    180 H180        7.4551  -12.1732  -40.5106 H         1 UNK         0.0600 
    181 H181        6.1330  -14.8164  -41.3335 H         1 UNK         0.0600 
    182 H182        6.7663  -14.4432  -39.7348 H         1 UNK         0.0600 
    183 H183        7.8599  -14.5417  -41.1055 H         1 UNK         0.0600 
    184 H184        6.6900  -13.2127  -43.1155 H         1 UNK         0.3000 
    185 H185        6.8538  -10.0935  -44.8051 H         1 UNK         0.0600 
    186 H186        9.2492  -10.7633  -44.6168 H         1 UNK         0.0600 
    187 H187        8.8130  -12.4528  -44.8410 H         1 UNK         0.0600 
    188 H188        8.5625  -11.2912  -46.1450 H         1 UNK         0.0600 
    189 H189        6.5129  -12.8107  -45.6754 H         1 UNK         0.3000 
    190 H190       -2.2452  -21.1439  -47.7506 H         1 UNK         0.3000 
    191 H191       -3.6709  -22.6413  -49.7082 H         1 UNK         0.0600 
    192 H192       -4.5174  -20.4994  -48.8159 H         1 UNK         0.0600 
    193 H193       -5.6903  -21.7712  -48.4956 H         1 UNK         0.0600 
    194 H194       -4.6630  -21.1811  -47.2014 H         1 UNK         0.0600 
    195 H195       -3.2574  -23.1362  -46.1679 H         1 UNK         0.3000 
    196 H196       -4.8022  -25.5092  -45.9654 H         1 UNK         0.0600 
    197 H197       -3.6067  -25.7752  -43.7847 H         1 UNK         0.0600 
    198 H198       -4.1911  -24.1327  -44.0049 H         1 UNK         0.0600 
    199 H199       -2.4834  -24.4977  -44.2350 H         1 UNK         0.0600 
    200 H200       -1.2843  -25.0298  -46.5369 H         1 UNK         0.3000 
    201 H201       -0.5519  -27.7648  -46.6124 H         1 UNK         0.0600 
    202 H202        1.0778  -25.9143  -46.3360 H         1 UNK         0.0600 
    203 H203        0.7505  -25.3484  -47.9731 H         1 UNK         0.0600 
    204 H204        1.5150  -26.9114  -47.7153 H         1 UNK         0.0600 
    205 H205       -1.6300  -25.5691  -49.2382 H         1 UNK         0.3000 
    206 H206       -1.3895  -27.5085  -51.3539 H         1 UNK         0.0600 
    207 H207       -1.3484  -25.0521  -51.7526 H         1 UNK         0.0600 
    208 H208       -2.6687  -25.7947  -52.6431 H         1 UNK         0.0600 
    209 H209       -3.0043  -24.9075  -51.1628 H         1 UNK         0.0600 
    210 H210       -3.7466  -27.0331  -48.8902 H         1 UNK         0.3000 
    211 H211       -5.7606  -27.7723  -48.3726 H         1 UNK         0.0600 
    212 H212       -5.4544  -29.9263  -50.5353 H         1 UNK         0.0600 
    213 H213       -6.6152  -29.9215  -49.2170 H         1 UNK         0.0600 
    214 H214       -4.8997  -30.0701  -48.8678 H         1 UNK         0.0600 
    215 H215       -5.6718  -25.5643  -49.6733 H         1 UNK         0.3000 
    216 H216       -6.6948  -23.9900  -50.7838 H         1 UNK         0.0600 
    217 H217       -9.0036  -25.9289  -51.3606 H         1 UNK         0.0600 
    218 H218       -9.0067  -24.1996  -51.6702 H         1 UNK         0.0600 
    219 H219       -8.8891  -24.7936  -50.0230 H         1 UNK         0.0600 
    220 H220       -7.8515  -26.5266  -52.9726 H         1 UNK         0.3000 
    221 H221       -7.5141  -27.0248  -55.1190 H         1 UNK         0.0600 
    222 H222       -4.5752  -26.6773  -54.3235 H         1 UNK         0.0600 
    223 H223       -5.5687  -28.0883  -53.9688 H         1 UNK         0.0600 
    224 H224       -5.1823  -27.6860  -55.6324 H         1 UNK         0.0600 
    225 H225       -7.9117  -24.1652  -54.7221 H         1 UNK         0.3000 
    226 H226       -7.9936  -22.2214  -55.7519 H         1 UNK         0.0600 
    227 H227       -8.6310  -23.5463  -57.7891 H         1 UNK         0.0600 
    228 H228       -7.8155  -22.0442  -58.1875 H         1 UNK         0.0600 
    229 H229       -6.9415  -23.5632  -58.2946 H         1 UNK         0.0600 
    230 H230       -5.3118  -23.3163  -54.5670 H         1 UNK         0.3000 
    231 H231       -3.3856  -21.3667  -55.6987 H         1 UNK         0.0600 
    232 H232       -3.0748  -23.4934  -53.5163 H         1 UNK         0.0600 
    233 H233       -1.7810  -22.5541  -54.2463 H         1 UNK         0.0600 
    234 H234       -2.6644  -23.7251  -55.2155 H         1 UNK         0.0600 
    235 H235       -5.7799  -21.5021  -53.3017 H         1 UNK         0.3000 
    236 H236       -4.5790  -19.9340  -51.2055 H         1 UNK         0.0600 
    237 H237       -6.3571  -21.6346  -50.8177 H         1 UNK         0.0600 
    238 H238       -6.8657  -20.0549  -50.2442 H         1 UNK         0.0600 
    239 H239       -7.4999  -20.6831  -51.7619 H         1 UNK         0.0600 
    240 H240       -3.9336  -18.4419  -53.2130 H         1 UNK         0.3000 
    241 H241       -3.8269  -16.4134  -54.0293 H         1 UNK         0.0600 
    242 H242       -6.7828  -14.9059  -55.7680 H         1 UNK         0.3800 
    243 H243       -5.6710  -14.2456  -54.6066 H         1 UNK         0.3800 
    244 H244       -4.6694  -14.4446  -52.8007 H         1 UNK         0.0800 
    245 H245       -5.8230  -15.4231  -51.9356 H         1 UNK         0.0800 
    246 H246       -2.1810  -14.0341  -52.0501 H         1 UNK         0.0800 
    247 H247       -1.9617  -15.5879  -52.8232 H         1 UNK         0.0800 
@<TRIPOS>BOND
     1    1    2 1    
     2    1  127 1    
     3    1  128 1    
     4    1  129 1    
     5    2    3 2    
     6    2    4 am   BACKBONE|DICT|INTERRES
     7    4    5 1    
     8    4  130 1    
     9    5    6 1    
    10    5   65 1    
    11    5  131 1    
    12    6    7 1    
    13    6  132 1    
    14    6  133 1    
    15    7    8 1    
    16    8    9 1    
    17    8  134 1    
    18    8  135 1    
    19    9   10 ar   
    20    9   14 ar   
    21   10   11 ar   
    22   10  136 1    
    23   11   12 ar   
    24   11  126 1    
    25   12   13 ar   
    26   12  137 1    
    27   13   14 ar   
    28   13   15 1    
    29   14  138 1    
    30   15   16 1    
    31   15  139 1    
    32   15  140 1    
    33   16   17 1    
    34   17   18 1    
    35   17  141 1    
    36   17  142 1    
    37   18   19 1    
    38   18   67 1    
    39   18  143 1    
    40   19   20 am   BACKBONE|DICT|INTERRES
    41   19  144 1    
    42   20   21 2    
    43   20   22 1    
    44   22   23 1    
    45   22   24 1    
    46   22  145 1    
    47   23  146 1    
    48   23  147 1    
    49   23  148 1    
    50   24   25 am   BACKBONE|DICT|INTERRES
    51   24  149 1    
    52   25   26 2    
    53   25   27 1    
    54   27   28 1    
    55   27   29 1    
    56   27  150 1    
    57   28  151 1    
    58   28  152 1    
    59   28  153 1    
    60   29   30 am   BACKBONE|DICT|INTERRES
    61   29  154 1    
    62   30   31 2    
    63   30   32 1    
    64   32   33 1    
    65   32   34 1    
    66   32  155 1    
    67   33  156 1    
    68   33  157 1    
    69   33  158 1    
    70   34   35 am   BACKBONE|DICT|INTERRES
    71   34  159 1    
    72   35   36 2    
    73   35   37 1    
    74   37   38 1    
    75   37   39 1    
    76   37  160 1    
    77   38  161 1    
    78   38  162 1    
    79   38  163 1    
    80   39   40 am   BACKBONE|DICT|INTERRES
    81   39  164 1    
    82   40   41 2    
    83   40   42 1    
    84   42   43 1    
    85   42   44 1    
    86   42  165 1    
    87   43  166 1    
    88   43  167 1    
    89   43  168 1    
    90   44   45 am   BACKBONE|DICT|INTERRES
    91   44  169 1    
    92   45   46 2    
    93   45   47 1    
    94   47   48 1    
    95   47   49 1    
    96   47  170 1    
    97   48  171 1    
    98   48  172 1    
    99   48  173 1    
   100   49   50 am   BACKBONE|DICT|INTERRES
   101   49  174 1    
   102   50   51 2    
   103   50   52 1    
   104   52   53 1    
   105   52   54 1    
   106   52  175 1    
   107   53  176 1    
   108   53  177 1    
   109   53  178 1    
   110   54   55 am   BACKBONE|DICT|INTERRES
   111   54  179 1    
   112   55   56 2    
   113   55   57 1    
   114   57   58 1    
   115   57   59 1    
   116   57  180 1    
   117   58  181 1    
   118   58  182 1    
   119   58  183 1    
   120   59   60 am   BACKBONE|DICT|INTERRES
   121   59  184 1    
   122   60   61 2    
   123   60   62 1    
   124   62   63 1    
   125   62   64 1    
   126   62  185 1    
   127   63  186 1    
   128   63  187 1    
   129   63  188 1    
   130   64   65 am   BACKBONE|DICT|INTERRES
   131   64  189 1    
   132   65   66 2    
   133   67   68 2    
   134   67   69 am   BACKBONE|DICT|INTERRES
   135   69   70 1    
   136   69  190 1    
   137   70   71 1    
   138   70   72 1    
   139   70  191 1    
   140   71  192 1    
   141   71  193 1    
   142   71  194 1    
   143   72   73 2    
   144   72   74 am   BACKBONE|DICT|INTERRES
   145   74   75 1    
   146   74  195 1    
   147   75   76 1    
   148   75   77 1    
   149   75  196 1    
   150   76  197 1    
   151   76  198 1    
   152   76  199 1    
   153   77   78 2    
   154   77   79 am   BACKBONE|DICT|INTERRES
   155   79   80 1    
   156   79  200 1    
   157   80   81 1    
   158   80   82 1    
   159   80  201 1    
   160   81  202 1    
   161   81  203 1    
   162   81  204 1    
   163   82   83 2    
   164   82   84 am   BACKBONE|DICT|INTERRES
   165   84   85 1    
   166   84  205 1    
   167   85   86 1    
   168   85   87 1    
   169   85  206 1    
   170   86  207 1    
   171   86  208 1    
   172   86  209 1    
   173   87   88 2    
   174   87   89 am   BACKBONE|DICT|INTERRES
   175   89   90 1    
   176   89  210 1    
   177   90   91 1    
   178   90   92 1    
   179   90  211 1    
   180   91  212 1    
   181   91  213 1    
   182   91  214 1    
   183   92   93 2    
   184   92   94 am   BACKBONE|DICT|INTERRES
   185   94   95 1    
   186   94  215 1    
   187   95   96 1    
   188   95   97 1    
   189   95  216 1    
   190   96  217 1    
   191   96  218 1    
   192   96  219 1    
   193   97   98 2    
   194   97   99 am   BACKBONE|DICT|INTERRES
   195   99  100 1    
   196   99  220 1    
   197  100  101 1    
   198  100  102 1    
   199  100  221 1    
   200  101  222 1    
   201  101  223 1    
   202  101  224 1    
   203  102  103 2    
   204  102  104 am   BACKBONE|DICT|INTERRES
   205  104  105 1    
   206  104  225 1    
   207  105  106 1    
   208  105  107 1    
   209  105  226 1    
   210  106  227 1    
   211  106  228 1    
   212  106  229 1    
   213  107  108 2    
   214  107  109 am   BACKBONE|DICT|INTERRES
   215  109  110 1    
   216  109  230 1    
   217  110  111 1    
   218  110  112 1    
   219  110  231 1    
   220  111  232 1    
   221  111  233 1    
   222  111  234 1    
   223  112  113 2    
   224  112  114 am   BACKBONE|DICT|INTERRES
   225  114  115 1    
   226  114  235 1    
   227  115  116 1    
   228  115  117 1    
   229  115  236 1    
   230  116  237 1    
   231  116  238 1    
   232  116  239 1    
   233  117  118 2    
   234  117  119 am   BACKBONE|DICT|INTERRES
   235  119  120 1    
   236  119  240 1    
   237  120  121 1    
   238  120  124 1    
   239  120  241 1    
   240  121  122 am   BACKBONE|DICT|INTERRES
   241  121  123 2    
   242  122  242 1    
   243  122  243 1    
   244  124  125 1    
   245  124  244 1    
   246  124  245 1    
   247  125  126 1    
   248  126  246 1    
   249  126  247 1    
@<TRIPOS>SUBSTRUCTURE
     1 UNK         1 GROUP             0       ****    0 ROOT    
