@<TRIPOS>MOLECULE
3R540
247   249    1
SMALL
USER_CHARGES


@<TRIPOS>ATOM
      1 CA          4.5640  -13.5528  -45.0877 C.3       0 UNK        -0.1800 
      2 C           3.2615  -13.4351  -45.8635 C.2       0 UNK         0.5000 
      3 O           2.2999  -12.8544  -45.3588 O.2       0 UNK        -0.5000 
      4 N           3.2190  -13.9809  -47.0877 N.am      1 UNK        -0.5000 
      5 CA          2.0482  -13.9425  -47.9765 C.3       1 UNK         0.1400 
      6 C6          2.2024  -14.8731  -49.2053 C.3       23 UNK        -0.0398 
      7 S7          2.0548  -16.6417  -48.7747 S.3       23 UNK        -0.2404 
      8 C8          3.6772  -17.3186  -49.2507 C.3       23 UNK        -0.0205 
      9 C9          3.5612  -18.7816  -49.6576 C.ar      23 UNK        -0.0193 
     10 C10         3.0351  -19.1032  -50.9118 C.ar      23 UNK        -0.1150 
     11 C11         2.9291  -20.4336  -51.3215 C.ar      23 UNK        -0.0193 
     12 C12         3.3446  -21.4481  -50.4551 C.ar      23 UNK        -0.1150 
     13 C13         3.8610  -21.1518  -49.1881 C.ar      23 UNK        -0.0193 
     14 C14         3.9847  -19.8080  -48.8043 C.ar      23 UNK        -0.1150 
     15 C15         4.2991  -22.3252  -48.3053 C.3       23 UNK        -0.0205 
     16 S16         4.4069  -22.0446  -46.4982 S.3       23 UNK        -0.2404 
     17 C17         2.7902  -21.3512  -46.0110 C.3       23 UNK        -0.0398 
     18 CA          1.5819  -22.3273  -46.0356 C.3       11 UNK         0.1400 
     19 N           0.5550  -21.9406  -45.0586 N.am      11 UNK        -0.5000 
     20 C          -0.5615  -22.6302  -44.7799 C.2       10 UNK         0.5000 
     21 O          -0.7985  -23.7522  -45.2252 O.2       10 UNK        -0.5000 
     22 CA         -1.6115  -21.9378  -43.8868 C.3       10 UNK         0.1400 
     23 CB         -1.3280  -22.1976  -42.4000 C.3       10 UNK        -0.1800 
     24 N          -1.7011  -20.4954  -44.1247 N.am      10 UNK        -0.5000 
     25 C          -2.1636  -19.9374  -45.2539 C.2       9 UNK         0.5000 
     26 O          -2.6371  -20.5788  -46.1910 O.2       9 UNK        -0.5000 
     27 CA         -2.0191  -18.4091  -45.3836 C.3       9 UNK         0.1400 
     28 CB         -3.1769  -17.6826  -44.6840 C.3       9 UNK        -0.1800 
     29 N          -0.7414  -17.9263  -44.8581 N.am      9 UNK        -0.5000 
     30 C           0.4554  -18.2721  -45.3507 C.2       8 UNK         0.5000 
     31 O           0.5959  -18.9624  -46.3566 O.2       8 UNK        -0.5000 
     32 CA          1.6984  -17.8485  -44.5518 C.3       8 UNK         0.1400 
     33 CB          2.1552  -16.4413  -44.9329 C.3       8 UNK        -0.1800 
     34 N           1.4703  -17.9087  -43.1113 N.am      8 UNK        -0.5000 
     35 C           1.4223  -19.0446  -42.4045 C.2       7 UNK         0.5000 
     36 O           1.5918  -20.1592  -42.8961 O.2       7 UNK        -0.5000 
     37 CA          1.0948  -18.9115  -40.9062 C.3       7 UNK         0.1400 
     38 CB          2.3761  -18.6800  -40.0920 C.3       7 UNK        -0.1800 
     39 N           0.1471  -17.8287  -40.6367 N.am      7 UNK        -0.5000 
     40 C          -1.1356  -17.8391  -41.0245 C.2       6 UNK         0.5000 
     41 O          -1.6632  -18.7848  -41.6109 O.2       6 UNK        -0.5000 
     42 CA         -1.9440  -16.5552  -40.7583 C.3       6 UNK         0.1400 
     43 CB         -2.5124  -16.5601  -39.3315 C.3       6 UNK        -0.1800 
     44 N          -1.1743  -15.3236  -40.9738 N.am      6 UNK        -0.5000 
     45 C          -0.6640  -14.9479  -42.1543 C.2       5 UNK         0.5000 
     46 O          -0.7307  -15.6393  -43.1718 O.2       5 UNK        -0.5000 
     47 CA          0.0812  -13.6003  -42.1982 C.3       5 UNK         0.1400 
     48 CB          1.5837  -13.8084  -41.9546 C.3       5 UNK        -0.1800 
     49 N          -0.0975  -12.9199  -43.4813 N.am      5 UNK        -0.5000 
     50 C          -1.2625  -12.4277  -43.9276 C.2       4 UNK         0.5000 
     51 O          -2.3066  -12.4464  -43.2719 O.2       4 UNK        -0.5000 
     52 CA         -1.2392  -11.7955  -45.3353 C.3       4 UNK         0.1400 
     53 CB         -2.5226  -11.0113  -45.6794 C.3       4 UNK        -0.1800 
     54 N          -0.0467  -10.9741  -45.5554 N.am      4 UNK        -0.5000 
     55 C           0.3353   -9.8747  -44.8873 C.2       3 UNK         0.5000 
     56 O          -0.3388   -9.3290  -44.0130 O.2       3 UNK        -0.5000 
     57 CA          1.7191   -9.2924  -45.2403 C.3       3 UNK         0.1400 
     58 CB          2.7145   -9.5474  -44.0962 C.3       3 UNK        -0.1800 
     59 N           2.2694   -9.8607  -46.4728 N.am      3 UNK        -0.5000 
     60 C           2.0104   -9.4105  -47.7082 C.2       2 UNK         0.5000 
     61 O           1.3300   -8.4118  -47.9443 O.2       2 UNK        -0.5000 
     62 CA          2.5968  -10.2254  -48.8789 C.3       2 UNK         0.1400 
     63 CB          3.9669   -9.6658  -49.2907 C.3       2 UNK        -0.1800 
     64 N           2.7355  -11.6516  -48.5704 N.am      2 UNK        -0.5000 
     65 C           1.7094  -12.5033  -48.4226 C.2       1 UNK         0.5000 
     66 O           0.5316  -12.1811  -48.5764 O.2       1 UNK        -0.5000 
     67 C           0.9701  -22.4107  -47.4480 C.2       11 UNK         0.5000 
     68 O           1.0476  -23.4526  -48.0988 O.2       11 UNK        -0.5000 
     69 N           0.3385  -21.3104  -47.8763 N.am      12 UNK        -0.5000 
     70 CA         -0.2441  -21.1503  -49.2036 C.3       12 UNK         0.1400 
     71 CB         -0.5274  -19.6645  -49.4593 C.3       12 UNK        -0.1800 
     72 C          -1.4749  -22.0362  -49.4723 C.2       12 UNK         0.5000 
     73 O          -1.8018  -22.2756  -50.6336 O.2       12 UNK        -0.5000 
     74 N          -2.1088  -22.5504  -48.4100 N.am      13 UNK        -0.5000 
     75 CA         -3.1813  -23.5482  -48.4517 C.3       13 UNK         0.1400 
     76 CB         -3.8902  -23.5779  -47.0870 C.3       13 UNK        -0.1800 
     77 C          -2.7149  -24.9660  -48.8578 C.2       13 UNK         0.5000 
     78 O          -3.5358  -25.8834  -48.8684 O.2       13 UNK        -0.5000 
     79 N          -1.4219  -25.1443  -49.1711 N.am      14 UNK        -0.5000 
     80 CA         -0.8589  -26.3767  -49.7264 C.3       14 UNK         0.1400 
     81 CB          0.6740  -26.2784  -49.7245 C.3       14 UNK        -0.1800 
     82 C          -1.3754  -26.6980  -51.1444 C.2       14 UNK         0.5000 
     83 O          -1.4575  -27.8746  -51.5012 O.2       14 UNK        -0.5000 
     84 N          -1.7193  -25.6607  -51.9218 N.am      15 UNK        -0.5000 
     85 CA         -2.3955  -25.7887  -53.2139 C.3       15 UNK         0.1400 
     86 CB         -2.0854  -24.5497  -54.0720 C.3       15 UNK        -0.1800 
     87 C          -3.9104  -26.0361  -53.0359 C.2       15 UNK         0.5000 
     88 O          -4.4532  -25.8230  -51.9515 O.2       15 UNK        -0.5000 
     89 N          -4.5659  -26.5159  -54.1002 N.am      16 UNK        -0.5000 
     90 CA         -5.9267  -27.0641  -54.0579 C.3       16 UNK         0.1400 
     91 CB         -6.1844  -27.8360  -55.3616 C.3       16 UNK        -0.1800 
     92 C          -7.0596  -26.0455  -53.8148 C.2       16 UNK         0.5000 
     93 O          -8.1247  -26.4422  -53.3391 O.2       16 UNK        -0.5000 
     94 N          -6.8423  -24.7697  -54.1597 N.am      17 UNK        -0.5000 
     95 CA         -7.8491  -23.6989  -54.1524 C.3       17 UNK         0.1400 
     96 CB         -7.4097  -22.6020  -55.1411 C.3       17 UNK        -0.1800 
     97 C          -8.1862  -23.1401  -52.7472 C.2       17 UNK         0.5000 
     98 O          -8.1957  -21.9225  -52.5583 O.2       17 UNK        -0.5000 
     99 N          -8.4670  -24.0388  -51.7944 N.am      18 UNK        -0.5000 
    100 CA        -8.8426  -23.7842  -50.3986 C.3       18 UNK         0.1400 
    101 CB       -10.2256  -23.0968  -50.3286 C.3       18 UNK        -0.1800 
    102 C         -7.7399  -23.0617  -49.5887 C.2       18 UNK         0.5000 
    103 O         -6.5547  -23.3197  -49.8035 O.2       18 UNK        -0.5000 
    104 N         -8.1362  -22.2119  -48.6314 N.am      19 UNK        -0.5000 
    105 CA        -7.2318  -21.4365  -47.7830 C.3       19 UNK         0.1400 
    106 CB        -8.0301  -20.8056  -46.6322 C.3       19 UNK        -0.1800 
    107 C         -6.4911  -20.3554  -48.5901 C.2       19 UNK         0.5000 
    108 O         -7.1268  -19.6364  -49.3639 O.2       19 UNK        -0.5000 
    109 N         -5.1700  -20.2601  -48.3809 N.am      20 UNK        -0.5000 
    110 CA        -4.2388  -19.3302  -49.0314 C.3       20 UNK         0.1400 
    111 CB        -4.4934  -17.8848  -48.5584 C.3       20 UNK        -0.1800 
    112 C         -4.1865  -19.4571  -50.5722 C.2       20 UNK         0.5000 
    113 O         -3.9164  -18.4702  -51.2582 O.2       20 UNK        -0.5000 
    114 N         -4.4403  -20.6732  -51.0751 N.am      21 UNK        -0.5000 
    115 CA        -4.6049  -21.0515  -52.4798 C.3       21 UNK         0.1400 
    116 CB        -4.6246  -22.5813  -52.5738 C.3       21 UNK        -0.1800 
    117 C         -3.5766  -20.4722  -53.4685 C.2       21 UNK         0.5000 
    118 O         -3.9815  -19.8684  -54.4631 O.2       21 UNK        -0.5000 
    119 N         -2.2810  -20.6597  -53.1857 N.am      22 UNK        -0.5000 
    120 CA        -1.1765  -20.1202  -54.0023 C.3       22 UNK         0.1400 
    121 C         -0.7077  -18.6905  -53.5942 C.2       22 UNK         0.5000 
    122 N         -1.3891  -17.9881  -52.6966 N.am      22 UNK        -0.7600 
    123 O          0.2790  -18.1892  -54.1263 O.2       22 UNK        -0.5000 
    124 C124       -0.0128  -21.1343  -54.1755 C.3       23 UNK        -0.0398 
    125 S125        0.7896  -21.6384  -52.6194 S.3       23 UNK        -0.2404 
    126 C126        2.3860  -20.7670  -52.7054 C.3       23 UNK        -0.0205 
    127 H127        4.3770  -13.9885  -44.1064 H         1 UNK         0.0600 
    128 H128        5.0031  -12.5657  -44.9439 H         1 UNK         0.0600 
    129 H129        5.2893  -14.1798  -45.6064 H         1 UNK         0.0600 
    130 H130        4.0311  -14.4620  -47.4462 H         1 UNK         0.3000 
    131 H131        1.1901  -14.2918  -47.3971 H         1 UNK         0.0600 
    132 H132        1.4168  -14.6750  -49.9373 H         1 UNK         0.0800 
    133 H133        3.1440  -14.6777  -49.7200 H         1 UNK         0.0800 
    134 H134        4.3753  -17.1987  -48.4211 H         1 UNK         0.0800 
    135 H135        4.0900  -16.7557  -50.0889 H         1 UNK         0.0800 
    136 H136        2.7088  -18.3105  -51.5709 H         1 UNK         0.1150 
    137 H137        3.2580  -22.4783  -50.7716 H         1 UNK         0.1150 
    138 H138        4.4062  -19.5545  -47.8426 H         1 UNK         0.1150 
    139 H139        3.6423  -23.1786  -48.4754 H         1 UNK         0.0800 
    140 H140        5.2847  -22.6433  -48.6472 H         1 UNK         0.0800 
    141 H141        2.6000  -20.4475  -46.5860 H         1 UNK         0.0800 
    142 H142        2.9412  -21.0033  -44.9892 H         1 UNK         0.0800 
    143 H143        1.9304  -23.3236  -45.7560 H         1 UNK         0.0600 
    144 H144        0.6975  -21.0575  -44.5837 H         1 UNK         0.3000 
    145 H145       -2.5838  -22.3745  -44.1247 H         1 UNK         0.0600 
    146 H146       -2.1001  -21.7568  -41.7690 H         1 UNK         0.0600 
    147 H147       -1.3057  -23.2674  -42.1889 H         1 UNK         0.0600 
    148 H148       -0.3687  -21.7830  -42.0916 H         1 UNK         0.0600 
    149 H149       -1.3892  -19.8872  -43.3757 H         1 UNK         0.3000 
    150 H150       -2.0561  -18.1627  -46.4466 H         1 UNK         0.0600 
    151 H151       -4.1399  -18.0147  -45.0732 H         1 UNK         0.0600 
    152 H152       -3.1151  -16.6050  -44.8375 H         1 UNK         0.0600 
    153 H153       -3.1798  -17.8669  -43.6103 H         1 UNK         0.0600 
    154 H154       -0.7775  -17.2806  -44.0734 H         1 UNK         0.3000 
    155 H155        2.5091  -18.5362  -44.7999 H         1 UNK         0.0600 
    156 H156        1.3600  -15.7040  -44.8207 H         1 UNK         0.0600 
    157 H157        2.4798  -16.4214  -45.9707 H         1 UNK         0.0600 
    158 H158        3.0030  -16.1259  -44.3256 H         1 UNK         0.0600 
    159 H159        1.2583  -17.0381  -42.6482 H         1 UNK         0.3000 
    160 H160        0.6448  -19.8511  -40.5784 H         1 UNK         0.0600 
    161 H161        2.8627  -17.7418  -40.3620 H         1 UNK         0.0600 
    162 H162        3.0950  -19.4831  -40.2601 H         1 UNK         0.0600 
    163 H163        2.1645  -18.6536  -39.0229 H         1 UNK         0.0600 
    164 H164        0.5020  -17.0143  -40.1576 H         1 UNK         0.3000 
    165 H165       -2.7833  -16.5471  -41.4568 H         1 UNK         0.0600 
    166 H166       -3.1653  -15.7033  -39.1641 H         1 UNK         0.0600 
    167 H167       -3.1048  -17.4581  -39.1505 H         1 UNK         0.0600 
    168 H168       -1.7213  -16.5319  -38.5811 H         1 UNK         0.0600 
    169 H169       -1.0725  -14.7115  -40.1769 H         1 UNK         0.3000 
    170 H170       -0.3149  -12.9534  -41.4129 H         1 UNK         0.0600 
    171 H171        1.7643  -14.2930  -40.9943 H         1 UNK         0.0600 
    172 H172        2.0351  -14.4299  -42.7278 H         1 UNK         0.0600 
    173 H173        2.1153  -12.8566  -41.9434 H         1 UNK         0.0600 
    174 H174        0.7125  -12.8789  -44.0921 H         1 UNK         0.3000 
    175 H175       -1.1661  -12.6274  -46.0374 H         1 UNK         0.0600 
    176 H176       -2.6978  -10.1906  -44.9835 H         1 UNK         0.0600 
    177 H177       -2.4701  -10.5939  -46.6850 H         1 UNK         0.0600 
    178 H178       -3.3975  -11.6614  -45.6439 H         1 UNK         0.0600 
    179 H179        0.6082  -11.3468  -46.2284 H         1 UNK         0.3000 
    180 H180        1.6042   -8.2128  -45.3575 H         1 UNK         0.0600 
    181 H181        2.8529  -10.6130  -43.9100 H         1 UNK         0.0600 
    182 H182        2.3649   -9.0965  -43.1666 H         1 UNK         0.0600 
    183 H183        3.6904   -9.1156  -44.3184 H         1 UNK         0.0600 
    184 H184        2.8156  -10.7037  -46.3686 H         1 UNK         0.3000 
    185 H185        1.9167  -10.1229  -49.7272 H         1 UNK         0.0600 
    186 H186        3.8944   -8.6090  -49.5516 H         1 UNK         0.0600 
    187 H187        4.6979   -9.7557  -48.4862 H         1 UNK         0.0600 
    188 H188        4.3604  -10.1879  -50.1631 H         1 UNK         0.0600 
    189 H189        3.6729  -11.9954  -48.4201 H         1 UNK         0.3000 
    190 H190        0.3392  -20.4811  -47.2836 H         1 UNK         0.3000 
    191 H191        0.5190  -21.4679  -49.9096 H         1 UNK         0.0600 
    192 H192       -1.0780  -19.2067  -48.6390 H         1 UNK         0.0600 
    193 H193       -1.0956  -19.5199  -50.3776 H         1 UNK         0.0600 
    194 H194        0.4048  -19.1116  -49.5694 H         1 UNK         0.0600 
    195 H195       -1.7962  -22.2659  -47.4905 H         1 UNK         0.3000 
    196 H196       -3.9050  -23.2284  -49.2033 H         1 UNK         0.0600 
    197 H197       -4.7763  -24.2130  -47.1219 H         1 UNK         0.0600 
    198 H198       -4.2185  -22.5868  -46.7805 H         1 UNK         0.0600 
    199 H199       -3.2386  -23.9688  -46.3060 H         1 UNK         0.0600 
    200 H200       -0.7823  -24.3677  -49.0587 H         1 UNK         0.3000 
    201 H201       -1.1484  -27.2037  -49.0749 H         1 UNK         0.0600 
    202 H202        1.0592  -26.1610  -48.7115 H         1 UNK         0.0600 
    203 H203        1.0230  -25.4308  -50.3161 H         1 UNK         0.0600 
    204 H204        1.1261  -27.1798  -50.1402 H         1 UNK         0.0600 
    205 H205       -1.6652  -24.7304  -51.5303 H         1 UNK         0.3000 
    206 H206       -1.9920  -26.6580  -53.7376 H         1 UNK         0.0600 
    207 H207       -2.1989  -23.6213  -53.5165 H         1 UNK         0.0600 
    208 H208       -1.0552  -24.5813  -54.4267 H         1 UNK         0.0600 
    209 H209       -2.7260  -24.4936  -54.9527 H         1 UNK         0.0600 
    210 H210       -4.0612  -26.6479  -54.9651 H         1 UNK         0.3000 
    211 H211       -5.9664  -27.7802  -53.2341 H         1 UNK         0.0600 
    212 H212       -6.1262  -27.1829  -56.2333 H         1 UNK         0.0600 
    213 H213       -7.1756  -28.2916  -55.3591 H         1 UNK         0.0600 
    214 H214       -5.4611  -28.6408  -55.4946 H         1 UNK         0.0600 
    215 H215       -5.9293  -24.5289  -54.5139 H         1 UNK         0.3000 
    216 H216       -8.7807  -24.1168  -54.5399 H         1 UNK         0.0600 
    217 H217       -8.1773  -21.8333  -55.2393 H         1 UNK         0.0600 
    218 H218       -7.2401  -23.0127  -56.1366 H         1 UNK         0.0600 
    219 H219       -6.4929  -22.1076  -54.8218 H         1 UNK         0.0600 
    220 H220       -8.4000  -25.0161  -52.0629 H         1 UNK         0.3000 
    221 H221       -8.9457  -24.7684  -49.9398 H         1 UNK         0.0600 
    222 H222      -10.1852  -22.0646  -50.6787 H         1 UNK         0.0600 
    223 H223      -10.9558  -23.6252  -50.9419 H         1 UNK         0.0600 
    224 H224      -10.6169  -23.0896  -49.3108 H         1 UNK         0.0600 
    225 H225       -9.1224  -22.0241  -48.5286 H         1 UNK         0.3000 
    226 H226       -6.5035  -22.1254  -47.3521 H         1 UNK         0.0600 
    227 H227       -8.7961  -20.1219  -47.0006 H         1 UNK         0.0600 
    228 H228       -8.5220  -21.5680  -46.0279 H         1 UNK         0.0600 
    229 H229       -7.3754  -20.2383  -45.9692 H         1 UNK         0.0600 
    230 H230       -4.7407  -20.8749  -47.7027 H         1 UNK         0.3000 
    231 H231       -3.2547  -19.6205  -48.6726 H         1 UNK         0.0600 
    232 H232       -4.5245  -17.8244  -47.4714 H         1 UNK         0.0600 
    233 H233       -5.4366  -17.4952  -48.9424 H         1 UNK         0.0600 
    234 H234       -3.7005  -17.2167  -48.8965 H         1 UNK         0.0600 
    235 H235       -4.6486  -21.4072  -50.4143 H         1 UNK         0.3000 
    236 H236       -5.5854  -20.6843  -52.7884 H         1 UNK         0.0600 
    237 H237       -3.7764  -23.0273  -52.0595 H         1 UNK         0.0600 
    238 H238       -5.5152  -22.9947  -52.1115 H         1 UNK         0.0600 
    239 H239       -4.6058  -22.9218  -53.6088 H         1 UNK         0.0600 
    240 H240       -2.0223  -21.1638  -52.3426 H         1 UNK         0.3000 
    241 H241       -1.5587  -19.9742  -55.0140 H         1 UNK         0.0600 
    242 H242       -2.2478  -18.3394  -52.2853 H         1 UNK         0.3800 
    243 H243       -1.0720  -17.0623  -52.4607 H         1 UNK         0.3800 
    244 H244       -0.3984  -22.0380  -54.6481 H         1 UNK         0.0800 
    245 H245        0.7348  -20.7488  -54.8704 H         1 UNK         0.0800 
    246 H246        3.1051  -21.3889  -53.2399 H         1 UNK         0.0800 
    247 H247        2.2760  -19.8533  -53.2906 H         1 UNK         0.0800 
@<TRIPOS>BOND
     1    1    2 1    
     2    1  127 1    
     3    1  128 1    
     4    1  129 1    
     5    2    3 2    
     6    2    4 am   BACKBONE|DICT|INTERRES
     7    4    5 1    
     8    4  130 1    
     9    5    6 1    
    10    5   65 1    
    11    5  131 1    
    12    6    7 1    
    13    6  132 1    
    14    6  133 1    
    15    7    8 1    
    16    8    9 1    
    17    8  134 1    
    18    8  135 1    
    19    9   10 ar   
    20    9   14 ar   
    21   10   11 ar   
    22   10  136 1    
    23   11   12 ar   
    24   11  126 1    
    25   12   13 ar   
    26   12  137 1    
    27   13   14 ar   
    28   13   15 1    
    29   14  138 1    
    30   15   16 1    
    31   15  139 1    
    32   15  140 1    
    33   16   17 1    
    34   17   18 1    
    35   17  141 1    
    36   17  142 1    
    37   18   19 1    
    38   18   67 1    
    39   18  143 1    
    40   19   20 am   BACKBONE|DICT|INTERRES
    41   19  144 1    
    42   20   21 2    
    43   20   22 1    
    44   22   23 1    
    45   22   24 1    
    46   22  145 1    
    47   23  146 1    
    48   23  147 1    
    49   23  148 1    
    50   24   25 am   BACKBONE|DICT|INTERRES
    51   24  149 1    
    52   25   26 2    
    53   25   27 1    
    54   27   28 1    
    55   27   29 1    
    56   27  150 1    
    57   28  151 1    
    58   28  152 1    
    59   28  153 1    
    60   29   30 am   BACKBONE|DICT|INTERRES
    61   29  154 1    
    62   30   31 2    
    63   30   32 1    
    64   32   33 1    
    65   32   34 1    
    66   32  155 1    
    67   33  156 1    
    68   33  157 1    
    69   33  158 1    
    70   34   35 am   BACKBONE|DICT|INTERRES
    71   34  159 1    
    72   35   36 2    
    73   35   37 1    
    74   37   38 1    
    75   37   39 1    
    76   37  160 1    
    77   38  161 1    
    78   38  162 1    
    79   38  163 1    
    80   39   40 am   BACKBONE|DICT|INTERRES
    81   39  164 1    
    82   40   41 2    
    83   40   42 1    
    84   42   43 1    
    85   42   44 1    
    86   42  165 1    
    87   43  166 1    
    88   43  167 1    
    89   43  168 1    
    90   44   45 am   BACKBONE|DICT|INTERRES
    91   44  169 1    
    92   45   46 2    
    93   45   47 1    
    94   47   48 1    
    95   47   49 1    
    96   47  170 1    
    97   48  171 1    
    98   48  172 1    
    99   48  173 1    
   100   49   50 am   BACKBONE|DICT|INTERRES
   101   49  174 1    
   102   50   51 2    
   103   50   52 1    
   104   52   53 1    
   105   52   54 1    
   106   52  175 1    
   107   53  176 1    
   108   53  177 1    
   109   53  178 1    
   110   54   55 am   BACKBONE|DICT|INTERRES
   111   54  179 1    
   112   55   56 2    
   113   55   57 1    
   114   57   58 1    
   115   57   59 1    
   116   57  180 1    
   117   58  181 1    
   118   58  182 1    
   119   58  183 1    
   120   59   60 am   BACKBONE|DICT|INTERRES
   121   59  184 1    
   122   60   61 2    
   123   60   62 1    
   124   62   63 1    
   125   62   64 1    
   126   62  185 1    
   127   63  186 1    
   128   63  187 1    
   129   63  188 1    
   130   64   65 am   BACKBONE|DICT|INTERRES
   131   64  189 1    
   132   65   66 2    
   133   67   68 2    
   134   67   69 am   BACKBONE|DICT|INTERRES
   135   69   70 1    
   136   69  190 1    
   137   70   71 1    
   138   70   72 1    
   139   70  191 1    
   140   71  192 1    
   141   71  193 1    
   142   71  194 1    
   143   72   73 2    
   144   72   74 am   BACKBONE|DICT|INTERRES
   145   74   75 1    
   146   74  195 1    
   147   75   76 1    
   148   75   77 1    
   149   75  196 1    
   150   76  197 1    
   151   76  198 1    
   152   76  199 1    
   153   77   78 2    
   154   77   79 am   BACKBONE|DICT|INTERRES
   155   79   80 1    
   156   79  200 1    
   157   80   81 1    
   158   80   82 1    
   159   80  201 1    
   160   81  202 1    
   161   81  203 1    
   162   81  204 1    
   163   82   83 2    
   164   82   84 am   BACKBONE|DICT|INTERRES
   165   84   85 1    
   166   84  205 1    
   167   85   86 1    
   168   85   87 1    
   169   85  206 1    
   170   86  207 1    
   171   86  208 1    
   172   86  209 1    
   173   87   88 2    
   174   87   89 am   BACKBONE|DICT|INTERRES
   175   89   90 1    
   176   89  210 1    
   177   90   91 1    
   178   90   92 1    
   179   90  211 1    
   180   91  212 1    
   181   91  213 1    
   182   91  214 1    
   183   92   93 2    
   184   92   94 am   BACKBONE|DICT|INTERRES
   185   94   95 1    
   186   94  215 1    
   187   95   96 1    
   188   95   97 1    
   189   95  216 1    
   190   96  217 1    
   191   96  218 1    
   192   96  219 1    
   193   97   98 2    
   194   97   99 am   BACKBONE|DICT|INTERRES
   195   99  100 1    
   196   99  220 1    
   197  100  101 1    
   198  100  102 1    
   199  100  221 1    
   200  101  222 1    
   201  101  223 1    
   202  101  224 1    
   203  102  103 2    
   204  102  104 am   BACKBONE|DICT|INTERRES
   205  104  105 1    
   206  104  225 1    
   207  105  106 1    
   208  105  107 1    
   209  105  226 1    
   210  106  227 1    
   211  106  228 1    
   212  106  229 1    
   213  107  108 2    
   214  107  109 am   BACKBONE|DICT|INTERRES
   215  109  110 1    
   216  109  230 1    
   217  110  111 1    
   218  110  112 1    
   219  110  231 1    
   220  111  232 1    
   221  111  233 1    
   222  111  234 1    
   223  112  113 2    
   224  112  114 am   BACKBONE|DICT|INTERRES
   225  114  115 1    
   226  114  235 1    
   227  115  116 1    
   228  115  117 1    
   229  115  236 1    
   230  116  237 1    
   231  116  238 1    
   232  116  239 1    
   233  117  118 2    
   234  117  119 am   BACKBONE|DICT|INTERRES
   235  119  120 1    
   236  119  240 1    
   237  120  121 1    
   238  120  124 1    
   239  120  241 1    
   240  121  122 am   BACKBONE|DICT|INTERRES
   241  121  123 2    
   242  122  242 1    
   243  122  243 1    
   244  124  125 1    
   245  124  244 1    
   246  124  245 1    
   247  125  126 1    
   248  126  246 1    
   249  126  247 1    
@<TRIPOS>SUBSTRUCTURE
     1 UNK         1 GROUP             0       ****    0 ROOT    
