@<TRIPOS>MOLECULE
3R540
247   249    1
SMALL
USER_CHARGES


@<TRIPOS>ATOM
      1 CA         -0.0662  -12.2577  -47.3789 C.3       0 UNK        -0.1800 
      2 C           1.4235  -12.3744  -47.6638 C.2       0 UNK         0.5000 
      3 O           2.0145  -11.4511  -48.2248 O.2       0 UNK        -0.5000 
      4 N           2.0363  -13.4960  -47.2665 N.am      1 UNK        -0.5000 
      5 CA          3.4675  -13.7727  -47.4068 C.3       1 UNK         0.1400 
      6 C6          3.7638  -15.2726  -47.1756 C.3       23 UNK        -0.0398 
      7 S7          5.5004  -15.7316  -47.5014 S.3       23 UNK        -0.2404 
      8 C8          5.4836  -16.0293  -49.2980 C.3       23 UNK        -0.0205 
      9 C9          4.5784  -17.1864  -49.6943 C.ar      23 UNK        -0.0193 
     10 C10         3.4839  -16.9689  -50.5363 C.ar      23 UNK        -0.1150 
     11 C11         2.6668  -18.0335  -50.9272 C.ar      23 UNK        -0.0193 
     12 C12         2.9474  -19.3215  -50.4645 C.ar      23 UNK        -0.1150 
     13 C13         4.0220  -19.5469  -49.5980 C.ar      23 UNK        -0.0193 
     14 C14         4.8407  -18.4772  -49.2278 C.ar      23 UNK        -0.1150 
     15 C15         4.2998  -20.9390  -49.0515 C.3       23 UNK        -0.0205 
     16 S16         3.3480  -21.2551  -47.5303 S.3       23 UNK        -0.2404 
     17 C17         1.6752  -21.4864  -48.2155 C.3       23 UNK        -0.0398 
     18 CA          0.8607  -22.5385  -47.4324 C.3       11 UNK         0.1400 
     19 N           0.4055  -22.0468  -46.1283 N.am      11 UNK        -0.5000 
     20 C          -0.1905  -22.8103  -45.2010 C.2       10 UNK         0.5000 
     21 O          -0.3560  -24.0246  -45.3187 O.2       10 UNK        -0.5000 
     22 CA         -0.7518  -22.0912  -43.9618 C.3       10 UNK         0.1400 
     23 CB          0.3623  -21.7861  -42.9497 C.3       10 UNK        -0.1800 
     24 N          -1.4705  -20.8628  -44.3057 N.am      10 UNK        -0.5000 
     25 C          -2.5859  -20.8240  -45.0493 C.2       9 UNK         0.5000 
     26 O          -3.1543  -21.8284  -45.4742 O.2       9 UNK        -0.5000 
     27 CA         -3.1432  -19.4380  -45.4195 C.3       9 UNK         0.1400 
     28 CB         -4.0174  -18.8837  -44.2856 C.3       9 UNK        -0.1800 
     29 N          -2.0989  -18.4718  -45.7617 N.am      9 UNK        -0.5000 
     30 C          -1.2550  -18.5932  -46.7970 C.2       8 UNK         0.5000 
     31 O          -1.2876  -19.5269  -47.5978 O.2       8 UNK        -0.5000 
     32 CA         -0.1524  -17.5245  -46.9215 C.3       8 UNK         0.1400 
     33 CB         -0.6971  -16.2309  -47.5446 C.3       8 UNK        -0.1800 
     34 N           0.4767  -17.2279  -45.6329 N.am      8 UNK        -0.5000 
     35 C           1.1756  -18.1230  -44.9190 C.2       7 UNK         0.5000 
     36 O           1.4213  -19.2658  -45.3051 O.2       7 UNK        -0.5000 
     37 CA          1.6132  -17.6877  -43.5102 C.3       7 UNK         0.1400 
     38 CB          2.8930  -16.8416  -43.5579 C.3       7 UNK        -0.1800 
     39 N           0.5588  -16.9469  -42.8166 N.am      7 UNK        -0.5000 
     40 C          -0.5667  -17.5072  -42.3508 C.2       6 UNK         0.5000 
     41 O          -0.8154  -18.7084  -42.4387 O.2       6 UNK        -0.5000 
     42 CA         -1.6041  -16.5676  -41.7089 C.3       6 UNK         0.1400 
     43 CB         -1.2895  -16.3550  -40.2208 C.3       6 UNK        -0.1800 
     44 N          -1.6917  -15.2675  -42.3741 N.am      6 UNK        -0.5000 
     45 C          -2.0915  -15.0799  -43.6401 C.2       5 UNK         0.5000 
     46 O          -2.4523  -15.9891  -44.3850 O.2       5 UNK        -0.5000 
     47 CA         -2.0244  -13.6400  -44.1805 C.3       5 UNK         0.1400 
     48 CB         -3.3416  -12.8983  -43.9129 C.3       5 UNK        -0.1800 
     49 N          -0.9105  -12.8711  -43.6196 N.am      5 UNK        -0.5000 
     50 C           0.3826  -13.1776  -43.7804 C.2       4 UNK         0.5000 
     51 O           0.7800  -14.1163  -44.4773 O.2       4 UNK        -0.5000 
     52 CA          1.3846  -12.2805  -43.0376 C.3       4 UNK         0.1400 
     53 CB          2.4916  -13.1015  -42.3562 C.3       4 UNK        -0.1800 
     54 N           1.9676  -11.3227  -43.9738 N.am      4 UNK        -0.5000 
     55 C           1.4106  -10.1396  -44.2760 C.2       3 UNK         0.5000 
     56 O           0.3810   -9.7327  -43.7352 O.2       3 UNK        -0.5000 
     57 CA          2.0535   -9.2727  -45.3817 C.3       3 UNK         0.1400 
     58 CB          2.2489   -7.8081  -44.9377 C.3       3 UNK        -0.1800 
     59 N           3.2755   -9.8317  -45.9685 N.am      3 UNK        -0.5000 
     60 C           4.4994   -9.9327  -45.4262 C.2       2 UNK         0.5000 
     61 O           4.8054   -9.4852  -44.3203 O.2       2 UNK        -0.5000 
     62 CA          5.5361  -10.7148  -46.2683 C.3       2 UNK         0.1400 
     63 CB          6.7523  -11.1886  -45.4449 C.3       2 UNK        -0.1800 
     64 N           4.9259  -11.8386  -46.9948 N.am      2 UNK        -0.5000 
     65 C           4.2432  -12.8540  -46.4441 C.2       1 UNK         0.5000 
     66 O           4.1332  -13.0255  -45.2309 O.2       1 UNK        -0.5000 
     67 C          -0.3109  -23.0559  -48.2902 C.2       11 UNK         0.5000 
     68 O          -0.1969  -24.1346  -48.8712 O.2       11 UNK        -0.5000 
     69 N          -1.4198  -22.3045  -48.3333 N.am      12 UNK        -0.5000 
     70 CA         -2.6423  -22.6749  -49.0469 C.3       12 UNK         0.1400 
     71 CB         -3.6362  -21.5038  -49.0003 C.3       12 UNK        -0.1800 
     72 C          -3.2768  -23.9697  -48.5053 C.2       12 UNK         0.5000 
     73 O          -3.6799  -24.8235  -49.2939 O.2       12 UNK        -0.5000 
     74 N          -3.3161  -24.1126  -47.1737 N.am      13 UNK        -0.5000 
     75 CA         -3.7776  -25.3130  -46.4774 C.3       13 UNK         0.1400 
     76 CB         -3.8894  -25.0260  -44.9728 C.3       13 UNK        -0.1800 
     77 C          -2.8799  -26.5360  -46.7382 C.2       13 UNK         0.5000 
     78 O          -3.4029  -27.6282  -46.9598 O.2       13 UNK        -0.5000 
     79 N          -1.5547  -26.3300  -46.7360 N.am      14 UNK        -0.5000 
     80 CA         -0.5545  -27.3574  -47.0348 C.3       14 UNK         0.1400 
     81 CB          0.8447  -26.8357  -46.6740 C.3       14 UNK        -0.1800 
     82 C          -0.6007  -27.8314  -48.4998 C.2       14 UNK         0.5000 
     83 O          -0.4722  -29.0297  -48.7539 O.2       14 UNK        -0.5000 
     84 N          -0.8028  -26.8901  -49.4320 N.am      15 UNK        -0.5000 
     85 CA         -0.9704  -27.1526  -50.8634 C.3       15 UNK         0.1400 
     86 CB         -0.8360  -25.8288  -51.6324 C.3       15 UNK        -0.1800 
     87 C          -2.3094  -27.8362  -51.2070 C.2       15 UNK         0.5000 
     88 O          -2.3796  -28.5393  -52.2163 O.2       15 UNK        -0.5000 
     89 N          -3.3247  -27.6127  -50.3595 N.am      16 UNK        -0.5000 
     90 CA         -4.7332  -28.0010  -50.4775 C.3       16 UNK         0.1400 
     91 CB         -4.8990  -29.5159  -50.7166 C.3       16 UNK        -0.1800 
     92 C          -5.4922  -27.1583  -51.5223 C.2       16 UNK         0.5000 
     93 O          -4.8787  -26.4763  -52.3469 O.2       16 UNK        -0.5000 
     94 N          -6.8322  -27.2037  -51.4390 N.am      17 UNK        -0.5000 
     95 CA         -7.7876  -26.3751  -52.1897 C.3       17 UNK         0.1400 
     96 CB         -7.7748  -26.7294  -53.6917 C.3       17 UNK        -0.1800 
     97 C          -7.5556  -24.8748  -51.9121 C.2       17 UNK         0.5000 
     98 O          -7.3473  -24.0852  -52.8349 O.2       17 UNK        -0.5000 
     99 N          -7.5539  -24.5286  -50.6173 N.am      18 UNK        -0.5000 
    100 CA        -7.1200  -23.2547  -50.0348 C.3       18 UNK         0.1400 
    101 CB        -6.9058  -23.4689  -48.5249 C.3       18 UNK        -0.1800 
    102 C         -8.0282  -22.0342  -50.3175 C.2       18 UNK         0.5000 
    103 O         -8.1301  -21.1375  -49.4777 O.2       18 UNK        -0.5000 
    104 N         -8.6553  -21.9874  -51.4963 N.am      19 UNK        -0.5000 
    105 CA        -9.5057  -20.9010  -51.9804 C.3       19 UNK         0.1400 
    106 CB       -10.4631  -21.4685  -53.0441 C.3       19 UNK        -0.1800 
    107 C         -8.6557  -19.7245  -52.5049 C.2       19 UNK         0.5000 
    108 O         -8.6946  -19.4180  -53.6978 O.2       19 UNK        -0.5000 
    109 N         -7.8823  -19.1112  -51.5956 N.am      20 UNK        -0.5000 
    110 CA        -6.9331  -18.0143  -51.8204 C.3       20 UNK         0.1400 
    111 CB        -7.6758  -16.7170  -52.2029 C.3       20 UNK        -0.1800 
    112 C         -5.8308  -18.4023  -52.8279 C.2       20 UNK         0.5000 
    113 O         -5.6341  -17.7194  -53.8349 O.2       20 UNK        -0.5000 
    114 N         -5.1404  -19.5151  -52.5360 N.am      21 UNK        -0.5000 
    115 CA        -4.1440  -20.1605  -53.4014 C.3       21 UNK         0.1400 
    116 CB        -3.6416  -21.4416  -52.7179 C.3       21 UNK        -0.1800 
    117 C         -2.9527  -19.2676  -53.8090 C.2       21 UNK         0.5000 
    118 O         -2.3862  -19.4752  -54.8828 O.2       21 UNK        -0.5000 
    119 N         -2.6114  -18.2841  -52.9664 N.am      22 UNK        -0.5000 
    120 CA        -1.6216  -17.2357  -53.2652 C.3       22 UNK         0.1400 
    121 C         -2.1225  -16.1334  -54.2483 C.2       22 UNK         0.5000 
    122 N         -3.3946  -16.0830  -54.6260 N.am      22 UNK        -0.7600 
    123 O         -1.3307  -15.3053  -54.6902 O.2       22 UNK        -0.5000 
    124 C124       -1.0454  -16.5990  -51.9737 C.3       23 UNK        -0.0398 
    125 S125       -0.0902  -17.7743  -50.9561 S.3       23 UNK        -0.2404 
    126 C126        1.4912  -17.7928  -51.8601 C.3       23 UNK        -0.0205 
    127 H127       -0.4903  -13.2143  -47.0774 H         1 UNK         0.0600 
    128 H128       -0.5950  -11.9213  -48.2706 H         1 UNK         0.0600 
    129 H129       -0.2442  -11.5366  -46.5816 H         1 UNK         0.0600 
    130 H130        1.5213  -14.1509  -46.6932 H         1 UNK         0.3000 
    131 H131        3.7523  -13.5310  -48.4330 H         1 UNK         0.0600 
    132 H132        3.5309  -15.5519  -46.1489 H         1 UNK         0.0800 
    133 H133        3.1085  -15.8836  -47.7971 H         1 UNK         0.0800 
    134 H134        5.1924  -15.1114  -49.8107 H         1 UNK         0.0800 
    135 H135        6.5001  -16.2512  -49.6255 H         1 UNK         0.0800 
    136 H136        3.2718  -15.9716  -50.8955 H         1 UNK         0.1150 
    137 H137        2.3155  -20.1425  -50.7704 H         1 UNK         0.1150 
    138 H138        5.6778  -18.6452  -48.5646 H         1 UNK         0.1150 
    139 H139        4.0764  -21.6975  -49.8032 H         1 UNK         0.0800 
    140 H140        5.3622  -21.0434  -48.8262 H         1 UNK         0.0800 
    141 H141        1.7799  -21.7995  -49.2554 H         1 UNK         0.0800 
    142 H142        1.1622  -20.5235  -48.2351 H         1 UNK         0.0800 
    143 H143        1.5091  -23.3975  -47.2458 H         1 UNK         0.0600 
    144 H144        0.5425  -21.0589  -45.9406 H         1 UNK         0.3000 
    145 H145       -1.4636  -22.7670  -43.4833 H         1 UNK         0.0600 
    146 H146       -0.0447  -21.3584  -42.0334 H         1 UNK         0.0600 
    147 H147        0.8976  -22.6954  -42.6736 H         1 UNK         0.0600 
    148 H148        1.0932  -21.0843  -43.3506 H         1 UNK         0.0600 
    149 H149       -1.0972  -19.9963  -43.9318 H         1 UNK         0.3000 
    150 H150       -3.7756  -19.5609  -46.3006 H         1 UNK         0.0600 
    151 H151       -4.8228  -19.5768  -44.0397 H         1 UNK         0.0600 
    152 H152       -4.4780  -17.9373  -44.5690 H         1 UNK         0.0600 
    153 H153       -3.4394  -18.7168  -43.3771 H         1 UNK         0.0600 
    154 H154       -2.0444  -17.6407  -45.1785 H         1 UNK         0.3000 
    155 H155        0.6152  -17.9225  -47.5895 H         1 UNK         0.0600 
    156 H156        0.1139  -15.5520  -47.8038 H         1 UNK         0.0600 
    157 H157       -1.3769  -15.7091  -46.8714 H         1 UNK         0.0600 
    158 H158       -1.2458  -16.4399  -48.4635 H         1 UNK         0.0600 
    159 H159        0.3045  -16.3163  -45.2301 H         1 UNK         0.3000 
    160 H160        1.8317  -18.5924  -42.9386 H         1 UNK         0.0600 
    161 H161        3.2686  -16.6407  -42.5545 H         1 UNK         0.0600 
    162 H162        2.7226  -15.8832  -44.0453 H         1 UNK         0.0600 
    163 H163        3.6841  -17.3557  -44.1055 H         1 UNK         0.0600 
    164 H164        0.6704  -15.9457  -42.7537 H         1 UNK         0.3000 
    165 H165       -2.5808  -17.0493  -41.7852 H         1 UNK         0.0600 
    166 H166       -2.0624  -15.7589  -39.7353 H         1 UNK         0.0600 
    167 H167       -1.2372  -17.3084  -39.6933 H         1 UNK         0.0600 
    168 H168       -0.3343  -15.8481  -40.0783 H         1 UNK         0.0600 
    169 H169       -1.4145  -14.4608  -41.8351 H         1 UNK         0.3000 
    170 H170       -1.8838  -13.7028  -45.2603 H         1 UNK         0.0600 
    171 H171       -4.1877  -13.4402  -44.3378 H         1 UNK         0.0600 
    172 H172       -3.5293  -12.7810  -42.8449 H         1 UNK         0.0600 
    173 H173       -3.3334  -11.9059  -44.3641 H         1 UNK         0.0600 
    174 H174       -1.1536  -12.0573  -43.0720 H         1 UNK         0.3000 
    175 H175        0.8586  -11.7435  -42.2451 H         1 UNK         0.0600 
    176 H176        3.0422  -13.7215  -43.0614 H         1 UNK         0.0600 
    177 H177        3.2091  -12.4530  -41.8534 H         1 UNK         0.0600 
    178 H178        2.0707  -13.7679  -41.6025 H         1 UNK         0.0600 
    179 H179        2.7929  -11.6380  -44.4717 H         1 UNK         0.3000 
    180 H180        1.3286   -9.2630  -46.1970 H         1 UNK         0.0600 
    181 H181        2.6986   -7.2105  -45.7306 H         1 UNK         0.0600 
    182 H182        2.8829   -7.7298  -44.0545 H         1 UNK         0.0600 
    183 H183        1.2928   -7.3462  -44.6885 H         1 UNK         0.0600 
    184 H184        3.1337  -10.2727  -46.8715 H         1 UNK         0.3000 
    185 H185        5.9007  -10.0184  -47.0246 H         1 UNK         0.0600 
    186 H186        7.4595  -11.7371  -46.0670 H         1 UNK         0.0600 
    187 H187        7.2878  -10.3407  -45.0165 H         1 UNK         0.0600 
    188 H188        6.4576  -11.8382  -44.6202 H         1 UNK         0.0600 
    189 H189        4.9297  -11.7554  -48.0023 H         1 UNK         0.3000 
    190 H190       -1.4189  -21.3981  -47.8716 H         1 UNK         0.3000 
    191 H191       -2.3710  -22.8512  -50.0896 H         1 UNK         0.0600 
    192 H192       -4.5028  -21.7009  -49.6280 H         1 UNK         0.0600 
    193 H193       -3.1798  -20.5824  -49.3626 H         1 UNK         0.0600 
    194 H194       -3.9992  -21.3208  -47.9895 H         1 UNK         0.0600 
    195 H195       -3.0221  -23.3335  -46.5891 H         1 UNK         0.3000 
    196 H196       -4.7756  -25.5525  -46.8491 H         1 UNK         0.0600 
    197 H197       -2.9279  -24.7420  -44.5442 H         1 UNK         0.0600 
    198 H198       -4.5930  -24.2163  -44.7787 H         1 UNK         0.0600 
    199 H199       -4.2453  -25.9037  -44.4321 H         1 UNK         0.0600 
    200 H200       -1.2019  -25.4096  -46.4916 H         1 UNK         0.3000 
    201 H201       -0.7648  -28.2217  -46.4013 H         1 UNK         0.0600 
    202 H202        1.1070  -25.9503  -47.2532 H         1 UNK         0.0600 
    203 H203        1.6060  -27.5925  -46.8672 H         1 UNK         0.0600 
    204 H204        0.9070  -26.5740  -45.6176 H         1 UNK         0.0600 
    205 H205       -0.8205  -25.9145  -49.1450 H         1 UNK         0.3000 
    206 H206       -0.1662  -27.8176  -51.1846 H         1 UNK         0.0600 
    207 H207        0.1351  -25.3660  -51.4559 H         1 UNK         0.0600 
    208 H208       -0.9310  -25.9887  -52.7071 H         1 UNK         0.0600 
    209 H209       -1.6064  -25.1151  -51.3371 H         1 UNK         0.0600 
    210 H210       -3.1445  -26.9449  -49.6200 H         1 UNK         0.3000 
    211 H211       -5.1708  -27.7677  -49.5055 H         1 UNK         0.0600 
    212 H212       -5.9386  -29.8197  -50.5912 H         1 UNK         0.0600 
    213 H213       -4.3061  -30.0945  -50.0080 H         1 UNK         0.0600 
    214 H214       -4.5999  -29.8068  -51.7238 H         1 UNK         0.0600 
    215 H215       -7.2429  -27.8018  -50.7356 H         1 UNK         0.3000 
    216 H216       -8.7808  -26.6129  -51.8061 H         1 UNK         0.0600 
    217 H217       -8.5551  -26.1853  -54.2250 H         1 UNK         0.0600 
    218 H218       -6.8245  -26.4799  -54.1643 H         1 UNK         0.0600 
    219 H219       -7.9563  -27.7929  -53.8465 H         1 UNK         0.0600 
    220 H220       -7.7696  -25.2517  -49.9471 H         1 UNK         0.3000 
    221 H221       -6.1514  -23.0251  -50.4805 H         1 UNK         0.0600 
    222 H222       -6.2663  -24.3296  -48.3340 H         1 UNK         0.0600 
    223 H223       -7.8509  -23.6368  -48.0072 H         1 UNK         0.0600 
    224 H224       -6.4267  -22.6044  -48.0636 H         1 UNK         0.0600 
    225 H225       -8.4302  -22.7206  -52.1634 H         1 UNK         0.3000 
    226 H226      -10.1123  -20.5252  -51.1538 H         1 UNK         0.0600 
    227 H227       -9.9207  -21.8838  -53.8945 H         1 UNK         0.0600 
    228 H228      -11.0880  -22.2592  -52.6285 H         1 UNK         0.0600 
    229 H229      -11.1307  -20.6939  -53.4236 H         1 UNK         0.0600 
    230 H230       -7.9122  -19.4850  -50.6520 H         1 UNK         0.3000 
    231 H231       -6.4323  -17.8355  -50.8678 H         1 UNK         0.0600 
    232 H232       -8.1827  -16.8046  -53.1643 H         1 UNK         0.0600 
    233 H233       -6.9820  -15.8786  -52.2758 H         1 UNK         0.0600 
    234 H234       -8.4227  -16.4554  -51.4534 H         1 UNK         0.0600 
    235 H235       -5.3744  -20.0062  -51.6869 H         1 UNK         0.3000 
    236 H236       -4.6598  -20.4470  -54.3202 H         1 UNK         0.0600 
    237 H237       -2.9732  -21.9977  -53.3766 H         1 UNK         0.0600 
    238 H238       -3.0849  -21.2136  -51.8095 H         1 UNK         0.0600 
    239 H239       -4.4650  -22.1074  -52.4573 H         1 UNK         0.0600 
    240 H240       -3.1227  -18.1881  -52.1026 H         1 UNK         0.3000 
    241 H241       -0.7891  -17.7141  -53.7846 H         1 UNK         0.0600 
    242 H242       -3.6854  -15.3625  -55.2673 H         1 UNK         0.3800 
    243 H243       -4.0818  -16.7543  -54.2929 H         1 UNK         0.3800 
    244 H244       -1.8537  -16.1959  -51.3617 H         1 UNK         0.0800 
    245 H245       -0.4002  -15.7492  -52.2033 H         1 UNK         0.0800 
    246 H246        1.4575  -18.5727  -52.6221 H         1 UNK         0.0800 
    247 H247        1.6333  -16.8526  -52.3948 H         1 UNK         0.0800 
@<TRIPOS>BOND
     1    1    2 1    
     2    1  127 1    
     3    1  128 1    
     4    1  129 1    
     5    2    3 2    
     6    2    4 am   BACKBONE|DICT|INTERRES
     7    4    5 1    
     8    4  130 1    
     9    5    6 1    
    10    5   65 1    
    11    5  131 1    
    12    6    7 1    
    13    6  132 1    
    14    6  133 1    
    15    7    8 1    
    16    8    9 1    
    17    8  134 1    
    18    8  135 1    
    19    9   10 ar   
    20    9   14 ar   
    21   10   11 ar   
    22   10  136 1    
    23   11   12 ar   
    24   11  126 1    
    25   12   13 ar   
    26   12  137 1    
    27   13   14 ar   
    28   13   15 1    
    29   14  138 1    
    30   15   16 1    
    31   15  139 1    
    32   15  140 1    
    33   16   17 1    
    34   17   18 1    
    35   17  141 1    
    36   17  142 1    
    37   18   19 1    
    38   18   67 1    
    39   18  143 1    
    40   19   20 am   BACKBONE|DICT|INTERRES
    41   19  144 1    
    42   20   21 2    
    43   20   22 1    
    44   22   23 1    
    45   22   24 1    
    46   22  145 1    
    47   23  146 1    
    48   23  147 1    
    49   23  148 1    
    50   24   25 am   BACKBONE|DICT|INTERRES
    51   24  149 1    
    52   25   26 2    
    53   25   27 1    
    54   27   28 1    
    55   27   29 1    
    56   27  150 1    
    57   28  151 1    
    58   28  152 1    
    59   28  153 1    
    60   29   30 am   BACKBONE|DICT|INTERRES
    61   29  154 1    
    62   30   31 2    
    63   30   32 1    
    64   32   33 1    
    65   32   34 1    
    66   32  155 1    
    67   33  156 1    
    68   33  157 1    
    69   33  158 1    
    70   34   35 am   BACKBONE|DICT|INTERRES
    71   34  159 1    
    72   35   36 2    
    73   35   37 1    
    74   37   38 1    
    75   37   39 1    
    76   37  160 1    
    77   38  161 1    
    78   38  162 1    
    79   38  163 1    
    80   39   40 am   BACKBONE|DICT|INTERRES
    81   39  164 1    
    82   40   41 2    
    83   40   42 1    
    84   42   43 1    
    85   42   44 1    
    86   42  165 1    
    87   43  166 1    
    88   43  167 1    
    89   43  168 1    
    90   44   45 am   BACKBONE|DICT|INTERRES
    91   44  169 1    
    92   45   46 2    
    93   45   47 1    
    94   47   48 1    
    95   47   49 1    
    96   47  170 1    
    97   48  171 1    
    98   48  172 1    
    99   48  173 1    
   100   49   50 am   BACKBONE|DICT|INTERRES
   101   49  174 1    
   102   50   51 2    
   103   50   52 1    
   104   52   53 1    
   105   52   54 1    
   106   52  175 1    
   107   53  176 1    
   108   53  177 1    
   109   53  178 1    
   110   54   55 am   BACKBONE|DICT|INTERRES
   111   54  179 1    
   112   55   56 2    
   113   55   57 1    
   114   57   58 1    
   115   57   59 1    
   116   57  180 1    
   117   58  181 1    
   118   58  182 1    
   119   58  183 1    
   120   59   60 am   BACKBONE|DICT|INTERRES
   121   59  184 1    
   122   60   61 2    
   123   60   62 1    
   124   62   63 1    
   125   62   64 1    
   126   62  185 1    
   127   63  186 1    
   128   63  187 1    
   129   63  188 1    
   130   64   65 am   BACKBONE|DICT|INTERRES
   131   64  189 1    
   132   65   66 2    
   133   67   68 2    
   134   67   69 am   BACKBONE|DICT|INTERRES
   135   69   70 1    
   136   69  190 1    
   137   70   71 1    
   138   70   72 1    
   139   70  191 1    
   140   71  192 1    
   141   71  193 1    
   142   71  194 1    
   143   72   73 2    
   144   72   74 am   BACKBONE|DICT|INTERRES
   145   74   75 1    
   146   74  195 1    
   147   75   76 1    
   148   75   77 1    
   149   75  196 1    
   150   76  197 1    
   151   76  198 1    
   152   76  199 1    
   153   77   78 2    
   154   77   79 am   BACKBONE|DICT|INTERRES
   155   79   80 1    
   156   79  200 1    
   157   80   81 1    
   158   80   82 1    
   159   80  201 1    
   160   81  202 1    
   161   81  203 1    
   162   81  204 1    
   163   82   83 2    
   164   82   84 am   BACKBONE|DICT|INTERRES
   165   84   85 1    
   166   84  205 1    
   167   85   86 1    
   168   85   87 1    
   169   85  206 1    
   170   86  207 1    
   171   86  208 1    
   172   86  209 1    
   173   87   88 2    
   174   87   89 am   BACKBONE|DICT|INTERRES
   175   89   90 1    
   176   89  210 1    
   177   90   91 1    
   178   90   92 1    
   179   90  211 1    
   180   91  212 1    
   181   91  213 1    
   182   91  214 1    
   183   92   93 2    
   184   92   94 am   BACKBONE|DICT|INTERRES
   185   94   95 1    
   186   94  215 1    
   187   95   96 1    
   188   95   97 1    
   189   95  216 1    
   190   96  217 1    
   191   96  218 1    
   192   96  219 1    
   193   97   98 2    
   194   97   99 am   BACKBONE|DICT|INTERRES
   195   99  100 1    
   196   99  220 1    
   197  100  101 1    
   198  100  102 1    
   199  100  221 1    
   200  101  222 1    
   201  101  223 1    
   202  101  224 1    
   203  102  103 2    
   204  102  104 am   BACKBONE|DICT|INTERRES
   205  104  105 1    
   206  104  225 1    
   207  105  106 1    
   208  105  107 1    
   209  105  226 1    
   210  106  227 1    
   211  106  228 1    
   212  106  229 1    
   213  107  108 2    
   214  107  109 am   BACKBONE|DICT|INTERRES
   215  109  110 1    
   216  109  230 1    
   217  110  111 1    
   218  110  112 1    
   219  110  231 1    
   220  111  232 1    
   221  111  233 1    
   222  111  234 1    
   223  112  113 2    
   224  112  114 am   BACKBONE|DICT|INTERRES
   225  114  115 1    
   226  114  235 1    
   227  115  116 1    
   228  115  117 1    
   229  115  236 1    
   230  116  237 1    
   231  116  238 1    
   232  116  239 1    
   233  117  118 2    
   234  117  119 am   BACKBONE|DICT|INTERRES
   235  119  120 1    
   236  119  240 1    
   237  120  121 1    
   238  120  124 1    
   239  120  241 1    
   240  121  122 am   BACKBONE|DICT|INTERRES
   241  121  123 2    
   242  122  242 1    
   243  122  243 1    
   244  124  125 1    
   245  124  244 1    
   246  124  245 1    
   247  125  126 1    
   248  126  246 1    
   249  126  247 1    
@<TRIPOS>SUBSTRUCTURE
     1 UNK         1 GROUP             0       ****    0 ROOT    
