@<TRIPOS>MOLECULE
3R540
247   249    1
SMALL
USER_CHARGES


@<TRIPOS>ATOM
      1 CA          1.7174  -14.2498  -40.6459 C.3       0 UNK        -0.1800 
      2 C           0.7090  -13.4205  -41.4281 C.2       0 UNK         0.5000 
      3 O           0.2879  -12.3618  -40.9612 O.2       0 UNK        -0.5000 
      4 N           0.3285  -13.8924  -42.6204 N.am      1 UNK        -0.5000 
      5 CA         -0.5803  -13.2145  -43.5483 C.3       1 UNK         0.1400 
      6 C6         -1.3089  -14.2219  -44.4706 C.3       23 UNK        -0.0398 
      7 S7         -2.5854  -15.1587  -43.5644 S.3       23 UNK        -0.2404 
      8 C8         -4.0884  -14.7657  -44.5175 C.3       23 UNK        -0.0205 
      9 C9         -4.2392  -15.6909  -45.7154 C.ar      23 UNK        -0.0193 
     10 C10        -3.7189  -15.3380  -46.9638 C.ar      23 UNK        -0.1150 
     11 C11        -3.8290  -16.2111  -48.0507 C.ar      23 UNK        -0.0193 
     12 C12        -4.4591  -17.4469  -47.8792 C.ar      23 UNK        -0.1150 
     13 C13        -5.0037  -17.8034  -46.6423 C.ar      23 UNK        -0.0193 
     14 C14        -4.8984  -16.9138  -45.5679 C.ar      23 UNK        -0.1150 
     15 C15        -5.6973  -19.1532  -46.4825 C.3       23 UNK        -0.0205 
     16 S16        -5.2385  -20.0474  -44.9580 S.3       23 UNK        -0.2404 
     17 C17        -3.4249  -20.1702  -45.1215 C.3       23 UNK        -0.0398 
     18 CA         -2.9681  -21.4520  -45.8540 C.3       11 UNK         0.1400 
     19 N          -1.6126  -21.3166  -46.4000 N.am      11 UNK        -0.5000 
     20 C          -0.9788  -22.2210  -47.1609 C.2       10 UNK         0.5000 
     21 O          -1.4915  -23.2745  -47.5338 O.2       10 UNK        -0.5000 
     22 CA          0.4877  -21.9313  -47.5250 C.3       10 UNK         0.1400 
     23 CB          0.5804  -20.9413  -48.6950 C.3       10 UNK        -0.1800 
     24 N           1.2414  -21.4360  -46.3724 N.am      10 UNK        -0.5000 
     25 C           1.4963  -22.1697  -45.2779 C.2       9 UNK         0.5000 
     26 O           1.2301  -23.3674  -45.1826 O.2       9 UNK        -0.5000 
     27 CA          2.0900  -21.4306  -44.0660 C.3       9 UNK         0.1400 
     28 CB          3.6248  -21.4075  -44.1251 C.3       9 UNK        -0.1800 
     29 N           1.5707  -20.0662  -43.9528 N.am      9 UNK        -0.5000 
     30 C           0.3166  -19.7699  -43.5814 C.2       8 UNK         0.5000 
     31 O          -0.5133  -20.6190  -43.2556 O.2       8 UNK        -0.5000 
     32 CA         -0.0922  -18.2849  -43.6232 C.3       8 UNK         0.1400 
     33 CB          0.2994  -17.5859  -42.3139 C.3       8 UNK        -0.1800 
     34 N           0.4900  -17.5717  -44.7635 N.am      8 UNK        -0.5000 
     35 C           0.1524  -17.8121  -46.0413 C.2       7 UNK         0.5000 
     36 O          -0.7252  -18.6082  -46.3665 O.2       7 UNK        -0.5000 
     37 CA          0.9681  -17.1147  -47.1504 C.3       7 UNK         0.1400 
     38 CB          0.2709  -15.8352  -47.6321 C.3       7 UNK        -0.1800 
     39 N           2.3381  -16.7960  -46.7554 N.am      7 UNK        -0.5000 
     40 C           3.2474  -17.6872  -46.3391 C.2       6 UNK         0.5000 
     41 O           3.0630  -18.9039  -46.3717 O.2       6 UNK        -0.5000 
     42 CA          4.5460  -17.1309  -45.7230 C.3       6 UNK         0.1400 
     43 CB          5.7239  -17.3293  -46.6877 C.3       6 UNK        -0.1800 
     44 N           4.4776  -15.7152  -45.3452 N.am      6 UNK        -0.5000 
     45 C           3.6508  -15.1539  -44.4525 C.2       5 UNK         0.5000 
     46 O           2.7825  -15.7717  -43.8327 O.2       5 UNK        -0.5000 
     47 CA          3.7569  -13.6278  -44.2924 C.3       5 UNK         0.1400 
     48 CB          5.0892  -13.1996  -43.6498 C.3       5 UNK        -0.1800 
     49 N           3.4876  -12.9098  -45.5440 N.am      5 UNK        -0.5000 
     50 C           4.2119  -12.8652  -46.6716 C.2       4 UNK         0.5000 
     51 O           5.2948  -13.4319  -46.8231 O.2       4 UNK        -0.5000 
     52 CA          3.6070  -12.0593  -47.8359 C.3       4 UNK         0.1400 
     53 CB          2.6007  -12.9193  -48.6160 C.3       4 UNK        -0.1800 
     54 N           2.9519  -10.8205  -47.4064 N.am      4 UNK        -0.5000 
     55 C           3.5906   -9.7648  -46.8816 C.2       3 UNK         0.5000 
     56 O           4.8064   -9.7324  -46.6911 O.2       3 UNK        -0.5000 
     57 CA          2.7452   -8.5303  -46.5061 C.3       3 UNK         0.1400 
     58 CB          3.0690   -7.3607  -47.4494 C.3       3 UNK        -0.1800 
     59 N           1.2965   -8.7628  -46.5455 N.am      3 UNK        -0.5000 
     60 C           0.5227   -9.3312  -45.6092 C.2       2 UNK         0.5000 
     61 O          -0.6961   -9.4194  -45.7642 O.2       2 UNK        -0.5000 
     62 CA          1.1521   -9.8550  -44.2949 C.3       2 UNK         0.1400 
     63 CB          1.1892   -8.7431  -43.2340 C.3       2 UNK        -0.1800 
     64 N           0.4221  -10.9941  -43.7374 N.am      2 UNK        -0.5000 
     65 C           0.2256  -12.1712  -44.3434 C.2       1 UNK         0.5000 
     66 O           0.7065  -12.4638  -45.4402 O.2       1 UNK        -0.5000 
     67 C          -3.1192  -22.7011  -44.9612 C.2       11 UNK         0.5000 
     68 O          -4.0868  -23.4457  -45.1210 O.2       11 UNK        -0.5000 
     69 N          -2.1238  -22.9530  -44.0984 N.am      12 UNK        -0.5000 
     70 CA         -2.0233  -24.1529  -43.2609 C.3       12 UNK         0.1400 
     71 CB         -0.8463  -23.9920  -42.2873 C.3       12 UNK        -0.1800 
     72 C          -1.8940  -25.4653  -44.0652 C.2       12 UNK         0.5000 
     73 O          -2.2708  -26.5228  -43.5601 O.2       12 UNK        -0.5000 
     74 N          -1.4107  -25.3688  -45.3105 N.am      13 UNK        -0.5000 
     75 CA         -1.3458  -26.4466  -46.2965 C.3       13 UNK         0.1400 
     76 CB         -0.0107  -26.3396  -47.0563 C.3       13 UNK        -0.1800 
     77 C          -2.5582  -26.4251  -47.2548 C.2       13 UNK         0.5000 
     78 O          -2.4484  -26.9197  -48.3766 O.2       13 UNK        -0.5000 
     79 N          -3.6867  -25.8448  -46.8167 N.am      14 UNK        -0.5000 
     80 CA         -4.9608  -25.7103  -47.5338 C.3       14 UNK         0.1400 
     81 CB         -5.5892  -27.0927  -47.8101 C.3       14 UNK        -0.1800 
     82 C          -4.8419  -24.8352  -48.7975 C.2       14 UNK         0.5000 
     83 O          -5.3386  -25.2065  -49.8609 O.2       14 UNK        -0.5000 
     84 N          -4.1496  -23.6966  -48.6558 N.am      15 UNK        -0.5000 
     85 CA         -3.7937  -22.7356  -49.7078 C.3       15 UNK         0.1400 
     86 CB         -5.0438  -22.0283  -50.2604 C.3       15 UNK        -0.1800 
     87 C          -2.9162  -23.3887  -50.7949 C.2       15 UNK         0.5000 
     88 O          -3.1800  -23.2391  -51.9928 O.2       15 UNK        -0.5000 
     89 N          -1.9073  -24.1330  -50.3159 N.am      16 UNK        -0.5000 
     90 CA         -0.9828  -24.9931  -51.0572 C.3       16 UNK         0.1400 
     91 CB         -0.0317  -24.1428  -51.9230 C.3       16 UNK        -0.1800 
     92 C          -1.7343  -26.0702  -51.8638 C.2       16 UNK         0.5000 
     93 O          -1.5841  -26.1449  -53.0823 O.2       16 UNK        -0.5000 
     94 N          -2.5842  -26.8438  -51.1721 N.am      17 UNK        -0.5000 
     95 CA         -3.5024  -27.8554  -51.7141 C.3       17 UNK         0.1400 
     96 CB         -2.7146  -29.0922  -52.1920 C.3       17 UNK        -0.1800 
     97 C          -4.4464  -27.2861  -52.7979 C.2       17 UNK         0.5000 
     98 O          -4.7093  -27.9428  -53.8068 O.2       17 UNK        -0.5000 
     99 N          -4.8950  -26.0435  -52.5730 N.am      18 UNK        -0.5000 
    100 CA        -5.6816  -25.1797  -53.4550 C.3       18 UNK         0.1400 
    101 CB        -7.0892  -25.7681  -53.6795 C.3       18 UNK        -0.1800 
    102 C         -4.9843  -24.7953  -54.7801 C.2       18 UNK         0.5000 
    103 O         -5.6539  -24.2720  -55.6720 O.2       18 UNK        -0.5000 
    104 N         -3.6687  -25.0313  -54.9058 N.am      19 UNK        -0.5000 
    105 CA        -2.8927  -24.6716  -56.0940 C.3       19 UNK         0.1400 
    106 CB        -1.6300  -25.5410  -56.1885 C.3       19 UNK        -0.1800 
    107 C         -2.5228  -23.1797  -56.1100 C.2       19 UNK         0.5000 
    108 O         -2.4648  -22.5906  -57.1904 O.2       19 UNK        -0.5000 
    109 N         -2.2899  -22.5917  -54.9267 N.am      20 UNK        -0.5000 
    110 CA        -2.0524  -21.1566  -54.7769 C.3       20 UNK         0.1400 
    111 CB        -1.1643  -20.8829  -53.5519 C.3       20 UNK        -0.1800 
    112 C         -3.3857  -20.4039  -54.6733 C.2       20 UNK         0.5000 
    113 O         -3.5685  -19.3959  -55.3574 O.2       20 UNK        -0.5000 
    114 N         -4.2879  -20.9061  -53.8122 N.am      21 UNK        -0.5000 
    115 CA        -5.6632  -20.4287  -53.5810 C.3       21 UNK         0.1400 
    116 CB        -6.5274  -20.6945  -54.8304 C.3       21 UNK        -0.1800 
    117 C         -5.7794  -18.9566  -53.1124 C.2       21 UNK         0.5000 
    118 O         -6.8765  -18.3970  -53.1380 O.2       21 UNK        -0.5000 
    119 N         -4.6525  -18.3486  -52.7149 N.am      22 UNK        -0.5000 
    120 CA        -4.4786  -16.9003  -52.5143 C.3       22 UNK         0.1400 
    121 C         -4.6399  -16.0551  -53.8207 C.2       22 UNK         0.5000 
    122 N         -4.4250  -16.6266  -55.0011 N.am      22 UNK        -0.7600 
    123 O         -4.9433  -14.8662  -53.7773 O.2       22 UNK        -0.5000 
    124 C124       -5.2873  -16.3630  -51.2975 C.3       23 UNK        -0.0398 
    125 S125       -4.4554  -14.9700  -50.4567 S.3       23 UNK        -0.2404 
    126 C126       -3.2438  -15.8259  -49.4008 C.3       23 UNK        -0.0205 
    127 H127        1.2915  -14.5549  -39.6902 H         1 UNK         0.0600 
    128 H128        2.6142  -13.6621  -40.4501 H         1 UNK         0.0600 
    129 H129        2.0130  -15.1479  -41.1885 H         1 UNK         0.0600 
    130 H130        0.7437  -14.7483  -42.9612 H         1 UNK         0.3000 
    131 H131       -1.3419  -12.6735  -42.9817 H         1 UNK         0.0600 
    132 H132       -1.7707  -13.7063  -45.3135 H         1 UNK         0.0800 
    133 H133       -0.6035  -14.9324  -44.8979 H         1 UNK         0.0800 
    134 H134       -4.9536  -14.8747  -43.8618 H         1 UNK         0.0800 
    135 H135       -4.0810  -13.7209  -44.8315 H         1 UNK         0.0800 
    136 H136       -3.2207  -14.3875  -47.0903 H         1 UNK         0.1150 
    137 H137       -4.5264  -18.1333  -48.7108 H         1 UNK         0.1150 
    138 H138       -5.3094  -17.1835  -44.6053 H         1 UNK         0.1150 
    139 H139       -6.7757  -18.9913  -46.4821 H         1 UNK         0.0800 
    140 H140       -5.4831  -19.7982  -47.3361 H         1 UNK         0.0800 
    141 H141       -2.9834  -20.1050  -44.1263 H         1 UNK         0.0800 
    142 H142       -3.0672  -19.2893  -45.6511 H         1 UNK         0.0800 
    143 H143       -3.6229  -21.5898  -46.7160 H         1 UNK         0.0600 
    144 H144       -1.1415  -20.4368  -46.2053 H         1 UNK         0.3000 
    145 H145        0.9434  -22.8711  -47.8444 H         1 UNK         0.0600 
    146 H146        1.6184  -20.7264  -48.9498 H         1 UNK         0.0600 
    147 H147        0.1043  -21.3518  -49.5865 H         1 UNK         0.0600 
    148 H148        0.0870  -19.9966  -48.4708 H         1 UNK         0.0600 
    149 H149        1.5431  -20.4694  -46.3884 H         1 UNK         0.3000 
    150 H150        1.7993  -21.9795  -43.1677 H         1 UNK         0.0600 
    151 H151        4.0258  -22.4218  -44.1250 H         1 UNK         0.0600 
    152 H152        4.0458  -20.8921  -43.2617 H         1 UNK         0.0600 
    153 H153        3.9935  -20.9142  -45.0240 H         1 UNK         0.0600 
    154 H154        2.1766  -19.3237  -44.2716 H         1 UNK         0.3000 
    155 H155       -1.1798  -18.2428  -43.7152 H         1 UNK         0.0600 
    156 H156       -0.0913  -18.1261  -41.4506 H         1 UNK         0.0600 
    157 H157       -0.1111  -16.5791  -42.2702 H         1 UNK         0.0600 
    158 H158        1.3816  -17.5193  -42.1972 H         1 UNK         0.0600 
    159 H159        1.2518  -16.9329  -44.5628 H         1 UNK         0.3000 
    160 H160        1.0189  -17.8081  -47.9916 H         1 UNK         0.0600 
    161 H161        0.3930  -15.0128  -46.9283 H         1 UNK         0.0600 
    162 H162       -0.7976  -16.0004  -47.7648 H         1 UNK         0.0600 
    163 H163        0.6718  -15.5103  -48.5922 H         1 UNK         0.0600 
    164 H164        2.5764  -15.8184  -46.6904 H         1 UNK         0.3000 
    165 H165        4.7417  -17.7056  -44.8157 H         1 UNK         0.0600 
    166 H166        6.6649  -17.0258  -46.2286 H         1 UNK         0.0600 
    167 H167        5.8259  -18.3774  -46.9728 H         1 UNK         0.0600 
    168 H168        5.5945  -16.7497  -47.6027 H         1 UNK         0.0600 
    169 H169        5.0894  -15.0836  -45.8554 H         1 UNK         0.3000 
    170 H170        2.9661  -13.3284  -43.6050 H         1 UNK         0.0600 
    171 H171        5.9516  -13.4751  -44.2570 H         1 UNK         0.0600 
    172 H172        5.1203  -12.1208  -43.4966 H         1 UNK         0.0600 
    173 H173        5.2162  -13.6703  -42.6742 H         1 UNK         0.0600 
    174 H174        2.5599  -12.4948  -45.5894 H         1 UNK         0.3000 
    175 H175        4.4232  -11.7941  -48.5113 H         1 UNK         0.0600 
    176 H176        1.7248  -13.1594  -48.0126 H         1 UNK         0.0600 
    177 H177        2.2566  -12.4051  -49.5134 H         1 UNK         0.0600 
    178 H178        3.0505  -13.8608  -48.9345 H         1 UNK         0.0600 
    179 H179        1.9500  -10.7704  -47.5243 H         1 UNK         0.3000 
    180 H180        3.0394   -8.2280  -45.5005 H         1 UNK         0.0600 
    181 H181        2.8071   -7.5918  -48.4828 H         1 UNK         0.0600 
    182 H182        4.1326   -7.1194  -47.4270 H         1 UNK         0.0600 
    183 H183        2.5289   -6.4590  -47.1597 H         1 UNK         0.0600 
    184 H184        0.8402   -8.4317  -47.3829 H         1 UNK         0.3000 
    185 H185        2.1695  -10.1996  -44.4781 H         1 UNK         0.0600 
    186 H186        1.7348   -7.8684  -43.5884 H         1 UNK         0.0600 
    187 H187        0.1847   -8.4119  -42.9672 H         1 UNK         0.0600 
    188 H188        1.6821   -9.0837  -42.3231 H         1 UNK         0.0600 
    189 H189        0.0346  -10.8670  -42.8119 H         1 UNK         0.3000 
    190 H190       -1.3874  -22.2621  -43.9902 H         1 UNK         0.3000 
    191 H191       -2.9416  -24.2213  -42.6743 H         1 UNK         0.0600 
    192 H192        0.1055  -23.9255  -42.8138 H         1 UNK         0.0600 
    193 H193       -0.9562  -23.0940  -41.6790 H         1 UNK         0.0600 
    194 H194       -0.7846  -24.8414  -41.6059 H         1 UNK         0.0600 
    195 H195       -1.1364  -24.4551  -45.6485 H         1 UNK         0.3000 
    196 H196       -1.3620  -27.4124  -45.7881 H         1 UNK         0.0600 
    197 H197        0.8343  -26.3440  -46.3676 H         1 UNK         0.0600 
    198 H198        0.0480  -25.4257  -47.6471 H         1 UNK         0.0600 
    199 H199        0.1238  -27.1804  -47.7378 H         1 UNK         0.0600 
    200 H200       -3.6623  -25.3932  -45.9103 H         1 UNK         0.3000 
    201 H201       -5.6329  -25.1759  -46.8609 H         1 UNK         0.0600 
    202 H202       -6.5908  -26.9884  -48.2289 H         1 UNK         0.0600 
    203 H203       -5.6812  -27.6737  -46.8925 H         1 UNK         0.0600 
    204 H204       -5.0005  -27.6757  -48.5184 H         1 UNK         0.0600 
    205 H205       -3.6977  -23.5457  -47.7636 H         1 UNK         0.3000 
    206 H206       -3.1776  -21.9698  -49.2362 H         1 UNK         0.0600 
    207 H207       -5.6664  -21.6403  -49.4544 H         1 UNK         0.0600 
    208 H208       -5.6571  -22.6944  -50.8678 H         1 UNK         0.0600 
    209 H209       -4.7523  -21.1793  -50.8772 H         1 UNK         0.0600 
    210 H210       -1.8009  -24.1513  -49.3066 H         1 UNK         0.3000 
    211 H211       -0.3803  -25.5191  -50.3152 H         1 UNK         0.0600 
    212 H212        0.4767  -23.3857  -51.3262 H         1 UNK         0.0600 
    213 H213        0.7357  -24.7660  -52.3831 H         1 UNK         0.0600 
    214 H214       -0.5628  -23.6361  -52.7278 H         1 UNK         0.0600 
    215 H215       -2.6168  -26.7320  -50.1594 H         1 UNK         0.3000 
    216 H216       -4.1402  -28.1658  -50.8855 H         1 UNK         0.0600 
    217 H217       -3.3893  -29.8972  -52.4853 H         1 UNK         0.0600 
    218 H218       -2.0846  -28.8623  -53.0520 H         1 UNK         0.0600 
    219 H219       -2.0734  -29.4796  -51.4003 H         1 UNK         0.0600 
    220 H220       -4.6723  -25.6287  -51.6728 H         1 UNK         0.3000 
    221 H221       -5.8036  -24.2437  -52.9084 H         1 UNK         0.0600 
    222 H222       -7.0569  -26.6770  -54.2807 H         1 UNK         0.0600 
    223 H223       -7.5706  -26.0084  -52.7314 H         1 UNK         0.0600 
    224 H224       -7.7345  -25.0573  -54.1970 H         1 UNK         0.0600 
    225 H225       -3.1575  -25.4620  -54.1416 H         1 UNK         0.3000 
    226 H226       -3.4984  -24.8775  -56.9793 H         1 UNK         0.0600 
    227 H227       -1.8681  -26.6006  -56.0927 H         1 UNK         0.0600 
    228 H228       -1.1379  -25.4021  -57.1518 H         1 UNK         0.0600 
    229 H229       -0.9032  -25.2865  -55.4168 H         1 UNK         0.0600 
    230 H230       -2.3986  -23.1330  -54.0773 H         1 UNK         0.3000 
    231 H231       -1.5216  -20.7803  -55.6542 H         1 UNK         0.0600 
    232 H232       -0.9657  -19.8155  -53.4487 H         1 UNK         0.0600 
    233 H233       -0.1996  -21.3809  -53.6487 H         1 UNK         0.0600 
    234 H234       -1.6231  -21.2191  -52.6229 H         1 UNK         0.0600 
    235 H235       -4.0142  -21.7220  -53.2756 H         1 UNK         0.3000 
    236 H236       -6.0735  -21.0373  -52.7760 H         1 UNK         0.0600 
    237 H237       -6.4609  -21.7365  -55.1413 H         1 UNK         0.0600 
    238 H238       -7.5797  -20.4853  -54.6350 H         1 UNK         0.0600 
    239 H239       -6.2220  -20.0737  -55.6733 H         1 UNK         0.0600 
    240 H240       -3.8024  -18.8911  -52.7348 H         1 UNK         0.3000 
    241 H241       -3.4207  -16.8012  -52.2711 H         1 UNK         0.0600 
    242 H242       -4.5244  -16.0763  -55.8392 H         1 UNK         0.3800 
    243 H243       -4.1576  -17.6049  -55.0754 H         1 UNK         0.3800 
    244 H244       -6.2852  -16.0474  -51.6060 H         1 UNK         0.0800 
    245 H245       -5.4493  -17.1536  -50.5663 H         1 UNK         0.0800 
    246 H246       -2.8488  -16.7068  -49.9084 H         1 UNK         0.0800 
    247 H247       -2.3948  -15.1569  -49.2564 H         1 UNK         0.0800 
@<TRIPOS>BOND
     1    1    2 1    
     2    1  127 1    
     3    1  128 1    
     4    1  129 1    
     5    2    3 2    
     6    2    4 am   BACKBONE|DICT|INTERRES
     7    4    5 1    
     8    4  130 1    
     9    5    6 1    
    10    5   65 1    
    11    5  131 1    
    12    6    7 1    
    13    6  132 1    
    14    6  133 1    
    15    7    8 1    
    16    8    9 1    
    17    8  134 1    
    18    8  135 1    
    19    9   10 ar   
    20    9   14 ar   
    21   10   11 ar   
    22   10  136 1    
    23   11   12 ar   
    24   11  126 1    
    25   12   13 ar   
    26   12  137 1    
    27   13   14 ar   
    28   13   15 1    
    29   14  138 1    
    30   15   16 1    
    31   15  139 1    
    32   15  140 1    
    33   16   17 1    
    34   17   18 1    
    35   17  141 1    
    36   17  142 1    
    37   18   19 1    
    38   18   67 1    
    39   18  143 1    
    40   19   20 am   BACKBONE|DICT|INTERRES
    41   19  144 1    
    42   20   21 2    
    43   20   22 1    
    44   22   23 1    
    45   22   24 1    
    46   22  145 1    
    47   23  146 1    
    48   23  147 1    
    49   23  148 1    
    50   24   25 am   BACKBONE|DICT|INTERRES
    51   24  149 1    
    52   25   26 2    
    53   25   27 1    
    54   27   28 1    
    55   27   29 1    
    56   27  150 1    
    57   28  151 1    
    58   28  152 1    
    59   28  153 1    
    60   29   30 am   BACKBONE|DICT|INTERRES
    61   29  154 1    
    62   30   31 2    
    63   30   32 1    
    64   32   33 1    
    65   32   34 1    
    66   32  155 1    
    67   33  156 1    
    68   33  157 1    
    69   33  158 1    
    70   34   35 am   BACKBONE|DICT|INTERRES
    71   34  159 1    
    72   35   36 2    
    73   35   37 1    
    74   37   38 1    
    75   37   39 1    
    76   37  160 1    
    77   38  161 1    
    78   38  162 1    
    79   38  163 1    
    80   39   40 am   BACKBONE|DICT|INTERRES
    81   39  164 1    
    82   40   41 2    
    83   40   42 1    
    84   42   43 1    
    85   42   44 1    
    86   42  165 1    
    87   43  166 1    
    88   43  167 1    
    89   43  168 1    
    90   44   45 am   BACKBONE|DICT|INTERRES
    91   44  169 1    
    92   45   46 2    
    93   45   47 1    
    94   47   48 1    
    95   47   49 1    
    96   47  170 1    
    97   48  171 1    
    98   48  172 1    
    99   48  173 1    
   100   49   50 am   BACKBONE|DICT|INTERRES
   101   49  174 1    
   102   50   51 2    
   103   50   52 1    
   104   52   53 1    
   105   52   54 1    
   106   52  175 1    
   107   53  176 1    
   108   53  177 1    
   109   53  178 1    
   110   54   55 am   BACKBONE|DICT|INTERRES
   111   54  179 1    
   112   55   56 2    
   113   55   57 1    
   114   57   58 1    
   115   57   59 1    
   116   57  180 1    
   117   58  181 1    
   118   58  182 1    
   119   58  183 1    
   120   59   60 am   BACKBONE|DICT|INTERRES
   121   59  184 1    
   122   60   61 2    
   123   60   62 1    
   124   62   63 1    
   125   62   64 1    
   126   62  185 1    
   127   63  186 1    
   128   63  187 1    
   129   63  188 1    
   130   64   65 am   BACKBONE|DICT|INTERRES
   131   64  189 1    
   132   65   66 2    
   133   67   68 2    
   134   67   69 am   BACKBONE|DICT|INTERRES
   135   69   70 1    
   136   69  190 1    
   137   70   71 1    
   138   70   72 1    
   139   70  191 1    
   140   71  192 1    
   141   71  193 1    
   142   71  194 1    
   143   72   73 2    
   144   72   74 am   BACKBONE|DICT|INTERRES
   145   74   75 1    
   146   74  195 1    
   147   75   76 1    
   148   75   77 1    
   149   75  196 1    
   150   76  197 1    
   151   76  198 1    
   152   76  199 1    
   153   77   78 2    
   154   77   79 am   BACKBONE|DICT|INTERRES
   155   79   80 1    
   156   79  200 1    
   157   80   81 1    
   158   80   82 1    
   159   80  201 1    
   160   81  202 1    
   161   81  203 1    
   162   81  204 1    
   163   82   83 2    
   164   82   84 am   BACKBONE|DICT|INTERRES
   165   84   85 1    
   166   84  205 1    
   167   85   86 1    
   168   85   87 1    
   169   85  206 1    
   170   86  207 1    
   171   86  208 1    
   172   86  209 1    
   173   87   88 2    
   174   87   89 am   BACKBONE|DICT|INTERRES
   175   89   90 1    
   176   89  210 1    
   177   90   91 1    
   178   90   92 1    
   179   90  211 1    
   180   91  212 1    
   181   91  213 1    
   182   91  214 1    
   183   92   93 2    
   184   92   94 am   BACKBONE|DICT|INTERRES
   185   94   95 1    
   186   94  215 1    
   187   95   96 1    
   188   95   97 1    
   189   95  216 1    
   190   96  217 1    
   191   96  218 1    
   192   96  219 1    
   193   97   98 2    
   194   97   99 am   BACKBONE|DICT|INTERRES
   195   99  100 1    
   196   99  220 1    
   197  100  101 1    
   198  100  102 1    
   199  100  221 1    
   200  101  222 1    
   201  101  223 1    
   202  101  224 1    
   203  102  103 2    
   204  102  104 am   BACKBONE|DICT|INTERRES
   205  104  105 1    
   206  104  225 1    
   207  105  106 1    
   208  105  107 1    
   209  105  226 1    
   210  106  227 1    
   211  106  228 1    
   212  106  229 1    
   213  107  108 2    
   214  107  109 am   BACKBONE|DICT|INTERRES
   215  109  110 1    
   216  109  230 1    
   217  110  111 1    
   218  110  112 1    
   219  110  231 1    
   220  111  232 1    
   221  111  233 1    
   222  111  234 1    
   223  112  113 2    
   224  112  114 am   BACKBONE|DICT|INTERRES
   225  114  115 1    
   226  114  235 1    
   227  115  116 1    
   228  115  117 1    
   229  115  236 1    
   230  116  237 1    
   231  116  238 1    
   232  116  239 1    
   233  117  118 2    
   234  117  119 am   BACKBONE|DICT|INTERRES
   235  119  120 1    
   236  119  240 1    
   237  120  121 1    
   238  120  124 1    
   239  120  241 1    
   240  121  122 am   BACKBONE|DICT|INTERRES
   241  121  123 2    
   242  122  242 1    
   243  122  243 1    
   244  124  125 1    
   245  124  244 1    
   246  124  245 1    
   247  125  126 1    
   248  126  246 1    
   249  126  247 1    
@<TRIPOS>SUBSTRUCTURE
     1 UNK         1 GROUP             0       ****    0 ROOT    
