@<TRIPOS>MOLECULE
3R540
247   249    1
SMALL
USER_CHARGES


@<TRIPOS>ATOM
      1 CA          7.0735  -12.8654  -45.0243 C.3       0 UNK        -0.1800 
      2 C           5.7341  -13.1961  -45.6682 C.2       0 UNK         0.5000 
      3 O           4.6938  -13.0428  -45.0283 O.2       0 UNK        -0.5000 
      4 N           5.7589  -13.6553  -46.9256 N.am      1 UNK        -0.5000 
      5 CA          4.5749  -13.9615  -47.7323 C.3       1 UNK         0.1400 
      6 C6          4.9628  -14.7911  -48.9837 C.3       23 UNK        -0.0398 
      7 S7          3.5276  -15.4635  -49.8897 S.3       23 UNK        -0.2404 
      8 C8          3.2188  -16.9685  -48.9235 C.3       23 UNK        -0.0205 
      9 C9          1.8787  -17.5964  -49.2649 C.ar      23 UNK        -0.0193 
     10 C10         0.6932  -16.9676  -48.8760 C.ar      23 UNK        -0.1150 
     11 C11        -0.5403  -17.5967  -49.0615 C.ar      23 UNK        -0.0193 
     12 C12        -0.5844  -18.8471  -49.6833 C.ar      23 UNK        -0.1150 
     13 C13         0.5912  -19.4679  -50.1144 C.ar      23 UNK        -0.0193 
     14 C14         1.8204  -18.8364  -49.9042 C.ar      23 UNK        -0.1150 
     15 C15         0.5379  -20.8314  -50.7859 C.3       23 UNK        -0.0205 
     16 S16         1.3836  -22.1118  -49.8018 S.3       23 UNK        -0.2404 
     17 C17         0.3832  -22.1253  -48.2779 C.3       23 UNK        -0.0398 
     18 CA          0.3859  -23.5167  -47.6037 C.3       11 UNK         0.1400 
     19 N           1.7105  -23.9092  -47.1178 N.am      11 UNK        -0.5000 
     20 C           2.1251  -25.1768  -46.9926 C.2       10 UNK         0.5000 
     21 O           1.4399  -26.1539  -47.2945 O.2       10 UNK        -0.5000 
     22 CA          3.5401  -25.3934  -46.4223 C.3       10 UNK         0.1400 
     23 CB          4.5808  -25.3832  -47.5521 C.3       10 UNK        -0.1800 
     24 N           3.9150  -24.3976  -45.4170 N.am      10 UNK        -0.5000 
     25 C           3.3523  -24.2949  -44.2053 C.2       9 UNK         0.5000 
     26 O           2.4690  -25.0478  -43.7951 O.2       9 UNK        -0.5000 
     27 CA          3.8259  -23.1246  -43.3198 C.3       9 UNK         0.1400 
     28 CB          5.0619  -23.5356  -42.5057 C.3       9 UNK        -0.1800 
     29 N           4.1156  -21.8791  -44.0436 N.am      9 UNK        -0.5000 
     30 C           3.2622  -21.2421  -44.8558 C.2       8 UNK         0.5000 
     31 O           2.1672  -21.7018  -45.1907 O.2       8 UNK        -0.5000 
     32 CA          3.7136  -19.8827  -45.4211 C.3       8 UNK         0.1400 
     33 CB          4.5786  -20.0846  -46.6747 C.3       8 UNK        -0.1800 
     34 N           2.5425  -19.0918  -45.7889 N.am      8 UNK        -0.5000 
     35 C           1.7243  -18.4956  -44.9137 C.2       7 UNK         0.5000 
     36 O           1.9852  -18.3153  -43.7220 O.2       7 UNK        -0.5000 
     37 CA          0.3442  -18.1278  -45.4718 C.3       7 UNK         0.1400 
     38 CB         -0.6505  -19.2803  -45.2776 C.3       7 UNK        -0.1800 
     39 N          -0.2312  -16.9186  -44.9003 N.am      7 UNK        -0.5000 
     40 C           0.1732  -15.6662  -45.1369 C.2       6 UNK         0.5000 
     41 O           1.1823  -15.3781  -45.7835 O.2       6 UNK        -0.5000 
     42 CA         -0.7845  -14.5663  -44.6258 C.3       6 UNK         0.1400 
     43 CB         -0.2378  -13.1457  -44.8361 C.3       6 UNK        -0.1800 
     44 N          -2.0894  -14.6791  -45.2888 N.am      6 UNK        -0.5000 
     45 C          -3.0417  -15.5664  -44.9651 C.2       5 UNK         0.5000 
     46 O          -2.9560  -16.3078  -43.9841 O.2       5 UNK        -0.5000 
     47 CA         -4.2385  -15.7168  -45.9274 C.3       5 UNK         0.1400 
     48 CB         -5.5263  -16.1853  -45.2174 C.3       5 UNK        -0.1800 
     49 N          -4.4938  -14.5522  -46.7815 N.am      5 UNK        -0.5000 
     50 C          -4.9276  -13.3440  -46.3968 C.2       4 UNK         0.5000 
     51 O          -5.0933  -13.0107  -45.2222 O.2       4 UNK        -0.5000 
     52 CA         -5.2437  -12.3616  -47.5435 C.3       4 UNK         0.1400 
     53 CB         -5.5988  -10.9412  -47.0531 C.3       4 UNK        -0.1800 
     54 N          -4.1928  -12.3204  -48.5687 N.am      4 UNK        -0.5000 
     55 C          -2.9299  -11.9013  -48.4057 C.2       3 UNK         0.5000 
     56 O          -2.4691  -11.5198  -47.3268 O.2       3 UNK        -0.5000 
     57 CA         -2.0604  -11.8738  -49.6826 C.3       3 UNK         0.1400 
     58 CB         -2.6190  -10.8718  -50.7085 C.3       3 UNK        -0.1800 
     59 N          -0.6715  -11.5103  -49.4017 N.am      3 UNK        -0.5000 
     60 C           0.2145  -12.3022  -48.7895 C.2       2 UNK         0.5000 
     61 O          -0.0112  -13.4732  -48.4739 O.2       2 UNK        -0.5000 
     62 CA          1.5771  -11.6678  -48.4724 C.3       2 UNK         0.1400 
     63 CB          1.4700  -10.5860  -47.3797 C.3       2 UNK        -0.1800 
     64 N           2.4911  -12.7187  -48.0473 N.am      2 UNK        -0.5000 
     65 C           3.8234  -12.6679  -48.1124 C.2       1 UNK         0.5000 
     66 O           4.4580  -11.6761  -48.4828 O.2       1 UNK        -0.5000 
     67 C          -0.6492  -23.5738  -46.4680 C.2       11 UNK         0.5000 
     68 O          -1.7790  -23.9927  -46.7104 O.2       11 UNK        -0.5000 
     69 N          -0.2426  -23.1825  -45.2509 N.am      12 UNK        -0.5000 
     70 CA         -1.0509  -23.2079  -44.0276 C.3       12 UNK         0.1400 
     71 CB         -0.2671  -22.5212  -42.8997 C.3       12 UNK        -0.1800 
     72 C          -1.4802  -24.6243  -43.5993 C.2       12 UNK         0.5000 
     73 O          -2.5222  -24.7793  -42.9625 O.2       12 UNK        -0.5000 
     74 N          -0.6816  -25.6310  -43.9742 N.am      13 UNK        -0.5000 
     75 CA         -0.9576  -27.0528  -43.7721 C.3       13 UNK         0.1400 
     76 CB          0.3700  -27.8201  -43.8864 C.3       13 UNK        -0.1800 
     77 C          -2.0043  -27.6320  -44.7503 C.2       13 UNK         0.5000 
     78 O          -2.3769  -28.7968  -44.5987 O.2       13 UNK        -0.5000 
     79 N          -2.4433  -26.8446  -45.7399 N.am      14 UNK        -0.5000 
     80 CA         -3.3617  -27.2427  -46.8020 C.3       14 UNK         0.1400 
     81 CB         -2.5371  -27.4447  -48.0885 C.3       14 UNK        -0.1800 
     82 C          -4.4588  -26.1791  -46.9915 C.2       14 UNK         0.5000 
     83 O          -4.5243  -25.2009  -46.2441 O.2       14 UNK        -0.5000 
     84 N          -5.2995  -26.3768  -48.0159 N.am      15 UNK        -0.5000 
     85 CA         -6.2991  -25.4037  -48.4702 C.3       15 UNK         0.1400 
     86 CB         -7.3312  -26.1229  -49.3520 C.3       15 UNK        -0.1800 
     87 C          -5.6799  -24.2145  -49.2343 C.2       15 UNK         0.5000 
     88 O          -6.3560  -23.2046  -49.4314 O.2       15 UNK        -0.5000 
     89 N          -4.4078  -24.3444  -49.6413 N.am      16 UNK        -0.5000 
     90 CA         -3.6208  -23.3707  -50.4033 C.3       16 UNK         0.1400 
     91 CB         -2.2194  -23.9503  -50.6374 C.3       16 UNK        -0.1800 
     92 C          -3.5332  -21.9682  -49.7703 C.2       16 UNK         0.5000 
     93 O          -3.3821  -20.9898  -50.4988 O.2       16 UNK        -0.5000 
     94 N          -3.6589  -21.8897  -48.4388 N.am      17 UNK        -0.5000 
     95 CA         -3.7555  -20.6409  -47.6841 C.3       17 UNK         0.1400 
     96 CB         -3.6854  -20.9606  -46.1855 C.3       17 UNK        -0.1800 
     97 C          -5.0238  -19.8188  -47.9913 C.2       17 UNK         0.5000 
     98 O          -4.9766  -18.5927  -47.9038 O.2       17 UNK        -0.5000 
     99 N          -6.1278  -20.4986  -48.3259 N.am      18 UNK        -0.5000 
    100 CA        -7.4143  -19.8813  -48.6498 C.3       18 UNK         0.1400 
    101 CB        -8.5322  -20.6832  -47.9646 C.3       18 UNK        -0.1800 
    102 C         -7.6564  -19.8209  -50.1678 C.2       18 UNK         0.5000 
    103 O         -8.3348  -18.9051  -50.6357 O.2       18 UNK        -0.5000 
    104 N         -7.1237  -20.8048  -50.9037 N.am      19 UNK        -0.5000 
    105 CA        -7.2509  -20.9424  -52.3528 C.3       19 UNK         0.1400 
    106 CB        -6.8855  -22.3872  -52.7367 C.3       19 UNK        -0.1800 
    107 C         -6.4002  -19.9246  -53.1423 C.2       19 UNK         0.5000 
    108 O         -5.6382  -19.1423  -52.5671 O.2       19 UNK        -0.5000 
    109 N         -6.5286  -19.9894  -54.4754 N.am      20 UNK        -0.5000 
    110 CA        -5.8760  -19.1227  -55.4635 C.3       20 UNK         0.1400 
    111 CB        -6.3830  -19.5039  -56.8631 C.3       20 UNK        -0.1800 
    112 C         -4.3332  -19.1230  -55.4339 C.2       20 UNK         0.5000 
    113 O         -3.7267  -18.1980  -55.9751 O.2       20 UNK        -0.5000 
    114 N         -3.7198  -20.1174  -54.7755 N.am      21 UNK        -0.5000 
    115 CA        -2.2811  -20.1916  -54.5015 C.3       21 UNK         0.1400 
    116 CB        -1.9678  -21.5338  -53.8237 C.3       21 UNK        -0.1800 
    117 C         -1.7442  -19.0109  -53.6617 C.2       21 UNK         0.5000 
    118 O         -0.5649  -18.6790  -53.7835 O.2       21 UNK        -0.5000 
    119 N         -2.6190  -18.3751  -52.8694 N.am      22 UNK        -0.5000 
    120 CA        -2.3577  -17.0994  -52.1847 C.3       22 UNK         0.1400 
    121 C         -2.4121  -15.8462  -53.1184 C.2       22 UNK         0.5000 
    122 N         -2.8084  -15.9545  -54.3816 N.am      22 UNK        -0.7600 
    123 O         -2.0686  -14.7438  -52.7028 O.2       22 UNK        -0.5000 
    124 C124       -3.2744  -16.9562  -50.9397 C.3       23 UNK        -0.0398 
    125 S125       -2.6088  -15.8207  -49.6721 S.3       23 UNK        -0.2404 
    126 C126       -1.8077  -16.9629  -48.5087 C.3       23 UNK        -0.0205 
    127 H127        7.9075  -13.0582  -45.6996 H         1 UNK         0.0600 
    128 H128        7.2171  -13.4668  -44.1266 H         1 UNK         0.0600 
    129 H129        7.1029  -11.8136  -44.7397 H         1 UNK         0.0600 
    130 H130        6.6454  -13.7256  -47.4041 H         1 UNK         0.3000 
    131 H131        3.9140  -14.5693  -47.1099 H         1 UNK         0.0600 
    132 H132        5.5539  -14.1882  -49.6755 H         1 UNK         0.0800 
    133 H133        5.6040  -15.6255  -48.6954 H         1 UNK         0.0800 
    134 H134        4.0333  -17.6748  -49.0919 H         1 UNK         0.0800 
    135 H135        3.2285  -16.7334  -47.8581 H         1 UNK         0.0800 
    136 H136        0.7359  -16.0103  -48.3754 H         1 UNK         0.1150 
    137 H137       -1.5345  -19.3390  -49.8281 H         1 UNK         0.1150 
    138 H138        2.7320  -19.3291  -50.2121 H         1 UNK         0.1150 
    139 H139       -0.4943  -21.1327  -50.9683 H         1 UNK         0.0800 
    140 H140        1.0137  -20.7621  -51.7650 H         1 UNK         0.0800 
    141 H141       -0.6356  -21.8278  -48.5327 H         1 UNK         0.0800 
    142 H142        0.7687  -21.3608  -47.6020 H         1 UNK         0.0800 
    143 H143        0.0731  -24.2467  -48.3519 H         1 UNK         0.0600 
    144 H144        2.3048  -23.1631  -46.7823 H         1 UNK         0.3000 
    145 H145        3.5589  -26.3774  -45.9487 H         1 UNK         0.0600 
    146 H146        5.5774  -25.6104  -47.1731 H         1 UNK         0.0600 
    147 H147        4.3431  -26.1328  -48.3081 H         1 UNK         0.0600 
    148 H148        4.6231  -24.4147  -48.0523 H         1 UNK         0.0600 
    149 H149        4.6291  -23.7323  -45.6738 H         1 UNK         0.3000 
    150 H150        3.0200  -22.9059  -42.6172 H         1 UNK         0.0600 
    151 H151        5.9234  -23.7218  -43.1482 H         1 UNK         0.0600 
    152 H152        4.8715  -24.4481  -41.9390 H         1 UNK         0.0600 
    153 H153        5.3379  -22.7623  -41.7885 H         1 UNK         0.0600 
    154 H154        5.0048  -21.4459  -43.8399 H         1 UNK         0.3000 
    155 H155        4.2902  -19.3487  -44.6629 H         1 UNK         0.0600 
    156 H156        4.0364  -20.6152  -47.4592 H         1 UNK         0.0600 
    157 H157        5.4745  -20.6628  -46.4454 H         1 UNK         0.0600 
    158 H158        4.9072  -19.1288  -47.0831 H         1 UNK         0.0600 
    159 H159        2.2164  -19.2195  -46.7350 H         1 UNK         0.3000 
    160 H160        0.4545  -17.9677  -46.5386 H         1 UNK         0.0600 
    161 H161       -0.8669  -19.4522  -44.2228 H         1 UNK         0.0600 
    162 H162       -0.2653  -20.2127  -45.6907 H         1 UNK         0.0600 
    163 H163       -1.5904  -19.0631  -45.7832 H         1 UNK         0.0600 
    164 H164       -1.0778  -17.0369  -44.3552 H         1 UNK         0.3000 
    165 H165       -0.9104  -14.7142  -43.5512 H         1 UNK         0.0600 
    166 H166       -0.9003  -12.3994  -44.3974 H         1 UNK         0.0600 
    167 H167        0.7429  -13.0270  -44.3736 H         1 UNK         0.0600 
    168 H168       -0.1344  -12.9149  -45.8943 H         1 UNK         0.0600 
    169 H169       -2.2201  -14.1114  -46.1146 H         1 UNK         0.3000 
    170 H170       -3.9526  -16.5156  -46.6100 H         1 UNK         0.0600 
    171 H171       -5.3742  -17.1473  -44.7266 H         1 UNK         0.0600 
    172 H172       -5.8520  -15.4776  -44.4549 H         1 UNK         0.0600 
    173 H173       -6.3417  -16.3161  -45.9289 H         1 UNK         0.0600 
    174 H174       -4.3590  -14.7078  -47.7713 H         1 UNK         0.3000 
    175 H175       -6.1313  -12.7590  -48.0381 H         1 UNK         0.0600 
    176 H176       -5.8367  -10.2834  -47.8889 H         1 UNK         0.0600 
    177 H177       -6.4716  -10.9622  -46.3994 H         1 UNK         0.0600 
    178 H178       -4.7830  -10.4870  -46.4903 H         1 UNK         0.0600 
    179 H179       -4.4776  -12.6217  -49.4903 H         1 UNK         0.3000 
    180 H180       -2.0740  -12.8713  -50.1265 H         1 UNK         0.0600 
    181 H181       -2.6584   -9.8603  -50.3021 H         1 UNK         0.0600 
    182 H182       -3.6291  -11.1401  -51.0196 H         1 UNK         0.0600 
    183 H183       -2.0054  -10.8481  -51.6094 H         1 UNK         0.0600 
    184 H184       -0.4162  -10.5535  -49.5954 H         1 UNK         0.3000 
    185 H185        1.9547  -11.2184  -49.3932 H         1 UNK         0.0600 
    186 H186        0.7685   -9.8014  -47.6646 H         1 UNK         0.0600 
    187 H187        1.1287  -11.0020  -46.4323 H         1 UNK         0.0600 
    188 H188        2.4326  -10.1063  -47.2027 H         1 UNK         0.0600 
    189 H189        2.0231  -13.5783  -47.7801 H         1 UNK         0.3000 
    190 H190        0.6964  -22.8012  -45.1581 H         1 UNK         0.3000 
    191 H191       -1.9603  -22.6347  -44.2089 H         1 UNK         0.0600 
    192 H192        0.0328  -21.5113  -43.1793 H         1 UNK         0.0600 
    193 H193       -0.8715  -22.4439  -41.9952 H         1 UNK         0.0600 
    194 H194        0.6340  -23.0789  -42.6451 H         1 UNK         0.0600 
    195 H195        0.1820  -25.4031  -44.4488 H         1 UNK         0.3000 
    196 H196       -1.3461  -27.1918  -42.7612 H         1 UNK         0.0600 
    197 H197        0.2272  -28.8865  -43.7077 H         1 UNK         0.0600 
    198 H198        1.0950  -27.4646  -43.1539 H         1 UNK         0.0600 
    199 H199        0.8132  -27.7081  -44.8769 H         1 UNK         0.0600 
    200 H200       -2.1620  -25.8703  -45.7672 H         1 UNK         0.3000 
    201 H201       -3.8629  -28.1782  -46.5463 H         1 UNK         0.0600 
    202 H202       -3.1505  -27.8124  -48.9113 H         1 UNK         0.0600 
    203 H203       -2.0661  -26.5152  -48.4118 H         1 UNK         0.0600 
    204 H204       -1.7445  -28.1771  -47.9330 H         1 UNK         0.0600 
    205 H205       -5.2112  -27.2174  -48.5691 H         1 UNK         0.3000 
    206 H206       -6.8172  -24.9981  -47.5987 H         1 UNK         0.0600 
    207 H207       -7.8239  -26.9277  -48.8062 H         1 UNK         0.0600 
    208 H208       -8.1093  -25.4341  -49.6841 H         1 UNK         0.0600 
    209 H209       -6.8713  -26.5521  -50.2430 H         1 UNK         0.0600 
    210 H210       -3.9411  -25.2100  -49.4196 H         1 UNK         0.3000 
    211 H211       -4.0982  -23.2543  -51.3754 H         1 UNK         0.0600 
    212 H212       -1.7259  -24.1782  -49.6949 H         1 UNK         0.0600 
    213 H213       -1.5845  -23.2536  -51.1848 H         1 UNK         0.0600 
    214 H214       -2.2655  -24.8699  -51.2209 H         1 UNK         0.0600 
    215 H215       -3.7398  -22.7485  -47.9103 H         1 UNK         0.3000 
    216 H216       -2.8917  -20.0271  -47.9412 H         1 UNK         0.0600 
    217 H217       -3.8186  -20.0626  -45.5804 H         1 UNK         0.0600 
    218 H218       -2.7155  -21.3821  -45.9315 H         1 UNK         0.0600 
    219 H219       -4.4532  -21.6758  -45.8875 H         1 UNK         0.0600 
    220 H220       -6.0750  -21.5061  -48.4277 H         1 UNK         0.3000 
    221 H221       -7.4526  -18.8591  -48.2672 H         1 UNK         0.0600 
    222 H222       -8.5534  -21.7190  -48.3064 H         1 UNK         0.0600 
    223 H223       -8.4038  -20.6903  -46.8821 H         1 UNK         0.0600 
    224 H224       -9.5101  -20.2477  -48.1734 H         1 UNK         0.0600 
    225 H225       -6.6210  -21.5434  -50.4249 H         1 UNK         0.3000 
    226 H226       -8.2974  -20.7727  -52.6142 H         1 UNK         0.0600 
    227 H227       -7.1440  -22.6023  -53.7738 H         1 UNK         0.0600 
    228 H228       -5.8192  -22.5729  -52.6225 H         1 UNK         0.0600 
    229 H229       -7.4204  -23.1103  -52.1200 H         1 UNK         0.0600 
    230 H230       -7.1651  -20.6740  -54.8574 H         1 UNK         0.3000 
    231 H231       -6.1933  -18.0994  -55.2535 H         1 UNK         0.0600 
    232 H232       -6.1241  -20.5325  -57.1172 H         1 UNK         0.0600 
    233 H233       -5.9490  -18.8580  -57.6277 H         1 UNK         0.0600 
    234 H234       -7.4661  -19.4017  -56.9332 H         1 UNK         0.0600 
    235 H235       -4.2970  -20.8273  -54.3512 H         1 UNK         0.3000 
    236 H236       -1.7617  -20.1662  -55.4616 H         1 UNK         0.0600 
    237 H237       -2.2385  -22.3731  -54.4644 H         1 UNK         0.0600 
    238 H238       -0.9034  -21.6239  -53.6032 H         1 UNK         0.0600 
    239 H239       -2.5088  -21.6411  -52.8849 H         1 UNK         0.0600 
    240 H240       -3.5706  -18.7227  -52.8142 H         1 UNK         0.3000 
    241 H241       -1.3275  -17.1430  -51.8281 H         1 UNK         0.0600 
    242 H242       -3.0750  -16.8445  -54.7900 H         1 UNK         0.3800 
    243 H243       -2.8217  -15.1279  -54.9571 H         1 UNK         0.3800 
    244 H244       -3.4333  -17.9292  -50.4716 H         1 UNK         0.0800 
    245 H245       -4.2685  -16.6148  -51.2328 H         1 UNK         0.0800 
    246 H246       -1.5605  -16.4059  -47.6053 H         1 UNK         0.0800 
    247 H247       -2.5143  -17.7321  -48.2035 H         1 UNK         0.0800 
@<TRIPOS>BOND
     1    1    2 1    
     2    1  127 1    
     3    1  128 1    
     4    1  129 1    
     5    2    3 2    
     6    2    4 am   BACKBONE|DICT|INTERRES
     7    4    5 1    
     8    4  130 1    
     9    5    6 1    
    10    5   65 1    
    11    5  131 1    
    12    6    7 1    
    13    6  132 1    
    14    6  133 1    
    15    7    8 1    
    16    8    9 1    
    17    8  134 1    
    18    8  135 1    
    19    9   10 ar   
    20    9   14 ar   
    21   10   11 ar   
    22   10  136 1    
    23   11   12 ar   
    24   11  126 1    
    25   12   13 ar   
    26   12  137 1    
    27   13   14 ar   
    28   13   15 1    
    29   14  138 1    
    30   15   16 1    
    31   15  139 1    
    32   15  140 1    
    33   16   17 1    
    34   17   18 1    
    35   17  141 1    
    36   17  142 1    
    37   18   19 1    
    38   18   67 1    
    39   18  143 1    
    40   19   20 am   BACKBONE|DICT|INTERRES
    41   19  144 1    
    42   20   21 2    
    43   20   22 1    
    44   22   23 1    
    45   22   24 1    
    46   22  145 1    
    47   23  146 1    
    48   23  147 1    
    49   23  148 1    
    50   24   25 am   BACKBONE|DICT|INTERRES
    51   24  149 1    
    52   25   26 2    
    53   25   27 1    
    54   27   28 1    
    55   27   29 1    
    56   27  150 1    
    57   28  151 1    
    58   28  152 1    
    59   28  153 1    
    60   29   30 am   BACKBONE|DICT|INTERRES
    61   29  154 1    
    62   30   31 2    
    63   30   32 1    
    64   32   33 1    
    65   32   34 1    
    66   32  155 1    
    67   33  156 1    
    68   33  157 1    
    69   33  158 1    
    70   34   35 am   BACKBONE|DICT|INTERRES
    71   34  159 1    
    72   35   36 2    
    73   35   37 1    
    74   37   38 1    
    75   37   39 1    
    76   37  160 1    
    77   38  161 1    
    78   38  162 1    
    79   38  163 1    
    80   39   40 am   BACKBONE|DICT|INTERRES
    81   39  164 1    
    82   40   41 2    
    83   40   42 1    
    84   42   43 1    
    85   42   44 1    
    86   42  165 1    
    87   43  166 1    
    88   43  167 1    
    89   43  168 1    
    90   44   45 am   BACKBONE|DICT|INTERRES
    91   44  169 1    
    92   45   46 2    
    93   45   47 1    
    94   47   48 1    
    95   47   49 1    
    96   47  170 1    
    97   48  171 1    
    98   48  172 1    
    99   48  173 1    
   100   49   50 am   BACKBONE|DICT|INTERRES
   101   49  174 1    
   102   50   51 2    
   103   50   52 1    
   104   52   53 1    
   105   52   54 1    
   106   52  175 1    
   107   53  176 1    
   108   53  177 1    
   109   53  178 1    
   110   54   55 am   BACKBONE|DICT|INTERRES
   111   54  179 1    
   112   55   56 2    
   113   55   57 1    
   114   57   58 1    
   115   57   59 1    
   116   57  180 1    
   117   58  181 1    
   118   58  182 1    
   119   58  183 1    
   120   59   60 am   BACKBONE|DICT|INTERRES
   121   59  184 1    
   122   60   61 2    
   123   60   62 1    
   124   62   63 1    
   125   62   64 1    
   126   62  185 1    
   127   63  186 1    
   128   63  187 1    
   129   63  188 1    
   130   64   65 am   BACKBONE|DICT|INTERRES
   131   64  189 1    
   132   65   66 2    
   133   67   68 2    
   134   67   69 am   BACKBONE|DICT|INTERRES
   135   69   70 1    
   136   69  190 1    
   137   70   71 1    
   138   70   72 1    
   139   70  191 1    
   140   71  192 1    
   141   71  193 1    
   142   71  194 1    
   143   72   73 2    
   144   72   74 am   BACKBONE|DICT|INTERRES
   145   74   75 1    
   146   74  195 1    
   147   75   76 1    
   148   75   77 1    
   149   75  196 1    
   150   76  197 1    
   151   76  198 1    
   152   76  199 1    
   153   77   78 2    
   154   77   79 am   BACKBONE|DICT|INTERRES
   155   79   80 1    
   156   79  200 1    
   157   80   81 1    
   158   80   82 1    
   159   80  201 1    
   160   81  202 1    
   161   81  203 1    
   162   81  204 1    
   163   82   83 2    
   164   82   84 am   BACKBONE|DICT|INTERRES
   165   84   85 1    
   166   84  205 1    
   167   85   86 1    
   168   85   87 1    
   169   85  206 1    
   170   86  207 1    
   171   86  208 1    
   172   86  209 1    
   173   87   88 2    
   174   87   89 am   BACKBONE|DICT|INTERRES
   175   89   90 1    
   176   89  210 1    
   177   90   91 1    
   178   90   92 1    
   179   90  211 1    
   180   91  212 1    
   181   91  213 1    
   182   91  214 1    
   183   92   93 2    
   184   92   94 am   BACKBONE|DICT|INTERRES
   185   94   95 1    
   186   94  215 1    
   187   95   96 1    
   188   95   97 1    
   189   95  216 1    
   190   96  217 1    
   191   96  218 1    
   192   96  219 1    
   193   97   98 2    
   194   97   99 am   BACKBONE|DICT|INTERRES
   195   99  100 1    
   196   99  220 1    
   197  100  101 1    
   198  100  102 1    
   199  100  221 1    
   200  101  222 1    
   201  101  223 1    
   202  101  224 1    
   203  102  103 2    
   204  102  104 am   BACKBONE|DICT|INTERRES
   205  104  105 1    
   206  104  225 1    
   207  105  106 1    
   208  105  107 1    
   209  105  226 1    
   210  106  227 1    
   211  106  228 1    
   212  106  229 1    
   213  107  108 2    
   214  107  109 am   BACKBONE|DICT|INTERRES
   215  109  110 1    
   216  109  230 1    
   217  110  111 1    
   218  110  112 1    
   219  110  231 1    
   220  111  232 1    
   221  111  233 1    
   222  111  234 1    
   223  112  113 2    
   224  112  114 am   BACKBONE|DICT|INTERRES
   225  114  115 1    
   226  114  235 1    
   227  115  116 1    
   228  115  117 1    
   229  115  236 1    
   230  116  237 1    
   231  116  238 1    
   232  116  239 1    
   233  117  118 2    
   234  117  119 am   BACKBONE|DICT|INTERRES
   235  119  120 1    
   236  119  240 1    
   237  120  121 1    
   238  120  124 1    
   239  120  241 1    
   240  121  122 am   BACKBONE|DICT|INTERRES
   241  121  123 2    
   242  122  242 1    
   243  122  243 1    
   244  124  125 1    
   245  124  244 1    
   246  124  245 1    
   247  125  126 1    
   248  126  246 1    
   249  126  247 1    
@<TRIPOS>SUBSTRUCTURE
     1 UNK         1 GROUP             0       ****    0 ROOT    
