@<TRIPOS>MOLECULE
3R540
247   249    1
SMALL
USER_CHARGES


@<TRIPOS>ATOM
      1 CA          0.2135  -10.6939  -44.9207 C.3       0 UNK        -0.1800 
      2 C          -0.4049  -10.9272  -46.2915 C.2       0 UNK         0.5000 
      3 O          -0.6521   -9.9686  -47.0228 O.2       0 UNK        -0.5000 
      4 N          -0.6553  -12.1955  -46.6392 N.am      1 UNK        -0.5000 
      5 CA         -1.1835  -12.6152  -47.9447 C.3       1 UNK         0.1400 
      6 C6         -1.8222  -14.0221  -47.8501 C.3       23 UNK        -0.0398 
      7 S7         -2.9052  -14.4143  -49.2624 S.3       23 UNK        -0.2404 
      8 C8         -2.6225  -16.2026  -49.4538 C.3       23 UNK        -0.0205 
      9 C9         -1.2391  -16.5280  -50.0004 C.ar      23 UNK        -0.0193 
     10 C10        -0.9098  -16.1881  -51.3152 C.ar      23 UNK        -0.1150 
     11 C11         0.3285  -16.5466  -51.8548 C.ar      23 UNK        -0.0193 
     12 C12         1.2438  -17.2465  -51.0645 C.ar      23 UNK        -0.1150 
     13 C13         0.9394  -17.5696  -49.7400 C.ar      23 UNK        -0.0193 
     14 C14        -0.3036  -17.2045  -49.2110 C.ar      23 UNK        -0.1150 
     15 C15         1.9548  -18.3233  -48.8918 C.3       23 UNK        -0.0205 
     16 S16         2.0393  -20.0853  -49.3494 S.3       23 UNK        -0.2404 
     17 C17         0.3438  -20.6178  -48.9467 C.3       23 UNK        -0.0398 
     18 CA          0.2598  -21.9861  -48.2317 C.3       11 UNK         0.1400 
     19 N           1.1386  -22.0621  -47.0613 N.am      11 UNK        -0.5000 
     20 C           1.3570  -23.1608  -46.3253 C.2       10 UNK         0.5000 
     21 O           0.8400  -24.2530  -46.5540 O.2       10 UNK        -0.5000 
     22 CA          2.2614  -22.9903  -45.0890 C.3       10 UNK         0.1400 
     23 CB          3.7301  -23.2391  -45.4620 C.3       10 UNK        -0.1800 
     24 N           2.1398  -21.6747  -44.4518 N.am      10 UNK        -0.5000 
     25 C           0.9991  -21.1463  -43.9881 C.2       9 UNK         0.5000 
     26 O          -0.0933  -21.7171  -44.0504 O.2       9 UNK        -0.5000 
     27 CA          1.0978  -19.7086  -43.4503 C.3       9 UNK         0.1400 
     28 CB          1.2173  -18.7223  -44.6247 C.3       9 UNK        -0.1800 
     29 N          -0.0559  -19.3451  -42.6253 N.am      9 UNK        -0.5000 
     30 C          -0.2699  -19.8131  -41.3850 C.2       8 UNK         0.5000 
     31 O           0.5176  -20.5643  -40.8070 O.2       8 UNK        -0.5000 
     32 CA         -1.5471  -19.3656  -40.6435 C.3       8 UNK         0.1400 
     33 CB         -1.2041  -18.7042  -39.2974 C.3       8 UNK        -0.1800 
     34 N          -2.3531  -18.4314  -41.4295 N.am      8 UNK        -0.5000 
     35 C          -3.4582  -18.7594  -42.1116 C.2       7 UNK         0.5000 
     36 O          -3.9643  -19.8812  -42.0850 O.2       7 UNK        -0.5000 
     37 CA         -4.1204  -17.6624  -42.9732 C.3       7 UNK         0.1400 
     38 CB         -5.4109  -17.1611  -42.3066 C.3       7 UNK        -0.1800 
     39 N          -3.2602  -16.5100  -43.2543 N.am      7 UNK        -0.5000 
     40 C          -2.1432  -16.5363  -43.9930 C.2       6 UNK         0.5000 
     41 O          -1.7160  -17.5539  -44.5354 O.2       6 UNK        -0.5000 
     42 CA         -1.3437  -15.2212  -44.1166 C.3       6 UNK         0.1400 
     43 CB         -2.1654  -13.9611  -43.7660 C.3       6 UNK        -0.1800 
     44 N          -0.1001  -15.2360  -43.3390 N.am      6 UNK        -0.5000 
     45 C           0.0427  -15.5287  -42.0349 C.2       5 UNK         0.5000 
     46 O          -0.8841  -15.8892  -41.3088 O.2       5 UNK        -0.5000 
     47 CA          1.4531  -15.3944  -41.4242 C.3       5 UNK         0.1400 
     48 CB          2.1055  -16.7714  -41.2343 C.3       5 UNK        -0.1800 
     49 N           2.3560  -14.5546  -42.2110 N.am      5 UNK        -0.5000 
     50 C           2.2759  -13.2206  -42.3070 C.2       4 UNK         0.5000 
     51 O           1.4467  -12.5388  -41.7047 O.2       4 UNK        -0.5000 
     52 CA          3.2859  -12.5338  -43.2468 C.3       4 UNK         0.1400 
     53 CB          4.4750  -11.9838  -42.4446 C.3       4 UNK        -0.1800 
     54 N           3.7929  -13.3989  -44.3180 N.am      4 UNK        -0.5000 
     55 C           3.0519  -13.9086  -45.3092 C.2       3 UNK         0.5000 
     56 O           1.8260  -13.7721  -45.4003 O.2       3 UNK        -0.5000 
     57 CA          3.7984  -14.7309  -46.3743 C.3       3 UNK         0.1400 
     58 CB          3.6258  -16.2328  -46.1043 C.3       3 UNK        -0.1800 
     59 N           3.2382  -14.4174  -47.6832 N.am      3 UNK        -0.5000 
     60 C           3.4722  -13.2779  -48.3508 C.2       2 UNK         0.5000 
     61 O           4.4052  -12.5110  -48.1127 O.2       2 UNK        -0.5000 
     62 CA          2.3897  -12.8841  -49.3599 C.3       2 UNK         0.1400 
     63 CB          2.3933  -13.8161  -50.5848 C.3       2 UNK        -0.1800 
     64 N           1.1293  -12.9401  -48.6251 N.am      2 UNK        -0.5000 
     65 C          -0.0817  -12.5448  -49.0261 C.2       1 UNK         0.5000 
     66 O          -0.3327  -12.1008  -50.1469 O.2       1 UNK        -0.5000 
     67 C          -1.2171  -22.2605  -47.8850 C.2       11 UNK         0.5000 
     68 O          -1.9385  -22.8400  -48.6987 O.2       11 UNK        -0.5000 
     69 N          -1.6314  -21.8060  -46.6942 N.am      12 UNK        -0.5000 
     70 CA         -2.9673  -21.9996  -46.1455 C.3       12 UNK         0.1400 
     71 CB         -3.2726  -20.8809  -45.1409 C.3       12 UNK        -0.1800 
     72 C          -3.0934  -23.3870  -45.4970 C.2       12 UNK         0.5000 
     73 O          -4.1077  -24.0562  -45.6913 O.2       12 UNK        -0.5000 
     74 N          -2.0456  -23.8093  -44.7731 N.am      13 UNK        -0.5000 
     75 CA         -1.9542  -25.1110  -44.1075 C.3       13 UNK         0.1400 
     76 CB         -0.6793  -25.1605  -43.2541 C.3       13 UNK        -0.1800 
     77 C          -1.9998  -26.3033  -45.0828 C.2       13 UNK         0.5000 
     78 O          -2.5981  -27.3294  -44.7561 O.2       13 UNK        -0.5000 
     79 N          -1.4149  -26.1386  -46.2777 N.am      14 UNK        -0.5000 
     80 CA         -1.4289  -27.0958  -47.3878 C.3       14 UNK         0.1400 
     81 CB         -0.2747  -26.7514  -48.3467 C.3       14 UNK        -0.1800 
     82 C          -2.7949  -27.1482  -48.1099 C.2       14 UNK         0.5000 
     83 O          -2.8620  -26.9484  -49.3243 O.2       14 UNK        -0.5000 
     84 N          -3.8698  -27.3789  -47.3407 N.am      15 UNK        -0.5000 
     85 CA         -5.2771  -27.4802  -47.7567 C.3       15 UNK         0.1400 
     86 CB         -5.4982  -28.7883  -48.5438 C.3       15 UNK        -0.1800 
     87 C          -5.7986  -26.2417  -48.5220 C.2       15 UNK         0.5000 
     88 O          -6.7179  -26.3611  -49.3335 O.2       15 UNK        -0.5000 
     89 N          -5.1705  -25.0837  -48.2719 N.am      16 UNK        -0.5000 
     90 CA         -5.3264  -23.8008  -48.9606 C.3       16 UNK         0.1400 
     91 CB         -6.7078  -23.1854  -48.6609 C.3       16 UNK        -0.1800 
     92 C          -5.0078  -23.8329  -50.4708 C.2       16 UNK         0.5000 
     93 O          -5.3847  -22.8976  -51.1749 O.2       16 UNK        -0.5000 
     94 N          -4.3201  -24.8778  -50.9563 N.am      17 UNK        -0.5000 
     95 CA         -4.0807  -25.1150  -52.3807 C.3       17 UNK         0.1400 
     96 CB         -3.4837  -26.5165  -52.5783 C.3       17 UNK        -0.1800 
     97 C          -3.1923  -24.0400  -53.0253 C.2       17 UNK         0.5000 
     98 O          -3.5582  -23.4857  -54.0621 O.2       17 UNK        -0.5000 
     99 N          -2.0604  -23.7352  -52.3779 N.am      18 UNK        -0.5000 
    100 CA        -1.1255  -22.7035  -52.8273 C.3       18 UNK         0.1400 
    101 CB         0.2224  -22.8883  -52.1208 C.3       18 UNK        -0.1800 
    102 C         -1.6761  -21.2822  -52.6175 C.2       18 UNK         0.5000 
    103 O         -1.4180  -20.4086  -53.4435 O.2       18 UNK        -0.5000 
    104 N         -2.4575  -21.0860  -51.5449 N.am      19 UNK        -0.5000 
    105 CA        -3.1536  -19.8307  -51.2604 C.3       19 UNK         0.1400 
    106 CB        -3.7429  -19.8762  -49.8417 C.3       19 UNK        -0.1800 
    107 C         -4.2368  -19.5153  -52.3107 C.2       19 UNK         0.5000 
    108 O         -4.3389  -18.3702  -52.7496 O.2       19 UNK        -0.5000 
    109 N         -4.9952  -20.5413  -52.7242 N.am      20 UNK        -0.5000 
    110 CA        -5.9938  -20.4644  -53.7903 C.3       20 UNK         0.1400 
    111 CB        -6.8620  -21.7315  -53.7811 C.3       20 UNK        -0.1800 
    112 C         -5.3663  -20.2486  -55.1783 C.2       20 UNK         0.5000 
    113 O         -5.9072  -19.4723  -55.9669 O.2       20 UNK        -0.5000 
    114 N         -4.2244  -20.9014  -55.4462 N.am      21 UNK        -0.5000 
    115 CA        -3.4603  -20.7749  -56.6936 C.3       21 UNK         0.1400 
    116 CB        -2.2941  -21.7743  -56.6907 C.3       21 UNK        -0.1800 
    117 C         -2.9489  -19.3457  -56.9682 C.2       21 UNK         0.5000 
    118 O         -2.8218  -18.9620  -58.1318 O.2       21 UNK        -0.5000 
    119 N         -2.7066  -18.5768  -55.9002 N.am      22 UNK        -0.5000 
    120 CA        -2.4217  -17.1347  -55.9453 C.3       22 UNK         0.1400 
    121 C         -3.6584  -16.2386  -56.2651 C.2       22 UNK         0.5000 
    122 N         -4.8791  -16.7558  -56.3422 N.am      22 UNK        -0.7600 
    123 O         -3.5037  -15.0369  -56.4656 O.2       22 UNK        -0.5000 
    124 C124       -1.7169  -16.6613  -54.6499 C.3       23 UNK        -0.0398 
    125 S125       -0.0235  -17.3212  -54.4957 S.3       23 UNK        -0.2404 
    126 C126        0.6906  -16.1666  -53.2826 C.3       23 UNK        -0.0205 
    127 H127        0.3544  -11.6266  -44.3749 H         1 UNK         0.0600 
    128 H128       -0.4283  -10.0464  -44.3235 H         1 UNK         0.0600 
    129 H129        1.1849  -10.2111  -45.0260 H         1 UNK         0.0600 
    130 H130       -0.3746  -12.9322  -46.0072 H         1 UNK         0.3000 
    131 H131       -1.9676  -11.9090  -48.2273 H         1 UNK         0.0600 
    132 H132       -2.4479  -14.0820  -46.9589 H         1 UNK         0.0800 
    133 H133       -1.0556  -14.7893  -47.7325 H         1 UNK         0.0800 
    134 H134       -3.3707  -16.5990  -50.1418 H         1 UNK         0.0800 
    135 H135       -2.7940  -16.7008  -48.4982 H         1 UNK         0.0800 
    136 H136       -1.6253  -15.6488  -51.9189 H         1 UNK         0.1150 
    137 H137        2.2010  -17.5337  -51.4765 H         1 UNK         0.1150 
    138 H138       -0.5509  -17.4633  -48.1909 H         1 UNK         0.1150 
    139 H139        2.9406  -17.8751  -49.0237 H         1 UNK         0.0800 
    140 H140        1.7176  -18.2332  -47.8309 H         1 UNK         0.0800 
    141 H141       -0.2238  -20.6329  -49.8779 H         1 UNK         0.0800 
    142 H142       -0.1231  -19.8540  -48.3235 H         1 UNK         0.0800 
    143 H143        0.5907  -22.7673  -48.9157 H         1 UNK         0.0600 
    144 H144        1.6280  -21.2152  -46.8144 H         1 UNK         0.3000 
    145 H145        1.9665  -23.7396  -44.3536 H         1 UNK         0.0600 
    146 H146        4.3722  -23.2080  -44.5816 H         1 UNK         0.0600 
    147 H147        3.8554  -24.2219  -45.9187 H         1 UNK         0.0600 
    148 H148        4.0968  -22.4976  -46.1730 H         1 UNK         0.0600 
    149 H149        2.9923  -21.1390  -44.3742 H         1 UNK         0.3000 
    150 H150        1.9969  -19.6309  -42.8357 H         1 UNK         0.0600 
    151 H151        2.1554  -18.8647  -45.1618 H         1 UNK         0.0600 
    152 H152        1.1946  -17.6880  -44.2839 H         1 UNK         0.0600 
    153 H153        0.4089  -18.8529  -45.3451 H         1 UNK         0.0600 
    154 H154       -0.7676  -18.7796  -43.0722 H         1 UNK         0.3000 
    155 H155       -2.1184  -20.2711  -40.4299 H         1 UNK         0.0600 
    156 H156       -0.6024  -17.8051  -39.4283 H         1 UNK         0.0600 
    157 H157       -0.6428  -19.3840  -38.6553 H         1 UNK         0.0600 
    158 H158       -2.1083  -18.4238  -38.7569 H         1 UNK         0.0600 
    159 H159       -2.0001  -17.4795  -41.4853 H         1 UNK         0.3000 
    160 H160       -4.3852  -18.1210  -43.9281 H         1 UNK         0.0600 
    161 H161       -5.2064  -16.6740  -41.3523 H         1 UNK         0.0600 
    162 H162       -6.0983  -17.9859  -42.1136 H         1 UNK         0.0600 
    163 H163       -5.9338  -16.4478  -42.9440 H         1 UNK         0.0600 
    164 H164       -3.5160  -15.6411  -42.8084 H         1 UNK         0.3000 
    165 H165       -1.0467  -15.1470  -45.1628 H         1 UNK         0.0600 
    166 H166       -2.4510  -13.9345  -42.7138 H         1 UNK         0.0600 
    167 H167       -1.5945  -13.0555  -43.9652 H         1 UNK         0.0600 
    168 H168       -3.0765  -13.9030  -44.3630 H         1 UNK         0.0600 
    169 H169        0.7261  -14.9469  -43.8472 H         1 UNK         0.3000 
    170 H170        1.3329  -14.9394  -40.4387 H         1 UNK         0.0600 
    171 H171        1.4649  -17.4360  -40.6550 H         1 UNK         0.0600 
    172 H172        2.3095  -17.2553  -42.1885 H         1 UNK         0.0600 
    173 H173        3.0495  -16.6869  -40.6957 H         1 UNK         0.0600 
    174 H174        3.0807  -15.0264  -42.7308 H         1 UNK         0.3000 
    175 H175        2.7748  -11.6906  -43.7143 H         1 UNK         0.0600 
    176 H176        5.0463  -12.7838  -41.9720 H         1 UNK         0.0600 
    177 H177        5.1534  -11.4169  -43.0824 H         1 UNK         0.0600 
    178 H178        4.1369  -11.3113  -41.6550 H         1 UNK         0.0600 
    179 H179        4.7889  -13.5671  -44.3180 H         1 UNK         0.3000 
    180 H180        4.8616  -14.4817  -46.3608 H         1 UNK         0.0600 
    181 H181        2.5748  -16.5230  -46.1164 H         1 UNK         0.0600 
    182 H182        4.0322  -16.5066  -45.1299 H         1 UNK         0.0600 
    183 H183        4.1468  -16.8300  -46.8528 H         1 UNK         0.0600 
    184 H184        2.4440  -14.9734  -47.9632 H         1 UNK         0.3000 
    185 H185        2.5635  -11.8559  -49.6830 H         1 UNK         0.0600 
    186 H186        1.6246  -13.5409  -51.3065 H         1 UNK         0.0600 
    187 H187        3.3522  -13.7739  -51.1021 H         1 UNK         0.0600 
    188 H188        2.2233  -14.8509  -50.2952 H         1 UNK         0.0600 
    189 H189        1.2309  -13.2068  -47.6535 H         1 UNK         0.3000 
    190 H190       -0.9528  -21.3949  -46.0670 H         1 UNK         0.3000 
    191 H191       -3.6987  -21.9194  -46.9488 H         1 UNK         0.0600 
    192 H192       -4.2832  -20.9807  -44.7432 H         1 UNK         0.0600 
    193 H193       -3.2018  -19.8989  -45.6091 H         1 UNK         0.0600 
    194 H194       -2.5859  -20.8952  -44.2947 H         1 UNK         0.0600 
    195 H195       -1.2704  -23.1692  -44.6286 H         1 UNK         0.3000 
    196 H196       -2.8139  -25.1962  -43.4399 H         1 UNK         0.0600 
    197 H197        0.2159  -25.1519  -43.8746 H         1 UNK         0.0600 
    198 H198       -0.6245  -24.3139  -42.5691 H         1 UNK         0.0600 
    199 H199       -0.6498  -26.0701  -42.6530 H         1 UNK         0.0600 
    200 H200       -0.8940  -25.2825  -46.4391 H         1 UNK         0.3000 
    201 H201       -1.2412  -28.0938  -46.9870 H         1 UNK         0.0600 
    202 H202       -0.3928  -25.7541  -48.7734 H         1 UNK         0.0600 
    203 H203       -0.2224  -27.4614  -49.1730 H         1 UNK         0.0600 
    204 H204        0.6863  -26.7826  -47.8330 H         1 UNK         0.0600 
    205 H205       -3.6955  -27.4906  -46.3456 H         1 UNK         0.3000 
    206 H206       -5.8644  -27.5386  -46.8394 H         1 UNK         0.0600 
    207 H207       -5.1376  -29.6512  -47.9839 H         1 UNK         0.0600 
    208 H208       -6.5574  -28.9542  -48.7436 H         1 UNK         0.0600 
    209 H209       -4.9819  -28.7720  -49.5043 H         1 UNK         0.0600 
    210 H210       -4.4733  -25.0856  -47.5367 H         1 UNK         0.3000 
    211 H211       -4.5768  -23.1421  -48.5317 H         1 UNK         0.0600 
    212 H212       -6.7763  -22.1663  -49.0434 H         1 UNK         0.0600 
    213 H213       -6.8924  -23.1392  -47.5875 H         1 UNK         0.0600 
    214 H214       -7.5138  -23.7604  -49.1172 H         1 UNK         0.0600 
    215 H215       -3.9884  -25.5915  -50.3147 H         1 UNK         0.3000 
    216 H216       -5.0483  -25.0883  -52.8864 H         1 UNK         0.0600 
    217 H217       -2.5193  -26.6197  -52.0794 H         1 UNK         0.0600 
    218 H218       -3.3315  -26.7307  -53.6368 H         1 UNK         0.0600 
    219 H219       -4.1470  -27.2855  -52.1817 H         1 UNK         0.0600 
    220 H220       -1.8467  -24.2160  -51.5157 H         1 UNK         0.3000 
    221 H221       -0.9580  -22.8344  -53.8983 H         1 UNK         0.0600 
    222 H222        0.6866  -23.8342  -52.4002 H         1 UNK         0.0600 
    223 H223        0.1024  -22.8826  -51.0414 H         1 UNK         0.0600 
    224 H224        0.9198  -22.0911  -52.3826 H         1 UNK         0.0600 
    225 H225       -2.6324  -21.8616  -50.9213 H         1 UNK         0.3000 
    226 H226       -2.4174  -19.0244  -51.2946 H         1 UNK         0.0600 
    227 H227       -4.4381  -20.7066  -49.7180 H         1 UNK         0.0600 
    228 H228       -2.9583  -19.9802  -49.0925 H         1 UNK         0.0600 
    229 H229       -4.2863  -18.9584  -49.6149 H         1 UNK         0.0600 
    230 H230       -4.9020  -21.4433  -52.2635 H         1 UNK         0.3000 
    231 H231       -6.6415  -19.6101  -53.5831 H         1 UNK         0.0600 
    232 H232       -6.2645  -22.6301  -53.9396 H         1 UNK         0.0600 
    233 H233       -7.6175  -21.6948  -54.5668 H         1 UNK         0.0600 
    234 H234       -7.3858  -21.8422  -52.8315 H         1 UNK         0.0600 
    235 H235       -3.8752  -21.5690  -54.7669 H         1 UNK         0.3000 
    236 H236       -4.1308  -21.0419  -57.5128 H         1 UNK         0.0600 
    237 H237       -2.6485  -22.7974  -56.5656 H         1 UNK         0.0600 
    238 H238       -1.7450  -21.7347  -57.6322 H         1 UNK         0.0600 
    239 H239       -1.5854  -21.5613  -55.8911 H         1 UNK         0.0600 
    240 H240       -2.7978  -18.9861  -54.9799 H         1 UNK         0.3000 
    241 H241       -1.7303  -16.9651  -56.7729 H         1 UNK         0.0600 
    242 H242       -5.6537  -16.1487  -56.5576 H         1 UNK         0.3800 
    243 H243       -5.0526  -17.7446  -56.1934 H         1 UNK         0.3800 
    244 H244       -2.2958  -16.9573  -53.7746 H         1 UNK         0.0800 
    245 H245       -1.6521  -15.5722  -54.6230 H         1 UNK         0.0800 
    246 H246        1.7750  -16.1679  -53.4024 H         1 UNK         0.0800 
    247 H247        0.3700  -15.1452  -53.4920 H         1 UNK         0.0800 
@<TRIPOS>BOND
     1    1    2 1    
     2    1  127 1    
     3    1  128 1    
     4    1  129 1    
     5    2    3 2    
     6    2    4 am   BACKBONE|DICT|INTERRES
     7    4    5 1    
     8    4  130 1    
     9    5    6 1    
    10    5   65 1    
    11    5  131 1    
    12    6    7 1    
    13    6  132 1    
    14    6  133 1    
    15    7    8 1    
    16    8    9 1    
    17    8  134 1    
    18    8  135 1    
    19    9   10 ar   
    20    9   14 ar   
    21   10   11 ar   
    22   10  136 1    
    23   11   12 ar   
    24   11  126 1    
    25   12   13 ar   
    26   12  137 1    
    27   13   14 ar   
    28   13   15 1    
    29   14  138 1    
    30   15   16 1    
    31   15  139 1    
    32   15  140 1    
    33   16   17 1    
    34   17   18 1    
    35   17  141 1    
    36   17  142 1    
    37   18   19 1    
    38   18   67 1    
    39   18  143 1    
    40   19   20 am   BACKBONE|DICT|INTERRES
    41   19  144 1    
    42   20   21 2    
    43   20   22 1    
    44   22   23 1    
    45   22   24 1    
    46   22  145 1    
    47   23  146 1    
    48   23  147 1    
    49   23  148 1    
    50   24   25 am   BACKBONE|DICT|INTERRES
    51   24  149 1    
    52   25   26 2    
    53   25   27 1    
    54   27   28 1    
    55   27   29 1    
    56   27  150 1    
    57   28  151 1    
    58   28  152 1    
    59   28  153 1    
    60   29   30 am   BACKBONE|DICT|INTERRES
    61   29  154 1    
    62   30   31 2    
    63   30   32 1    
    64   32   33 1    
    65   32   34 1    
    66   32  155 1    
    67   33  156 1    
    68   33  157 1    
    69   33  158 1    
    70   34   35 am   BACKBONE|DICT|INTERRES
    71   34  159 1    
    72   35   36 2    
    73   35   37 1    
    74   37   38 1    
    75   37   39 1    
    76   37  160 1    
    77   38  161 1    
    78   38  162 1    
    79   38  163 1    
    80   39   40 am   BACKBONE|DICT|INTERRES
    81   39  164 1    
    82   40   41 2    
    83   40   42 1    
    84   42   43 1    
    85   42   44 1    
    86   42  165 1    
    87   43  166 1    
    88   43  167 1    
    89   43  168 1    
    90   44   45 am   BACKBONE|DICT|INTERRES
    91   44  169 1    
    92   45   46 2    
    93   45   47 1    
    94   47   48 1    
    95   47   49 1    
    96   47  170 1    
    97   48  171 1    
    98   48  172 1    
    99   48  173 1    
   100   49   50 am   BACKBONE|DICT|INTERRES
   101   49  174 1    
   102   50   51 2    
   103   50   52 1    
   104   52   53 1    
   105   52   54 1    
   106   52  175 1    
   107   53  176 1    
   108   53  177 1    
   109   53  178 1    
   110   54   55 am   BACKBONE|DICT|INTERRES
   111   54  179 1    
   112   55   56 2    
   113   55   57 1    
   114   57   58 1    
   115   57   59 1    
   116   57  180 1    
   117   58  181 1    
   118   58  182 1    
   119   58  183 1    
   120   59   60 am   BACKBONE|DICT|INTERRES
   121   59  184 1    
   122   60   61 2    
   123   60   62 1    
   124   62   63 1    
   125   62   64 1    
   126   62  185 1    
   127   63  186 1    
   128   63  187 1    
   129   63  188 1    
   130   64   65 am   BACKBONE|DICT|INTERRES
   131   64  189 1    
   132   65   66 2    
   133   67   68 2    
   134   67   69 am   BACKBONE|DICT|INTERRES
   135   69   70 1    
   136   69  190 1    
   137   70   71 1    
   138   70   72 1    
   139   70  191 1    
   140   71  192 1    
   141   71  193 1    
   142   71  194 1    
   143   72   73 2    
   144   72   74 am   BACKBONE|DICT|INTERRES
   145   74   75 1    
   146   74  195 1    
   147   75   76 1    
   148   75   77 1    
   149   75  196 1    
   150   76  197 1    
   151   76  198 1    
   152   76  199 1    
   153   77   78 2    
   154   77   79 am   BACKBONE|DICT|INTERRES
   155   79   80 1    
   156   79  200 1    
   157   80   81 1    
   158   80   82 1    
   159   80  201 1    
   160   81  202 1    
   161   81  203 1    
   162   81  204 1    
   163   82   83 2    
   164   82   84 am   BACKBONE|DICT|INTERRES
   165   84   85 1    
   166   84  205 1    
   167   85   86 1    
   168   85   87 1    
   169   85  206 1    
   170   86  207 1    
   171   86  208 1    
   172   86  209 1    
   173   87   88 2    
   174   87   89 am   BACKBONE|DICT|INTERRES
   175   89   90 1    
   176   89  210 1    
   177   90   91 1    
   178   90   92 1    
   179   90  211 1    
   180   91  212 1    
   181   91  213 1    
   182   91  214 1    
   183   92   93 2    
   184   92   94 am   BACKBONE|DICT|INTERRES
   185   94   95 1    
   186   94  215 1    
   187   95   96 1    
   188   95   97 1    
   189   95  216 1    
   190   96  217 1    
   191   96  218 1    
   192   96  219 1    
   193   97   98 2    
   194   97   99 am   BACKBONE|DICT|INTERRES
   195   99  100 1    
   196   99  220 1    
   197  100  101 1    
   198  100  102 1    
   199  100  221 1    
   200  101  222 1    
   201  101  223 1    
   202  101  224 1    
   203  102  103 2    
   204  102  104 am   BACKBONE|DICT|INTERRES
   205  104  105 1    
   206  104  225 1    
   207  105  106 1    
   208  105  107 1    
   209  105  226 1    
   210  106  227 1    
   211  106  228 1    
   212  106  229 1    
   213  107  108 2    
   214  107  109 am   BACKBONE|DICT|INTERRES
   215  109  110 1    
   216  109  230 1    
   217  110  111 1    
   218  110  112 1    
   219  110  231 1    
   220  111  232 1    
   221  111  233 1    
   222  111  234 1    
   223  112  113 2    
   224  112  114 am   BACKBONE|DICT|INTERRES
   225  114  115 1    
   226  114  235 1    
   227  115  116 1    
   228  115  117 1    
   229  115  236 1    
   230  116  237 1    
   231  116  238 1    
   232  116  239 1    
   233  117  118 2    
   234  117  119 am   BACKBONE|DICT|INTERRES
   235  119  120 1    
   236  119  240 1    
   237  120  121 1    
   238  120  124 1    
   239  120  241 1    
   240  121  122 am   BACKBONE|DICT|INTERRES
   241  121  123 2    
   242  122  242 1    
   243  122  243 1    
   244  124  125 1    
   245  124  244 1    
   246  124  245 1    
   247  125  126 1    
   248  126  246 1    
   249  126  247 1    
@<TRIPOS>SUBSTRUCTURE
     1 UNK         1 GROUP             0       ****    0 ROOT    
