@<TRIPOS>MOLECULE
3R540
247   249    1
SMALL
USER_CHARGES


@<TRIPOS>ATOM
      1 CA         -2.4373  -16.3811  -47.3808 C.3       0 UNK        -0.1800 
      2 C          -2.2236  -14.8737  -47.4030 C.2       0 UNK         0.5000 
      3 O          -2.6523  -14.1730  -46.4875 O.2       0 UNK        -0.5000 
      4 N          -1.5546  -14.3783  -48.4501 N.am      1 UNK        -0.5000 
      5 CA         -1.2088  -12.9637  -48.6492 C.3       1 UNK         0.1400 
      6 C6         -1.2927  -12.5665  -50.1478 C.3       23 UNK        -0.0398 
      7 S7         -0.2381  -13.5798  -51.2467 S.3       23 UNK        -0.2404 
      8 C8         -1.4468  -14.7441  -51.9533 C.3       23 UNK        -0.0205 
      9 C9         -0.8081  -16.1061  -52.1644 C.ar      23 UNK        -0.0193 
     10 C10        -0.2470  -16.4481  -53.3977 C.ar      23 UNK        -0.1150 
     11 C11         0.3710  -17.6903  -53.5774 C.ar      23 UNK        -0.0193 
     12 C12         0.4199  -18.5951  -52.5111 C.ar      23 UNK        -0.1150 
     13 C13        -0.1423  -18.2618  -51.2748 C.ar      23 UNK        -0.0193 
     14 C14        -0.7597  -17.0209  -51.1107 C.ar      23 UNK        -0.1150 
     15 C15        -0.0930  -19.2349  -50.1111 C.3       23 UNK        -0.0205 
     16 S16         1.5230  -19.2066  -49.2708 S.3       23 UNK        -0.2404 
     17 C17         1.0545  -19.4253  -47.5187 C.3       23 UNK        -0.0398 
     18 CA          0.7156  -20.8884  -47.1305 C.3       11 UNK         0.1400 
     19 N           0.8939  -21.1407  -45.6991 N.am      11 UNK        -0.5000 
     20 C           0.7646  -22.3367  -45.1047 C.2       10 UNK         0.5000 
     21 O           0.5514  -23.3881  -45.7102 O.2       10 UNK        -0.5000 
     22 CA          0.8251  -22.3502  -43.5665 C.3       10 UNK         0.1400 
     23 CB          2.2779  -22.2901  -43.0723 C.3       10 UNK        -0.1800 
     24 N           0.0491  -21.2631  -42.9655 N.am      10 UNK        -0.5000 
     25 C          -1.2791  -21.1238  -43.0932 C.2       9 UNK         0.5000 
     26 O          -1.9958  -21.9230  -43.6951 O.2       9 UNK        -0.5000 
     27 CA         -1.9118  -19.8600  -42.4860 C.3       9 UNK         0.1400 
     28 CB         -2.1026  -20.0211  -40.9707 C.3       9 UNK        -0.1800 
     29 N          -1.1407  -18.6482  -42.7644 N.am      9 UNK        -0.5000 
     30 C          -0.9138  -18.1547  -43.9905 C.2       8 UNK         0.5000 
     31 O          -1.3547  -18.6555  -45.0239 O.2       8 UNK        -0.5000 
     32 CA          0.0116  -16.9302  -44.0884 C.3       8 UNK         0.1400 
     33 CB         -0.7266  -15.6490  -43.6792 C.3       8 UNK        -0.1800 
     34 N           1.2242  -17.0811  -43.2851 N.am      8 UNK        -0.5000 
     35 C           2.1348  -18.0503  -43.4559 C.2       7 UNK         0.5000 
     36 O           2.0816  -18.8897  -44.3538 O.2       7 UNK        -0.5000 
     37 CA          3.2623  -18.1336  -42.4155 C.3       7 UNK         0.1400 
     38 CB          4.3808  -17.1332  -42.7323 C.3       7 UNK        -0.1800 
     39 N           2.7658  -17.9081  -41.0591 N.am      7 UNK        -0.5000 
     40 C           1.9891  -18.7711  -40.3898 C.2       6 UNK         0.5000 
     41 O           1.6329  -19.8616  -40.8370 O.2       6 UNK        -0.5000 
     42 CA          1.4973  -18.3185  -39.0034 C.3       6 UNK         0.1400 
     43 CB          2.5825  -18.5440  -37.9400 C.3       6 UNK        -0.1800 
     44 N           1.0820  -16.9148  -38.9865 N.am      6 UNK        -0.5000 
     45 C           0.0208  -16.4371  -39.6511 C.2       5 UNK         0.5000 
     46 O          -0.7269  -17.1338  -40.3355 O.2       5 UNK        -0.5000 
     47 CA         -0.2290  -14.9209  -39.5675 C.3       5 UNK         0.1400 
     48 CB         -1.0623  -14.5813  -38.3227 C.3       5 UNK        -0.1800 
     49 N           0.9930  -14.1108  -39.5698 N.am      5 UNK        -0.5000 
     50 C           1.8979  -14.0868  -40.5577 C.2       4 UNK         0.5000 
     51 O           1.8531  -14.8325  -41.5377 O.2       4 UNK        -0.5000 
     52 CA          3.0397  -13.0649  -40.4017 C.3       4 UNK         0.1400 
     53 CB          4.3617  -13.7486  -39.9993 C.3       4 UNK        -0.1800 
     54 N           3.1756  -12.2110  -41.5892 N.am      4 UNK        -0.5000 
     55 C           3.6726  -12.5229  -42.7946 C.2       3 UNK         0.5000 
     56 O           4.2633  -13.5696  -43.0669 O.2       3 UNK        -0.5000 
     57 CA          3.5124  -11.4495  -43.8877 C.3       3 UNK         0.1400 
     58 CB          4.7629  -10.5594  -43.9618 C.3       3 UNK        -0.1800 
     59 N           3.2927  -12.0741  -45.1917 N.am      3 UNK        -0.5000 
     60 C           2.1485  -12.6638  -45.5577 C.2       2 UNK         0.5000 
     61 O           1.1115  -12.6196  -44.8914 O.2       2 UNK        -0.5000 
     62 CA          2.1964  -13.4700  -46.8705 C.3       2 UNK         0.1400 
     63 CB          2.7519  -14.8798  -46.6060 C.3       2 UNK        -0.1800 
     64 N           0.8871  -13.6015  -47.5090 N.am      2 UNK        -0.5000 
     65 C           0.1618  -12.5997  -48.0277 C.2       1 UNK         0.5000 
     66 O           0.5404  -11.4269  -48.0457 O.2       1 UNK        -0.5000 
     67 C          -0.7053  -21.2716  -47.5833 C.2       11 UNK         0.5000 
     68 O          -0.8485  -22.0427  -48.5299 O.2       11 UNK        -0.5000 
     69 N          -1.7262  -20.7466  -46.8899 N.am      12 UNK        -0.5000 
     70 CA         -3.1378  -20.9916  -47.1787 C.3       12 UNK         0.1400 
     71 CB         -4.0198  -20.1518  -46.2445 C.3       12 UNK        -0.1800 
     72 C          -3.5222  -22.4769  -47.1031 C.2       12 UNK         0.5000 
     73 O          -4.2400  -22.9492  -47.9832 O.2       12 UNK        -0.5000 
     74 N          -3.0105  -23.1896  -46.0906 N.am      13 UNK        -0.5000 
     75 CA         -3.1804  -24.6322  -45.9219 C.3       13 UNK         0.1400 
     76 CB         -2.6052  -25.0658  -44.5651 C.3       13 UNK        -0.1800 
     77 C          -2.5498  -25.4404  -47.0700 C.2       13 UNK         0.5000 
     78 O          -3.2078  -26.3261  -47.6180 O.2       13 UNK        -0.5000 
     79 N          -1.3076  -25.0961  -47.4414 N.am      14 UNK        -0.5000 
     80 CA         -0.5790  -25.7030  -48.5590 C.3       14 UNK         0.1400 
     81 CB          0.8744  -25.2055  -48.5529 C.3       14 UNK        -0.1800 
     82 C          -1.2426  -25.4349  -49.9238 C.2       14 UNK         0.5000 
     83 O          -1.2832  -26.3284  -50.7697 O.2       14 UNK        -0.5000 
     84 N          -1.7851  -24.2235  -50.0917 N.am      15 UNK        -0.5000 
     85 CA         -2.5032  -23.7624  -51.2780 C.3       15 UNK         0.1400 
     86 CB         -2.2684  -22.2516  -51.4402 C.3       15 UNK        -0.1800 
     87 C          -4.0051  -24.1152  -51.2753 C.2       15 UNK         0.5000 
     88 O          -4.7495  -23.5285  -52.0594 O.2       15 UNK        -0.5000 
     89 N          -4.4321  -25.0542  -50.4163 N.am      16 UNK        -0.5000 
     90 CA         -5.7804  -25.6294  -50.3345 C.3       16 UNK         0.1400 
     91 CB         -6.0605  -26.5049  -51.5740 C.3       16 UNK        -0.1800 
     92 C          -6.8765  -24.5712  -50.0869 C.2       16 UNK         0.5000 
     93 O          -7.8107  -24.4402  -50.8799 O.2       16 UNK        -0.5000 
     94 N          -6.7116  -23.8281  -48.9855 N.am      17 UNK        -0.5000 
     95 CA         -7.5052  -22.6751  -48.5498 C.3       17 UNK         0.1400 
     96 CB         -8.9993  -23.0238  -48.3769 C.3       17 UNK        -0.1800 
     97 C          -7.2487  -21.4363  -49.4311 C.2       17 UNK         0.5000 
     98 O          -8.1838  -20.7053  -49.7618 O.2       17 UNK        -0.5000 
     99 N          -5.9662  -21.2233  -49.7648 N.am      18 UNK        -0.5000 
    100 CA        -5.4177  -20.0956  -50.5263 C.3       18 UNK         0.1400 
    101 CB        -5.4943  -18.7956  -49.6971 C.3       18 UNK        -0.1800 
    102 C         -6.0306  -19.9509  -51.9350 C.2       18 UNK         0.5000 
    103 O         -6.4756  -18.8633  -52.3095 O.2       18 UNK        -0.5000 
    104 N         -6.0462  -21.0538  -52.6953 N.am      19 UNK        -0.5000 
    105 CA        -6.4684  -21.0787  -54.0949 C.3       19 UNK         0.1400 
    106 CB        -6.6148  -22.5386  -54.5518 C.3       19 UNK        -0.1800 
    107 C         -5.4682  -20.3343  -54.9993 C.2       19 UNK         0.5000 
    108 O         -4.2677  -20.3215  -54.7146 O.2       19 UNK        -0.5000 
    109 N         -5.9753  -19.7723  -56.1050 N.am      20 UNK        -0.5000 
    110 CA        -5.2168  -18.9837  -57.0857 C.3       20 UNK         0.1400 
    111 CB        -6.2005  -18.3768  -58.0984 C.3       20 UNK        -0.1800 
    112 C         -4.1010  -19.7603  -57.8168 C.2       20 UNK         0.5000 
    113 O         -3.1990  -19.1389  -58.3793 O.2       20 UNK        -0.5000 
    114 N         -4.1726  -21.0976  -57.7855 N.am      21 UNK        -0.5000 
    115 CA        -3.1410  -22.0089  -58.2794 C.3       21 UNK         0.1400 
    116 CB        -3.7578  -23.4092  -58.4264 C.3       21 UNK        -0.1800 
    117 C         -1.8856  -22.0651  -57.3817 C.2       21 UNK         0.5000 
    118 O         -0.8558  -22.5631  -57.8378 O.2       21 UNK        -0.5000 
    119 N         -1.9897  -21.5807  -56.1337 N.am      22 UNK        -0.5000 
    120 CA        -0.9264  -21.5513  -55.1103 C.3       22 UNK         0.1400 
    121 C         -0.5196  -22.9527  -54.5560 C.2       22 UNK         0.5000 
    122 N         -1.2734  -24.0156  -54.8114 N.am      22 UNK        -0.7600 
    123 O          0.4811  -23.0797  -53.8563 O.2       22 UNK        -0.5000 
    124 C124        0.3137  -20.7096  -55.5294 C.3       23 UNK        -0.0398 
    125 S125       -0.0937  -18.9889  -55.9926 S.3       23 UNK        -0.2404 
    126 C126        1.0159  -18.0283  -54.9137 C.3       23 UNK        -0.0205 
    127 H127       -3.1649  -16.6747  -48.1376 H         1 UNK         0.0600 
    128 H128       -2.8117  -16.7015  -46.4085 H         1 UNK         0.0600 
    129 H129       -1.5037  -16.9104  -47.5711 H         1 UNK         0.0600 
    130 H130       -1.2213  -14.9976  -49.1737 H         1 UNK         0.3000 
    131 H131       -1.9419  -12.3489  -48.1227 H         1 UNK         0.0600 
    132 H132       -2.3284  -12.6295  -50.4837 H         1 UNK         0.0800 
    133 H133       -1.0165  -11.5191  -50.2810 H         1 UNK         0.0800 
    134 H134       -2.3116  -14.8491  -51.2966 H         1 UNK         0.0800 
    135 H135       -1.8245  -14.3451  -52.8959 H         1 UNK         0.0800 
    136 H136       -0.2776  -15.7397  -54.2138 H         1 UNK         0.1150 
    137 H137        0.9042  -19.5530  -52.6355 H         1 UNK         0.1150 
    138 H138       -1.1940  -16.7645  -50.1565 H         1 UNK         0.1150 
    139 H139       -0.8927  -19.0036  -49.4060 H         1 UNK         0.0800 
    140 H140       -0.2836  -20.2446  -50.4723 H         1 UNK         0.0800 
    141 H141        0.2537  -18.7328  -47.2547 H         1 UNK         0.0800 
    142 H142        1.9209  -19.0936  -46.9463 H         1 UNK         0.0800 
    143 H143        1.4151  -21.5491  -47.6473 H         1 UNK         0.0600 
    144 H144        1.1126  -20.3322  -45.1223 H         1 UNK         0.3000 
    145 H145        0.3915  -23.2932  -43.2273 H         1 UNK         0.0600 
    146 H146        2.3284  -22.3802  -41.9871 H         1 UNK         0.0600 
    147 H147        2.8676  -23.1048  -43.4943 H         1 UNK         0.0600 
    148 H148        2.7620  -21.3546  -43.3525 H         1 UNK         0.0600 
    149 H149        0.5652  -20.5834  -42.4164 H         1 UNK         0.3000 
    150 H150       -2.8975  -19.7346  -42.9385 H         1 UNK         0.0600 
    151 H151       -2.6760  -20.9202  -40.7416 H         1 UNK         0.0600 
    152 H152       -2.6454  -19.1742  -40.5508 H         1 UNK         0.0600 
    153 H153       -1.1476  -20.0972  -40.4499 H         1 UNK         0.0600 
    154 H154       -0.7768  -18.1494  -41.9569 H         1 UNK         0.3000 
    155 H155        0.3138  -16.8293  -45.1324 H         1 UNK         0.0600 
    156 H156       -1.0445  -15.6809  -42.6378 H         1 UNK         0.0600 
    157 H157       -0.0930  -14.7719  -43.8074 H         1 UNK         0.0600 
    158 H158       -1.6183  -15.4999  -44.2882 H         1 UNK         0.0600 
    159 H159        1.3747  -16.3946  -42.5501 H         1 UNK         0.3000 
    160 H160        3.6865  -19.1388  -42.4618 H         1 UNK         0.0600 
    161 H161        4.0194  -16.1070  -42.6859 H         1 UNK         0.0600 
    162 H162        4.7787  -17.2954  -43.7347 H         1 UNK         0.0600 
    163 H163        5.2097  -17.2295  -42.0311 H         1 UNK         0.0600 
    164 H164        2.9593  -17.0068  -40.6482 H         1 UNK         0.3000 
    165 H165        0.6319  -18.9316  -38.7420 H         1 UNK         0.0600 
    166 H166        2.2136  -18.3018  -36.9432 H         1 UNK         0.0600 
    167 H167        2.9006  -19.5873  -37.9231 H         1 UNK         0.0600 
    168 H168        3.4669  -17.9340  -38.1284 H         1 UNK         0.0600 
    169 H169        1.6465  -16.2724  -38.4507 H         1 UNK         0.3000 
    170 H170       -0.8090  -14.6377  -40.4479 H         1 UNK         0.0600 
    171 H171       -0.5209  -14.8025  -37.4020 H         1 UNK         0.0600 
    172 H172       -1.3365  -13.5263  -38.3066 H         1 UNK         0.0600 
    173 H173       -1.9893  -15.1561  -38.3046 H         1 UNK         0.0600 
    174 H174        1.1075  -13.4801  -38.7894 H         1 UNK         0.3000 
    175 H175        2.7732  -12.3839  -39.5918 H         1 UNK         0.0600 
    176 H176        5.1772  -13.0281  -39.9377 H         1 UNK         0.0600 
    177 H177        4.6536  -14.5288  -40.7024 H         1 UNK         0.0600 
    178 H178        4.2688  -14.2198  -39.0203 H         1 UNK         0.0600 
    179 H179        2.7260  -11.3103  -41.5003 H         1 UNK         0.3000 
    180 H180        2.6512  -10.8208  -43.6509 H         1 UNK         0.0600 
    181 H181        5.6561  -11.1383  -44.2003 H         1 UNK         0.0600 
    182 H182        4.9419  -10.0581  -43.0098 H         1 UNK         0.0600 
    183 H183        4.6517   -9.7846  -44.7207 H         1 UNK         0.0600 
    184 H184        4.1122  -12.1959  -45.7685 H         1 UNK         0.3000 
    185 H185        2.8588  -12.9559  -47.5700 H         1 UNK         0.0600 
    186 H186        3.7559  -14.8327  -46.1820 H         1 UNK         0.0600 
    187 H187        2.1296  -15.4306  -45.9001 H         1 UNK         0.0600 
    188 H188        2.8157  -15.4623  -47.5254 H         1 UNK         0.0600 
    189 H189        0.4797  -14.5231  -47.5111 H         1 UNK         0.3000 
    190 H190       -1.5290  -20.1021  -46.1262 H         1 UNK         0.3000 
    191 H191       -3.3174  -20.6601  -48.2028 H         1 UNK         0.0600 
    192 H192       -3.8171  -19.0875  -46.3630 H         1 UNK         0.0600 
    193 H193       -5.0777  -20.3074  -46.4600 H         1 UNK         0.0600 
    194 H194       -3.8548  -20.4083  -45.1979 H         1 UNK         0.0600 
    195 H195       -2.4672  -22.7089  -45.3779 H         1 UNK         0.3000 
    196 H196       -4.2520  -24.8422  -45.9180 H         1 UNK         0.0600 
    197 H197       -2.7224  -26.1397  -44.4148 H         1 UNK         0.0600 
    198 H198       -3.1168  -24.5643  -43.7435 H         1 UNK         0.0600 
    199 H199       -1.5423  -24.8352  -44.4853 H         1 UNK         0.0600 
    200 H200       -0.8285  -24.3581  -46.9353 H         1 UNK         0.3000 
    201 H201       -0.5685  -26.7836  -48.4028 H         1 UNK         0.0600 
    202 H202        1.3739  -25.4608  -47.6182 H         1 UNK         0.0600 
    203 H203        0.9307  -24.1234  -48.6758 H         1 UNK         0.0600 
    204 H204        1.4466  -25.6589  -49.3632 H         1 UNK         0.0600 
    205 H205       -1.6460  -23.5314  -49.3590 H         1 UNK         0.3000 
    206 H206       -2.0803  -24.2553  -52.1540 H         1 UNK         0.0600 
    207 H207       -1.2101  -22.0460  -51.5970 H         1 UNK         0.0600 
    208 H208       -2.8033  -21.8447  -52.2994 H         1 UNK         0.0600 
    209 H209       -2.5867  -21.7037  -50.5547 H         1 UNK         0.0600 
    210 H210       -3.7564  -25.4361  -49.7676 H         1 UNK         0.3000 
    211 H211       -5.7819  -26.2856  -49.4627 H         1 UNK         0.0600 
    212 H212       -6.0876  -25.9143  -52.4906 H         1 UNK         0.0600 
    213 H213       -7.0213  -27.0130  -51.4838 H         1 UNK         0.0600 
    214 H214       -5.2970  -27.2735  -51.6935 H         1 UNK         0.0600 
    215 H215       -5.8444  -23.9511  -48.4707 H         1 UNK         0.3000 
    216 H216       -7.1245  -22.4156  -47.5609 H         1 UNK         0.0600 
    217 H217       -9.5309  -22.2101  -47.8823 H         1 UNK         0.0600 
    218 H218       -9.1286  -23.9154  -47.7635 H         1 UNK         0.0600 
    219 H219       -9.4942  -23.1968  -49.3325 H         1 UNK         0.0600 
    220 H220       -5.2933  -21.9079  -49.4390 H         1 UNK         0.3000 
    221 H221       -4.3621  -20.3100  -50.6837 H         1 UNK         0.0600 
    222 H222       -6.5255  -18.4894  -49.5187 H         1 UNK         0.0600 
    223 H223       -5.0088  -18.9109  -48.7293 H         1 UNK         0.0600 
    224 H224       -4.9936  -17.9745  -50.2115 H         1 UNK         0.0600 
    225 H225       -5.6358  -21.9152  -52.3408 H         1 UNK         0.3000 
    226 H226       -7.4430  -20.5912  -54.1652 H         1 UNK         0.0600 
    227 H227       -7.2844  -23.0934  -53.8938 H         1 UNK         0.0600 
    228 H228       -7.0273  -22.5951  -55.5597 H         1 UNK         0.0600 
    229 H229       -5.6543  -23.0555  -54.5615 H         1 UNK         0.0600 
    230 H230       -6.9679  -19.8492  -56.2753 H         1 UNK         0.3000 
    231 H231       -4.7339  -18.1662  -56.5464 H         1 UNK         0.0600 
    232 H232       -6.7353  -19.1499  -58.6515 H         1 UNK         0.0600 
    233 H233       -5.6792  -17.7537  -58.8264 H         1 UNK         0.0600 
    234 H234       -6.9382  -17.7449  -57.6033 H         1 UNK         0.0600 
    235 H235       -4.9586  -21.5173  -57.3125 H         1 UNK         0.3000 
    236 H236       -2.8225  -21.6687  -59.2670 H         1 UNK         0.0600 
    237 H237       -4.6020  -23.3978  -59.1161 H         1 UNK         0.0600 
    238 H238       -3.0292  -24.1191  -58.8201 H         1 UNK         0.0600 
    239 H239       -4.1104  -23.7967  -57.4697 H         1 UNK         0.0600 
    240 H240       -2.8728  -21.1786  -55.8353 H         1 UNK         0.3000 
    241 H241       -1.3753  -21.0438  -54.2558 H         1 UNK         0.0600 
    242 H242       -2.0985  -23.9329  -55.3818 H         1 UNK         0.3800 
    243 H243       -0.9949  -24.9156  -54.4546 H         1 UNK         0.3800 
    244 H244        0.8277  -21.1756  -56.3706 H         1 UNK         0.0800 
    245 H245        1.0428  -20.6910  -54.7192 H         1 UNK         0.0800 
    246 H246        1.9558  -18.5599  -54.7588 H         1 UNK         0.0800 
    247 H247        1.2830  -17.1074  -55.4342 H         1 UNK         0.0800 
@<TRIPOS>BOND
     1    1    2 1    
     2    1  127 1    
     3    1  128 1    
     4    1  129 1    
     5    2    3 2    
     6    2    4 am   BACKBONE|DICT|INTERRES
     7    4    5 1    
     8    4  130 1    
     9    5    6 1    
    10    5   65 1    
    11    5  131 1    
    12    6    7 1    
    13    6  132 1    
    14    6  133 1    
    15    7    8 1    
    16    8    9 1    
    17    8  134 1    
    18    8  135 1    
    19    9   10 ar   
    20    9   14 ar   
    21   10   11 ar   
    22   10  136 1    
    23   11   12 ar   
    24   11  126 1    
    25   12   13 ar   
    26   12  137 1    
    27   13   14 ar   
    28   13   15 1    
    29   14  138 1    
    30   15   16 1    
    31   15  139 1    
    32   15  140 1    
    33   16   17 1    
    34   17   18 1    
    35   17  141 1    
    36   17  142 1    
    37   18   19 1    
    38   18   67 1    
    39   18  143 1    
    40   19   20 am   BACKBONE|DICT|INTERRES
    41   19  144 1    
    42   20   21 2    
    43   20   22 1    
    44   22   23 1    
    45   22   24 1    
    46   22  145 1    
    47   23  146 1    
    48   23  147 1    
    49   23  148 1    
    50   24   25 am   BACKBONE|DICT|INTERRES
    51   24  149 1    
    52   25   26 2    
    53   25   27 1    
    54   27   28 1    
    55   27   29 1    
    56   27  150 1    
    57   28  151 1    
    58   28  152 1    
    59   28  153 1    
    60   29   30 am   BACKBONE|DICT|INTERRES
    61   29  154 1    
    62   30   31 2    
    63   30   32 1    
    64   32   33 1    
    65   32   34 1    
    66   32  155 1    
    67   33  156 1    
    68   33  157 1    
    69   33  158 1    
    70   34   35 am   BACKBONE|DICT|INTERRES
    71   34  159 1    
    72   35   36 2    
    73   35   37 1    
    74   37   38 1    
    75   37   39 1    
    76   37  160 1    
    77   38  161 1    
    78   38  162 1    
    79   38  163 1    
    80   39   40 am   BACKBONE|DICT|INTERRES
    81   39  164 1    
    82   40   41 2    
    83   40   42 1    
    84   42   43 1    
    85   42   44 1    
    86   42  165 1    
    87   43  166 1    
    88   43  167 1    
    89   43  168 1    
    90   44   45 am   BACKBONE|DICT|INTERRES
    91   44  169 1    
    92   45   46 2    
    93   45   47 1    
    94   47   48 1    
    95   47   49 1    
    96   47  170 1    
    97   48  171 1    
    98   48  172 1    
    99   48  173 1    
   100   49   50 am   BACKBONE|DICT|INTERRES
   101   49  174 1    
   102   50   51 2    
   103   50   52 1    
   104   52   53 1    
   105   52   54 1    
   106   52  175 1    
   107   53  176 1    
   108   53  177 1    
   109   53  178 1    
   110   54   55 am   BACKBONE|DICT|INTERRES
   111   54  179 1    
   112   55   56 2    
   113   55   57 1    
   114   57   58 1    
   115   57   59 1    
   116   57  180 1    
   117   58  181 1    
   118   58  182 1    
   119   58  183 1    
   120   59   60 am   BACKBONE|DICT|INTERRES
   121   59  184 1    
   122   60   61 2    
   123   60   62 1    
   124   62   63 1    
   125   62   64 1    
   126   62  185 1    
   127   63  186 1    
   128   63  187 1    
   129   63  188 1    
   130   64   65 am   BACKBONE|DICT|INTERRES
   131   64  189 1    
   132   65   66 2    
   133   67   68 2    
   134   67   69 am   BACKBONE|DICT|INTERRES
   135   69   70 1    
   136   69  190 1    
   137   70   71 1    
   138   70   72 1    
   139   70  191 1    
   140   71  192 1    
   141   71  193 1    
   142   71  194 1    
   143   72   73 2    
   144   72   74 am   BACKBONE|DICT|INTERRES
   145   74   75 1    
   146   74  195 1    
   147   75   76 1    
   148   75   77 1    
   149   75  196 1    
   150   76  197 1    
   151   76  198 1    
   152   76  199 1    
   153   77   78 2    
   154   77   79 am   BACKBONE|DICT|INTERRES
   155   79   80 1    
   156   79  200 1    
   157   80   81 1    
   158   80   82 1    
   159   80  201 1    
   160   81  202 1    
   161   81  203 1    
   162   81  204 1    
   163   82   83 2    
   164   82   84 am   BACKBONE|DICT|INTERRES
   165   84   85 1    
   166   84  205 1    
   167   85   86 1    
   168   85   87 1    
   169   85  206 1    
   170   86  207 1    
   171   86  208 1    
   172   86  209 1    
   173   87   88 2    
   174   87   89 am   BACKBONE|DICT|INTERRES
   175   89   90 1    
   176   89  210 1    
   177   90   91 1    
   178   90   92 1    
   179   90  211 1    
   180   91  212 1    
   181   91  213 1    
   182   91  214 1    
   183   92   93 2    
   184   92   94 am   BACKBONE|DICT|INTERRES
   185   94   95 1    
   186   94  215 1    
   187   95   96 1    
   188   95   97 1    
   189   95  216 1    
   190   96  217 1    
   191   96  218 1    
   192   96  219 1    
   193   97   98 2    
   194   97   99 am   BACKBONE|DICT|INTERRES
   195   99  100 1    
   196   99  220 1    
   197  100  101 1    
   198  100  102 1    
   199  100  221 1    
   200  101  222 1    
   201  101  223 1    
   202  101  224 1    
   203  102  103 2    
   204  102  104 am   BACKBONE|DICT|INTERRES
   205  104  105 1    
   206  104  225 1    
   207  105  106 1    
   208  105  107 1    
   209  105  226 1    
   210  106  227 1    
   211  106  228 1    
   212  106  229 1    
   213  107  108 2    
   214  107  109 am   BACKBONE|DICT|INTERRES
   215  109  110 1    
   216  109  230 1    
   217  110  111 1    
   218  110  112 1    
   219  110  231 1    
   220  111  232 1    
   221  111  233 1    
   222  111  234 1    
   223  112  113 2    
   224  112  114 am   BACKBONE|DICT|INTERRES
   225  114  115 1    
   226  114  235 1    
   227  115  116 1    
   228  115  117 1    
   229  115  236 1    
   230  116  237 1    
   231  116  238 1    
   232  116  239 1    
   233  117  118 2    
   234  117  119 am   BACKBONE|DICT|INTERRES
   235  119  120 1    
   236  119  240 1    
   237  120  121 1    
   238  120  124 1    
   239  120  241 1    
   240  121  122 am   BACKBONE|DICT|INTERRES
   241  121  123 2    
   242  122  242 1    
   243  122  243 1    
   244  124  125 1    
   245  124  244 1    
   246  124  245 1    
   247  125  126 1    
   248  126  246 1    
   249  126  247 1    
@<TRIPOS>SUBSTRUCTURE
     1 UNK         1 GROUP             0       ****    0 ROOT    
