@<TRIPOS>MOLECULE
3R540
247   249    1
SMALL
USER_CHARGES


@<TRIPOS>ATOM
      1 CA          5.3840  -13.5345  -46.4281 C.3       0 UNK        -0.1800 
      2 C           3.9104  -13.1645  -46.4949 C.2       0 UNK         0.5000 
      3 O           3.3450  -12.7297  -45.4929 O.2       0 UNK        -0.5000 
      4 N           3.2920  -13.3164  -47.6736 N.am      1 UNK        -0.5000 
      5 CA          1.8615  -13.0903  -47.9352 C.3       1 UNK         0.1400 
      6 C6          1.4721  -13.4210  -49.3992 C.3       23 UNK        -0.0398 
      7 S7          2.1221  -15.0128  -50.0134 S.3       23 UNK        -0.2404 
      8 C8          0.7384  -16.1361  -49.6696 C.3       23 UNK        -0.0205 
      9 C9          0.8531  -17.4023  -50.5018 C.ar      23 UNK        -0.0193 
     10 C10         0.1166  -17.5320  -51.6822 C.ar      23 UNK        -0.1150 
     11 C11         0.2258  -18.6834  -52.4687 C.ar      23 UNK        -0.0193 
     12 C12         1.0921  -19.7039  -52.0690 C.ar      23 UNK        -0.1150 
     13 C13         1.8205  -19.5945  -50.8810 C.ar      23 UNK        -0.0193 
     14 C14         1.6955  -18.4421  -50.0987 C.ar      23 UNK        -0.1150 
     15 C15         2.7325  -20.7301  -50.4411 C.3       23 UNK        -0.0205 
     16 S16         1.7874  -22.2080  -49.9521 S.3       23 UNK        -0.2404 
     17 C17         0.8097  -21.5545  -48.5583 C.3       23 UNK        -0.0398 
     18 CA          0.4159  -22.6625  -47.5546 C.3       11 UNK         0.1400 
     19 N           0.2454  -22.1489  -46.1952 N.am      11 UNK        -0.5000 
     20 C           0.1188  -22.9251  -45.1095 C.2       10 UNK         0.5000 
     21 O           0.1787  -24.1551  -45.1362 O.2       10 UNK        -0.5000 
     22 CA         -0.1666  -22.2094  -43.7783 C.3       10 UNK         0.1400 
     23 CB          1.1325  -21.6632  -43.1678 C.3       10 UNK        -0.1800 
     24 N          -1.1398  -21.1257  -43.9227 N.am      10 UNK        -0.5000 
     25 C          -2.4187  -21.3001  -44.2866 C.2       9 UNK         0.5000 
     26 O          -2.9240  -22.4027  -44.4935 O.2       9 UNK        -0.5000 
     27 CA         -3.2632  -20.0313  -44.5038 C.3       9 UNK         0.1400 
     28 CB         -3.7371  -19.4520  -43.1633 C.3       9 UNK        -0.1800 
     29 N          -2.5536  -19.0016  -45.2635 N.am      9 UNK        -0.5000 
     30 C          -2.1220  -19.1486  -46.5243 C.2       8 UNK         0.5000 
     31 O          -2.2917  -20.1651  -47.1942 O.2       8 UNK        -0.5000 
     32 CA         -1.3276  -17.9776  -47.1216 C.3       8 UNK         0.1400 
     33 CB         -2.2755  -16.8682  -47.6023 C.3       8 UNK        -0.1800 
     34 N          -0.3654  -17.4304  -46.1655 N.am      8 UNK        -0.5000 
     35 C           0.7170  -18.0871  -45.7235 C.2       7 UNK         0.5000 
     36 O           1.0420  -19.2101  -46.1078 O.2       7 UNK        -0.5000 
     37 CA          1.5449  -17.3879  -44.6309 C.3       7 UNK         0.1400 
     38 CB          2.4594  -16.3176  -45.2452 C.3       7 UNK        -0.1800 
     39 N           0.7002  -16.7788  -43.6023 N.am      7 UNK        -0.5000 
     40 C          -0.0824  -17.4731  -42.7608 C.2       6 UNK         0.5000 
     41 O          -0.1311  -18.7015  -42.7331 O.2       6 UNK        -0.5000 
     42 CA         -1.0045  -16.6678  -41.8250 C.3       6 UNK         0.1400 
     43 CB         -0.2925  -16.3704  -40.4972 C.3       6 UNK        -0.1800 
     44 N          -1.4698  -15.4111  -42.4099 N.am      6 UNK        -0.5000 
     45 C          -2.1518  -15.2845  -43.5578 C.2       5 UNK         0.5000 
     46 O          -2.5480  -16.2435  -44.2200 O.2       5 UNK        -0.5000 
     47 CA         -2.3882  -13.8502  -44.0753 C.3       5 UNK         0.1400 
     48 CB         -3.8535  -13.4391  -43.8698 C.3       5 UNK        -0.1800 
     49 N          -1.5150  -12.8554  -43.4407 N.am      5 UNK        -0.5000 
     50 C          -0.1871  -12.7865  -43.6075 C.2       4 UNK         0.5000 
     51 O           0.4490  -13.5266  -44.3604 O.2       4 UNK        -0.5000 
     52 CA          0.5518  -11.7997  -42.6971 C.3       4 UNK         0.1400 
     53 CB          1.0289  -12.5141  -41.4178 C.3       4 UNK        -0.1800 
     54 N           1.6880  -11.2161  -43.4007 N.am      4 UNK        -0.5000 
     55 C           2.2816  -10.0674  -43.0501 C.2       3 UNK         0.5000 
     56 O           1.9466   -9.3941  -42.0742 O.2       3 UNK        -0.5000 
     57 CA          3.4209   -9.5641  -43.9498 C.3       3 UNK         0.1400 
     58 CB          4.7462  -10.2666  -43.6132 C.3       3 UNK        -0.1800 
     59 N           3.1028   -9.7466  -45.3647 N.am      3 UNK        -0.5000 
     60 C           2.3315   -8.9110  -46.0755 C.2       2 UNK         0.5000 
     61 O           1.8388   -7.8810  -45.6132 O.2       2 UNK        -0.5000 
     62 CA          2.0736   -9.2634  -47.5529 C.3       2 UNK         0.1400 
     63 CB          2.9815   -8.4272  -48.4684 C.3       2 UNK        -0.1800 
     64 N           2.2883  -10.6793  -47.8466 N.am      2 UNK        -0.5000 
     65 C           1.4026  -11.6541  -47.5995 C.2       1 UNK         0.5000 
     66 O           0.2801  -11.4590  -47.1329 O.2       1 UNK        -0.5000 
     67 C          -0.8222  -23.4557  -48.0196 C.2       11 UNK         0.5000 
     68 O          -0.6697  -24.5682  -48.5187 O.2       11 UNK        -0.5000 
     69 N          -2.0251  -22.9083  -47.7919 N.am      12 UNK        -0.5000 
     70 CA         -3.3056  -23.5553  -48.0825 C.3       12 UNK         0.1400 
     71 CB         -4.4505  -22.5649  -47.8368 C.3       12 UNK        -0.1800 
     72 C          -3.5308  -24.8491  -47.2825 C.2       12 UNK         0.5000 
     73 O          -4.0751  -25.8050  -47.8325 O.2       12 UNK        -0.5000 
     74 N          -3.0921  -24.8791  -46.0176 N.am      13 UNK        -0.5000 
     75 CA         -3.1257  -26.0713  -45.1700 C.3       13 UNK         0.1400 
     76 CB         -2.7746  -25.6910  -43.7237 C.3       13 UNK        -0.1800 
     77 C          -2.1997  -27.1884  -45.6876 C.2       13 UNK         0.5000 
     78 O          -2.5930  -28.3551  -45.6732 O.2       13 UNK        -0.5000 
     79 N          -1.0029  -26.8108  -46.1577 N.am      14 UNK        -0.5000 
     80 CA         -0.0205  -27.7214  -46.7453 C.3       14 UNK         0.1400 
     81 CB          1.3476  -27.0237  -46.8038 C.3       14 UNK        -0.1800 
     82 C          -0.4374  -28.2293  -48.1390 C.2       14 UNK         0.5000 
     83 O          -0.3140  -29.4234  -48.4139 O.2       14 UNK        -0.5000 
     84 N          -0.9196  -27.3162  -48.9916 N.am      15 UNK        -0.5000 
     85 CA         -1.3125  -27.5829  -50.3771 C.3       15 UNK         0.1400 
     86 CB         -1.2889  -26.2596  -51.1582 C.3       15 UNK        -0.1800 
     87 C          -2.6860  -28.2672  -50.5225 C.2       15 UNK         0.5000 
     88 O          -2.9731  -28.7894  -51.6004 O.2       15 UNK        -0.5000 
     89 N          -3.4967  -28.2503  -49.4535 N.am      16 UNK        -0.5000 
     90 CA         -4.8919  -28.6956  -49.3800 C.3       16 UNK         0.1400 
     91 CB         -5.0313  -30.2021  -49.6865 C.3       16 UNK        -0.1800 
     92 C          -5.7956  -27.7980  -50.2483 C.2       16 UNK         0.5000 
     93 O          -6.3495  -28.2455  -51.2546 O.2       16 UNK        -0.5000 
     94 N          -5.8883  -26.5300  -49.8266 N.am      17 UNK        -0.5000 
     95 CA         -6.5055  -25.3866  -50.5030 C.3       17 UNK         0.1400 
     96 CB         -7.9901  -25.6443  -50.8450 C.3       17 UNK        -0.1800 
     97 C          -5.6538  -24.9150  -51.6993 C.2       17 UNK         0.5000 
     98 O          -4.4476  -25.1670  -51.7220 O.2       17 UNK        -0.5000 
     99 N          -6.2726  -24.1799  -52.6355 N.am      18 UNK        -0.5000 
    100 CA        -5.7185  -23.5837  -53.8640 C.3       18 UNK         0.1400 
    101 CB        -5.1484  -24.6631  -54.8039 C.3       18 UNK        -0.1800 
    102 C         -4.6937  -22.4513  -53.6376 C.2       18 UNK         0.5000 
    103 O         -4.7632  -21.4270  -54.3163 O.2       18 UNK        -0.5000 
    104 N         -3.7856  -22.6316  -52.6733 N.am      19 UNK        -0.5000 
    105 CA        -2.7375  -21.6874  -52.2808 C.3       19 UNK         0.1400 
    106 CB        -1.5659  -22.4804  -51.6850 C.3       19 UNK        -0.1800 
    107 C         -3.2228  -20.5838  -51.3143 C.2       19 UNK         0.5000 
    108 O         -2.4038  -19.8296  -50.7889 O.2       19 UNK        -0.5000 
    109 N         -4.5392  -20.4962  -51.0883 N.am      20 UNK        -0.5000 
    110 CA        -5.2014  -19.5163  -50.2304 C.3       20 UNK         0.1400 
    111 CB        -6.6197  -20.0260  -49.9158 C.3       20 UNK        -0.1800 
    112 C         -5.2029  -18.1020  -50.8499 C.2       20 UNK         0.5000 
    113 O         -6.2419  -17.6361  -51.3202 O.2       20 UNK        -0.5000 
    114 N         -4.0298  -17.4549  -50.8236 N.am      21 UNK        -0.5000 
    115 CA        -3.7539  -16.0743  -51.2347 C.3       21 UNK         0.1400 
    116 CB        -4.5189  -15.0702  -50.3466 C.3       21 UNK        -0.1800 
    117 C         -3.9839  -15.8523  -52.7426 C.2       21 UNK         0.5000 
    118 O         -4.8772  -15.1025  -53.1420 O.2       21 UNK        -0.5000 
    119 N         -3.1606  -16.5309  -53.5491 N.am      22 UNK        -0.5000 
    120 CA        -3.0675  -16.3795  -55.0098 C.3       22 UNK         0.1400 
    121 C         -2.6715  -14.9455  -55.4745 C.2       22 UNK         0.5000 
    122 N         -3.0579  -14.5536  -56.6815 N.am      22 UNK        -0.7600 
    123 O         -1.9963  -14.1972  -54.7704 O.2       22 UNK        -0.5000 
    124 C124       -2.1360  -17.4587  -55.6292 C.3       23 UNK        -0.0398 
    125 S125       -0.4545  -17.5012  -54.9044 S.3       23 UNK        -0.2404 
    126 C126       -0.6418  -18.8591  -53.7067 C.3       23 UNK        -0.0205 
    127 H127        5.9728  -12.6723  -46.1149 H         1 UNK         0.0600 
    128 H128        5.7613  -13.8743  -47.3929 H         1 UNK         0.0600 
    129 H129        5.5344  -14.3336  -45.7022 H         1 UNK         0.0600 
    130 H130        3.8115  -13.6880  -48.4567 H         1 UNK         0.3000 
    131 H131        1.3087  -13.7643  -47.2778 H         1 UNK         0.0600 
    132 H132        0.3873  -13.4015  -49.5174 H         1 UNK         0.0800 
    133 H133        1.8552  -12.6527  -50.0739 H         1 UNK         0.0800 
    134 H134        0.7351  -16.3804  -48.6072 H         1 UNK         0.0800 
    135 H135       -0.2075  -15.6375  -49.8839 H         1 UNK         0.0800 
    136 H136       -0.5415  -16.7334  -51.9910 H         1 UNK         0.1150 
    137 H137        1.1777  -20.6030  -52.6630 H         1 UNK         0.1150 
    138 H138        2.2572  -18.3482  -49.1798 H         1 UNK         0.1150 
    139 H139        3.4004  -20.9924  -51.2626 H         1 UNK         0.0800 
    140 H140        3.3719  -20.4194  -49.6133 H         1 UNK         0.0800 
    141 H141       -0.0604  -21.0116  -48.9346 H         1 UNK         0.0800 
    142 H142        1.4323  -20.8133  -48.0584 H         1 UNK         0.0800 
    143 H143        1.2451  -23.3718  -47.4990 H         1 UNK         0.0600 
    144 H144        0.2163  -21.1409  -46.0878 H         1 UNK         0.3000 
    145 H145       -0.5841  -22.9454  -43.0882 H         1 UNK         0.0600 
    146 H146        0.9545  -21.2404  -42.1790 H         1 UNK         0.0600 
    147 H147        1.8750  -22.4541  -43.0544 H         1 UNK         0.0600 
    148 H148        1.5730  -20.8833  -43.7902 H         1 UNK         0.0600 
    149 H149       -0.8064  -20.1877  -43.7168 H         1 UNK         0.3000 
    150 H150       -4.1459  -20.3140  -45.0811 H         1 UNK         0.0600 
    151 H151       -4.3488  -20.1752  -42.6228 H         1 UNK         0.0600 
    152 H152       -4.3417  -18.5566  -43.3095 H         1 UNK         0.0600 
    153 H153       -2.8979  -19.1898  -42.5201 H         1 UNK         0.0600 
    154 H154       -2.4073  -18.1079  -44.8033 H         1 UNK         0.3000 
    155 H155       -0.7767  -18.3561  -47.9856 H         1 UNK         0.0600 
    156 H156       -2.8701  -16.4551  -46.7882 H         1 UNK         0.0600 
    157 H157       -2.9740  -17.2580  -48.3407 H         1 UNK         0.0600 
    158 H158       -1.7327  -16.0457  -48.0653 H         1 UNK         0.0600 
    159 H159       -0.5969  -16.5421  -45.7456 H         1 UNK         0.3000 
    160 H160        2.1733  -18.1422  -44.1526 H         1 UNK         0.0600 
    161 H161        1.8844  -15.5207  -45.7169 H         1 UNK         0.0600 
    162 H162        3.1107  -16.7472  -46.0074 H         1 UNK         0.0600 
    163 H163        3.0987  -15.8614  -44.4891 H         1 UNK         0.0600 
    164 H164        0.6668  -15.7678  -43.5834 H         1 UNK         0.3000 
    165 H165       -1.8833  -17.2785  -41.6133 H         1 UNK         0.0600 
    166 H166       -0.9584  -15.8682  -39.7952 H         1 UNK         0.0600 
    167 H167        0.0444  -17.2921  -40.0206 H         1 UNK         0.0600 
    168 H168        0.5835  -15.7369  -40.6425 H         1 UNK         0.0600 
    169 H169       -1.2022  -14.5667  -41.9288 H         1 UNK         0.3000 
    170 H170       -2.1789  -13.8532  -45.1472 H         1 UNK         0.0600 
    171 H171       -4.5289  -14.1441  -44.3567 H         1 UNK         0.0600 
    172 H172       -4.1188  -13.4075  -42.8123 H         1 UNK         0.0600 
    173 H173       -4.0509  -12.4555  -44.2965 H         1 UNK         0.0600 
    174 H174       -1.9615  -12.2197  -42.7950 H         1 UNK         0.3000 
    175 H175       -0.1411  -11.0002  -42.4257 H         1 UNK         0.0600 
    176 H176        1.7385  -13.3106  -41.6463 H         1 UNK         0.0600 
    177 H177        1.5156  -11.8218  -40.7308 H         1 UNK         0.0600 
    178 H178        0.1922  -12.9616  -40.8804 H         1 UNK         0.0600 
    179 H179        2.0216  -11.7396  -44.2066 H         1 UNK         0.3000 
    180 H180        3.5568   -8.4980  -43.7544 H         1 UNK         0.0600 
    181 H181        4.6790  -11.3481  -43.7296 H         1 UNK         0.0600 
    182 H182        5.0352  -10.0700  -42.5800 H         1 UNK         0.0600 
    183 H183        5.5553   -9.9098  -44.2504 H         1 UNK         0.0600 
    184 H184        3.3987  -10.6194  -45.7824 H         1 UNK         0.3000 
    185 H185        1.0359   -9.0072  -47.7777 H         1 UNK         0.0600 
    186 H186        2.8292   -7.3601  -48.3011 H         1 UNK         0.0600 
    187 H187        4.0369   -8.6395  -48.2924 H         1 UNK         0.0600 
    188 H188        2.7696   -8.6230  -49.5197 H         1 UNK         0.0600 
    189 H189        3.1875  -10.9331  -48.2299 H         1 UNK         0.3000 
    190 H190       -2.0738  -21.9650  -47.4108 H         1 UNK         0.3000 
    191 H191       -3.3122  -23.8235  -49.1404 H         1 UNK         0.0600 
    192 H192       -4.3253  -21.6705  -48.4437 H         1 UNK         0.0600 
    193 H193       -5.4146  -23.0045  -48.0937 H         1 UNK         0.0600 
    194 H194       -4.4968  -22.2537  -46.7930 H         1 UNK         0.0600 
    195 H195       -2.7289  -24.0269  -45.6013 H         1 UNK         0.3000 
    196 H196       -4.1470  -26.4578  -45.1773 H         1 UNK         0.0600 
    197 H197       -2.8193  -26.5624  -43.0693 H         1 UNK         0.0600 
    198 H198       -3.4734  -24.9526  -43.3304 H         1 UNK         0.0600 
    199 H199       -1.7705  -25.2741  -43.6470 H         1 UNK         0.0600 
    200 H200       -0.7446  -25.8317  -46.1049 H         1 UNK         0.3000 
    201 H201        0.0742  -28.5895  -46.0895 H         1 UNK         0.0600 
    202 H202        1.6801  -26.7267  -45.8090 H         1 UNK         0.0600 
    203 H203        1.3192  -26.1282  -47.4255 H         1 UNK         0.0600 
    204 H204        2.1076  -27.6876  -47.2174 H         1 UNK         0.0600 
    205 H205       -0.9356  -26.3385  -48.7038 H         1 UNK         0.3000 
    206 H206       -0.5709  -28.2490  -50.8228 H         1 UNK         0.0600 
    207 H207       -0.2973  -25.8069  -51.1424 H         1 UNK         0.0600 
    208 H208       -1.5635  -26.4101  -52.2030 H         1 UNK         0.0600 
    209 H209       -1.9904  -25.5396  -50.7367 H         1 UNK         0.0600 
    210 H210       -3.1707  -27.7371  -48.6446 H         1 UNK         0.3000 
    211 H211       -5.2031  -28.5489  -48.3443 H         1 UNK         0.0600 
    212 H212       -4.7885  -30.4394  -50.7223 H         1 UNK         0.0600 
    213 H213       -6.0541  -30.5366  -49.5109 H         1 UNK         0.0600 
    214 H214       -4.3799  -30.7954  -49.0450 H         1 UNK         0.0600 
    215 H215       -5.3053  -26.2792  -49.0289 H         1 UNK         0.3000 
    216 H216       -6.4763  -24.5727  -49.7779 H         1 UNK         0.0600 
    217 H217       -8.5044  -24.7174  -51.0998 H         1 UNK         0.0600 
    218 H218       -8.5191  -26.0762  -49.9954 H         1 UNK         0.0600 
    219 H219       -8.1034  -26.3252  -51.6892 H         1 UNK         0.0600 
    220 H220       -7.2586  -24.0058  -52.4990 H         1 UNK         0.3000 
    221 H221       -6.5691  -23.1294  -54.3748 H         1 UNK         0.0600 
    222 H222       -4.2735  -25.1561  -54.3792 H         1 UNK         0.0600 
    223 H223       -5.8924  -25.4297  -55.0205 H         1 UNK         0.0600 
    224 H224       -4.8440  -24.2272  -55.7562 H         1 UNK         0.0600 
    225 H225       -3.8104  -23.5237  -52.1832 H         1 UNK         0.3000 
    226 H226       -2.3751  -21.1866  -53.1791 H         1 UNK         0.0600 
    227 H227       -1.1688  -23.2001  -52.4008 H         1 UNK         0.0600 
    228 H228       -0.7478  -21.8182  -51.4054 H         1 UNK         0.0600 
    229 H229       -1.8637  -23.0273  -50.7926 H         1 UNK         0.0600 
    230 H230       -5.1410  -21.1285  -51.5930 H         1 UNK         0.3000 
    231 H231       -4.6550  -19.4555  -49.2864 H         1 UNK         0.0600 
    232 H232       -7.1476  -19.3309  -49.2616 H         1 UNK         0.0600 
    233 H233       -6.5914  -20.9893  -49.4069 H         1 UNK         0.0600 
    234 H234       -7.2170  -20.1442  -50.8208 H         1 UNK         0.0600 
    235 H235       -3.2263  -17.9998  -50.5252 H         1 UNK         0.3000 
    236 H236       -2.6908  -15.9084  -51.0548 H         1 UNK         0.0600 
    237 H237       -4.2892  -15.2201  -49.2919 H         1 UNK         0.0600 
    238 H238       -4.2430  -14.0449  -50.5956 H         1 UNK         0.0600 
    239 H239       -5.5991  -15.1544  -50.4689 H         1 UNK         0.0600 
    240 H240       -2.4485  -17.1094  -53.1327 H         1 UNK         0.3000 
    241 H241       -4.0730  -16.5604  -55.3946 H         1 UNK         0.0600 
    242 H242       -2.8000  -13.6325  -57.0012 H         1 UNK         0.3800 
    243 H243       -3.6101  -15.1461  -57.2825 H         1 UNK         0.3800 
    244 H244       -2.5972  -18.4418  -55.5239 H         1 UNK         0.0800 
    245 H245       -2.0389  -17.3081  -56.7057 H         1 UNK         0.0800 
    246 H246       -0.4202  -19.8011  -54.2108 H         1 UNK         0.0800 
    247 H247       -1.6778  -18.9229  -53.3775 H         1 UNK         0.0800 
@<TRIPOS>BOND
     1    1    2 1    
     2    1  127 1    
     3    1  128 1    
     4    1  129 1    
     5    2    3 2    
     6    2    4 am   BACKBONE|DICT|INTERRES
     7    4    5 1    
     8    4  130 1    
     9    5    6 1    
    10    5   65 1    
    11    5  131 1    
    12    6    7 1    
    13    6  132 1    
    14    6  133 1    
    15    7    8 1    
    16    8    9 1    
    17    8  134 1    
    18    8  135 1    
    19    9   10 ar   
    20    9   14 ar   
    21   10   11 ar   
    22   10  136 1    
    23   11   12 ar   
    24   11  126 1    
    25   12   13 ar   
    26   12  137 1    
    27   13   14 ar   
    28   13   15 1    
    29   14  138 1    
    30   15   16 1    
    31   15  139 1    
    32   15  140 1    
    33   16   17 1    
    34   17   18 1    
    35   17  141 1    
    36   17  142 1    
    37   18   19 1    
    38   18   67 1    
    39   18  143 1    
    40   19   20 am   BACKBONE|DICT|INTERRES
    41   19  144 1    
    42   20   21 2    
    43   20   22 1    
    44   22   23 1    
    45   22   24 1    
    46   22  145 1    
    47   23  146 1    
    48   23  147 1    
    49   23  148 1    
    50   24   25 am   BACKBONE|DICT|INTERRES
    51   24  149 1    
    52   25   26 2    
    53   25   27 1    
    54   27   28 1    
    55   27   29 1    
    56   27  150 1    
    57   28  151 1    
    58   28  152 1    
    59   28  153 1    
    60   29   30 am   BACKBONE|DICT|INTERRES
    61   29  154 1    
    62   30   31 2    
    63   30   32 1    
    64   32   33 1    
    65   32   34 1    
    66   32  155 1    
    67   33  156 1    
    68   33  157 1    
    69   33  158 1    
    70   34   35 am   BACKBONE|DICT|INTERRES
    71   34  159 1    
    72   35   36 2    
    73   35   37 1    
    74   37   38 1    
    75   37   39 1    
    76   37  160 1    
    77   38  161 1    
    78   38  162 1    
    79   38  163 1    
    80   39   40 am   BACKBONE|DICT|INTERRES
    81   39  164 1    
    82   40   41 2    
    83   40   42 1    
    84   42   43 1    
    85   42   44 1    
    86   42  165 1    
    87   43  166 1    
    88   43  167 1    
    89   43  168 1    
    90   44   45 am   BACKBONE|DICT|INTERRES
    91   44  169 1    
    92   45   46 2    
    93   45   47 1    
    94   47   48 1    
    95   47   49 1    
    96   47  170 1    
    97   48  171 1    
    98   48  172 1    
    99   48  173 1    
   100   49   50 am   BACKBONE|DICT|INTERRES
   101   49  174 1    
   102   50   51 2    
   103   50   52 1    
   104   52   53 1    
   105   52   54 1    
   106   52  175 1    
   107   53  176 1    
   108   53  177 1    
   109   53  178 1    
   110   54   55 am   BACKBONE|DICT|INTERRES
   111   54  179 1    
   112   55   56 2    
   113   55   57 1    
   114   57   58 1    
   115   57   59 1    
   116   57  180 1    
   117   58  181 1    
   118   58  182 1    
   119   58  183 1    
   120   59   60 am   BACKBONE|DICT|INTERRES
   121   59  184 1    
   122   60   61 2    
   123   60   62 1    
   124   62   63 1    
   125   62   64 1    
   126   62  185 1    
   127   63  186 1    
   128   63  187 1    
   129   63  188 1    
   130   64   65 am   BACKBONE|DICT|INTERRES
   131   64  189 1    
   132   65   66 2    
   133   67   68 2    
   134   67   69 am   BACKBONE|DICT|INTERRES
   135   69   70 1    
   136   69  190 1    
   137   70   71 1    
   138   70   72 1    
   139   70  191 1    
   140   71  192 1    
   141   71  193 1    
   142   71  194 1    
   143   72   73 2    
   144   72   74 am   BACKBONE|DICT|INTERRES
   145   74   75 1    
   146   74  195 1    
   147   75   76 1    
   148   75   77 1    
   149   75  196 1    
   150   76  197 1    
   151   76  198 1    
   152   76  199 1    
   153   77   78 2    
   154   77   79 am   BACKBONE|DICT|INTERRES
   155   79   80 1    
   156   79  200 1    
   157   80   81 1    
   158   80   82 1    
   159   80  201 1    
   160   81  202 1    
   161   81  203 1    
   162   81  204 1    
   163   82   83 2    
   164   82   84 am   BACKBONE|DICT|INTERRES
   165   84   85 1    
   166   84  205 1    
   167   85   86 1    
   168   85   87 1    
   169   85  206 1    
   170   86  207 1    
   171   86  208 1    
   172   86  209 1    
   173   87   88 2    
   174   87   89 am   BACKBONE|DICT|INTERRES
   175   89   90 1    
   176   89  210 1    
   177   90   91 1    
   178   90   92 1    
   179   90  211 1    
   180   91  212 1    
   181   91  213 1    
   182   91  214 1    
   183   92   93 2    
   184   92   94 am   BACKBONE|DICT|INTERRES
   185   94   95 1    
   186   94  215 1    
   187   95   96 1    
   188   95   97 1    
   189   95  216 1    
   190   96  217 1    
   191   96  218 1    
   192   96  219 1    
   193   97   98 2    
   194   97   99 am   BACKBONE|DICT|INTERRES
   195   99  100 1    
   196   99  220 1    
   197  100  101 1    
   198  100  102 1    
   199  100  221 1    
   200  101  222 1    
   201  101  223 1    
   202  101  224 1    
   203  102  103 2    
   204  102  104 am   BACKBONE|DICT|INTERRES
   205  104  105 1    
   206  104  225 1    
   207  105  106 1    
   208  105  107 1    
   209  105  226 1    
   210  106  227 1    
   211  106  228 1    
   212  106  229 1    
   213  107  108 2    
   214  107  109 am   BACKBONE|DICT|INTERRES
   215  109  110 1    
   216  109  230 1    
   217  110  111 1    
   218  110  112 1    
   219  110  231 1    
   220  111  232 1    
   221  111  233 1    
   222  111  234 1    
   223  112  113 2    
   224  112  114 am   BACKBONE|DICT|INTERRES
   225  114  115 1    
   226  114  235 1    
   227  115  116 1    
   228  115  117 1    
   229  115  236 1    
   230  116  237 1    
   231  116  238 1    
   232  116  239 1    
   233  117  118 2    
   234  117  119 am   BACKBONE|DICT|INTERRES
   235  119  120 1    
   236  119  240 1    
   237  120  121 1    
   238  120  124 1    
   239  120  241 1    
   240  121  122 am   BACKBONE|DICT|INTERRES
   241  121  123 2    
   242  122  242 1    
   243  122  243 1    
   244  124  125 1    
   245  124  244 1    
   246  124  245 1    
   247  125  126 1    
   248  126  246 1    
   249  126  247 1    
@<TRIPOS>SUBSTRUCTURE
     1 UNK         1 GROUP             0       ****    0 ROOT    
