@<TRIPOS>MOLECULE
3R540
247   249    1
SMALL
USER_CHARGES


@<TRIPOS>ATOM
      1 CA         -0.6235  -12.8314  -45.3015 C.3       0 UNK        -0.1800 
      2 C           0.5609  -12.4746  -46.1862 C.2       0 UNK         0.5000 
      3 O           0.7998  -11.2956  -46.4479 O.2       0 UNK        -0.5000 
      4 N           1.3075  -13.4890  -46.6425 N.am      1 UNK        -0.5000 
      5 CA          2.4224  -13.3744  -47.5980 C.3       1 UNK         0.1400 
      6 C6          2.9120  -14.7580  -48.0937 C.3       23 UNK        -0.0398 
      7 S7          1.5499  -15.8402  -48.6375 S.3       23 UNK        -0.2404 
      8 C8          1.8224  -15.9689  -50.4272 C.3       23 UNK        -0.0205 
      9 C9          0.8637  -16.9907  -51.0151 C.ar      23 UNK        -0.0193 
     10 C10        -0.3444  -16.5862  -51.5877 C.ar      23 UNK        -0.1150 
     11 C11        -1.2416  -17.5344  -52.0862 C.ar      23 UNK        -0.0193 
     12 C12        -0.9315  -18.8935  -51.9868 C.ar      23 UNK        -0.1150 
     13 C13         0.2798  -19.3170  -51.4317 C.ar      23 UNK        -0.0193 
     14 C14         1.1774  -18.3509  -50.9567 C.ar      23 UNK        -0.1150 
     15 C15         0.5662  -20.8205  -51.3860 C.3       23 UNK        -0.0205 
     16 S16         2.0455  -21.3361  -50.4420 S.3       23 UNK        -0.2404 
     17 C17         1.5445  -20.9460  -48.7302 C.3       23 UNK        -0.0398 
     18 CA          1.1746  -22.2083  -47.9133 C.3       11 UNK         0.1400 
     19 N           1.1499  -21.9219  -46.4834 N.am      11 UNK        -0.5000 
     20 C           1.7376  -22.6667  -45.5392 C.2       10 UNK         0.5000 
     21 O           2.4270  -23.6575  -45.7826 O.2       10 UNK        -0.5000 
     22 CA          1.5358  -22.2441  -44.0684 C.3       10 UNK         0.1400 
     23 CB          2.8302  -21.6343  -43.5080 C.3       10 UNK        -0.1800 
     24 N           0.4355  -21.3010  -43.8530 N.am      10 UNK        -0.5000 
     25 C          -0.8596  -21.5655  -44.0711 C.2       9 UNK         0.5000 
     26 O          -1.2762  -22.6530  -44.4691 O.2       9 UNK        -0.5000 
     27 CA         -1.8448  -20.3953  -43.8912 C.3       9 UNK         0.1400 
     28 CB         -2.2223  -20.2241  -42.4137 C.3       9 UNK        -0.1800 
     29 N          -1.3374  -19.1274  -44.4232 N.am      9 UNK        -0.5000 
     30 C          -0.9989  -18.9193  -45.7043 C.2       8 UNK         0.5000 
     31 O          -1.0677  -19.7832  -46.5774 O.2       8 UNK        -0.5000 
     32 CA         -0.4422  -17.5364  -46.0659 C.3       8 UNK         0.1400 
     33 CB         -1.5668  -16.5040  -46.2329 C.3       8 UNK        -0.1800 
     34 N           0.5270  -17.0749  -45.0741 N.am      8 UNK        -0.5000 
     35 C           1.7827  -17.5382  -44.9878 C.2       7 UNK         0.5000 
     36 O           2.2791  -18.3321  -45.7868 O.2       7 UNK        -0.5000 
     37 CA          2.6146  -17.0552  -43.7860 C.3       7 UNK         0.1400 
     38 CB          3.3346  -15.7399  -44.1179 C.3       7 UNK        -0.1800 
     39 N           1.8059  -16.8739  -42.5794 N.am      7 UNK        -0.5000 
     40 C           1.2432  -17.8810  -41.8935 C.2       6 UNK         0.5000 
     41 O           1.3551  -19.0650  -42.2073 O.2       6 UNK        -0.5000 
     42 CA          0.3704  -17.5071  -40.6802 C.3       6 UNK         0.1400 
     43 CB          1.2272  -17.4307  -39.4082 C.3       6 UNK        -0.1800 
     44 N          -0.3513  -16.2463  -40.8471 N.am      6 UNK        -0.5000 
     45 C          -1.2156  -15.9668  -41.8329 C.2       5 UNK         0.5000 
     46 O          -1.5457  -16.7742  -42.7022 O.2       5 UNK        -0.5000 
     47 CA         -1.7566  -14.5255  -41.8875 C.3       5 UNK         0.1400 
     48 CB         -3.1338  -14.4458  -41.2137 C.3       5 UNK        -0.1800 
     49 N          -0.8633  -13.5305  -41.2804 N.am      5 UNK        -0.5000 
     50 C           0.3814  -13.2556  -41.6942 C.2       4 UNK         0.5000 
     51 O           0.9444  -13.8455  -42.6202 O.2       4 UNK        -0.5000 
     52 CA          1.1433  -12.1717  -40.9144 C.3       4 UNK         0.1400 
     53 CB          2.2483  -12.8086  -40.0579 C.3       4 UNK        -0.1800 
     54 N           1.7461  -11.2074  -41.8285 N.am      4 UNK        -0.5000 
     55 C           1.0744  -10.3065  -42.5540 C.2       3 UNK         0.5000 
     56 O          -0.1369  -10.1133  -42.4427 O.2       3 UNK        -0.5000 
     57 CA          1.8728   -9.5018  -43.5985 C.3       3 UNK         0.1400 
     58 CB          2.5163   -8.2486  -42.9749 C.3       3 UNK        -0.1800 
     59 N           2.8463  -10.3023  -44.3552 N.am      3 UNK        -0.5000 
     60 C           3.9934  -10.8637  -43.9424 C.2       2 UNK         0.5000 
     61 O           4.4295  -10.7624  -42.7949 O.2       2 UNK        -0.5000 
     62 CA          4.7305  -11.7348  -44.9762 C.3       2 UNK         0.1400 
     63 CB          5.7613  -12.6824  -44.3359 C.3       2 UNK        -0.1800 
     64 N           3.7520  -12.5246  -45.7197 N.am      2 UNK        -0.5000 
     65 C           3.6164  -12.5613  -47.0504 C.2       1 UNK         0.5000 
     66 O           4.3693  -11.9829  -47.8347 O.2       1 UNK        -0.5000 
     67 C          -0.1789  -22.8045  -48.3420 C.2       11 UNK         0.5000 
     68 O          -0.2218  -23.9401  -48.8126 O.2       11 UNK        -0.5000 
     69 N          -1.2533  -22.0190  -48.1955 N.am      12 UNK        -0.5000 
     70 CA         -2.5761  -22.3106  -48.7360 C.3       12 UNK         0.1400 
     71 CB         -3.3749  -21.0024  -48.8540 C.3       12 UNK        -0.1800 
     72 C          -3.3329  -23.3521  -47.9030 C.2       12 UNK         0.5000 
     73 O          -3.6837  -24.4097  -48.4279 O.2       12 UNK        -0.5000 
     74 N          -3.5836  -23.0383  -46.6237 N.am      13 UNK        -0.5000 
     75 CA         -4.3760  -23.8670  -45.7083 C.3       13 UNK         0.1400 
     76 CB         -4.6758  -23.0955  -44.4145 C.3       13 UNK        -0.1800 
     77 C          -3.7125  -25.2221  -45.4110 C.2       13 UNK         0.5000 
     78 O          -4.4002  -26.2431  -45.3866 O.2       13 UNK        -0.5000 
     79 N          -2.3803  -25.2133  -45.2733 N.am      14 UNK        -0.5000 
     80 CA         -1.5319  -26.3974  -45.1188 C.3       14 UNK         0.1400 
     81 CB         -0.0897  -25.9393  -44.8646 C.3       14 UNK        -0.1800 
     82 C          -1.5806  -27.3643  -46.3210 C.2       14 UNK         0.5000 
     83 O          -1.3422  -28.5589  -46.1434 O.2       14 UNK        -0.5000 
     84 N          -1.9164  -26.8427  -47.5083 N.am      15 UNK        -0.5000 
     85 CA         -2.1126  -27.5945  -48.7479 C.3       15 UNK         0.1400 
     86 CB         -1.4581  -26.8161  -49.9006 C.3       15 UNK        -0.1800 
     87 C          -3.6052  -27.8890  -49.0155 C.2       15 UNK         0.5000 
     88 O          -3.9806  -28.1184  -50.1657 O.2       15 UNK        -0.5000 
     89 N          -4.4265  -27.8869  -47.9536 N.am      16 UNK        -0.5000 
     90 CA         -5.8699  -28.1468  -47.9378 C.3       16 UNK         0.1400 
     91 CB         -6.1891  -29.5810  -48.4116 C.3       16 UNK        -0.1800 
     92 C          -6.6767  -27.0593  -48.6751 C.2       16 UNK         0.5000 
     93 O          -7.5835  -27.3728  -49.4484 O.2       16 UNK        -0.5000 
     94 N          -6.3260  -25.7961  -48.3952 N.am      17 UNK        -0.5000 
     95 CA         -6.9103  -24.5634  -48.9334 C.3       17 UNK         0.1400 
     96 CB         -8.3954  -24.4248  -48.5369 C.3       17 UNK        -0.1800 
     97 C          -6.6562  -24.4133  -50.4454 C.2       17 UNK         0.5000 
     98 O          -7.5852  -24.1585  -51.2147 O.2       17 UNK        -0.5000 
     99 N          -5.3874  -24.5793  -50.8410 N.am      18 UNK        -0.5000 
    100 CA        -4.9126  -24.3770  -52.2081 C.3       18 UNK         0.1400 
    101 CB        -3.4882  -24.9344  -52.3418 C.3       18 UNK        -0.1800 
    102 C         -4.9484  -22.8847  -52.5812 C.2       18 UNK         0.5000 
    103 O         -4.3539  -22.0689  -51.8743 O.2       18 UNK        -0.5000 
    104 N         -5.6433  -22.5561  -53.6771 N.am      19 UNK        -0.5000 
    105 CA        -5.8154  -21.1826  -54.1559 C.3       19 UNK         0.1400 
    106 CB        -7.0010  -21.1348  -55.1319 C.3       19 UNK        -0.1800 
    107 C         -4.5543  -20.6049  -54.8226 C.2       19 UNK         0.5000 
    108 O         -4.3899  -19.3864  -54.8328 O.2       19 UNK        -0.5000 
    109 N         -3.7141  -21.4811  -55.3987 N.am      20 UNK        -0.5000 
    110 CA        -2.4329  -21.1921  -56.0652 C.3       20 UNK         0.1400 
    111 CB        -1.3831  -20.7617  -55.0230 C.3       20 UNK        -0.1800 
    112 C         -2.5264  -20.1843  -57.2357 C.2       20 UNK         0.5000 
    113 O         -1.5282  -19.5483  -57.5774 O.2       20 UNK        -0.5000 
    114 N         -3.7285  -20.0528  -57.8170 N.am      21 UNK        -0.5000 
    115 CA        -4.1271  -19.0805  -58.8406 C.3       21 UNK         0.1400 
    116 CB        -3.3692  -19.3254  -60.1629 C.3       21 UNK        -0.1800 
    117 C         -4.0592  -17.6072  -58.3719 C.2       21 UNK         0.5000 
    118 O         -3.9706  -16.7095  -59.2123 O.2       21 UNK        -0.5000 
    119 N         -4.1202  -17.3707  -57.0531 N.am      22 UNK        -0.5000 
    120 CA        -4.1996  -16.0319  -56.4477 C.3       22 UNK         0.1400 
    121 C         -5.5473  -15.3209  -56.7578 C.2       22 UNK         0.5000 
    122 N         -5.5356  -14.0062  -56.9314 N.am      22 UNK        -0.7600 
    123 O         -6.6080  -15.9412  -56.8013 O.2       22 UNK        -0.5000 
    124 C124       -3.9608  -16.0743  -54.9174 C.3       23 UNK        -0.0398 
    125 S125       -2.2859  -16.6455  -54.4785 S.3       23 UNK        -0.2404 
    126 C126       -2.5431  -17.0895  -52.7330 C.3       23 UNK        -0.0205 
    127 H127       -1.5551  -12.7131  -45.8544 H         1 UNK         0.0600 
    128 H128       -0.6568  -12.1760  -44.4316 H         1 UNK         0.0600 
    129 H129       -0.5613  -13.8599  -44.9472 H         1 UNK         0.0600 
    130 H130        1.0427  -14.4362  -46.4143 H         1 UNK         0.3000 
    131 H131        2.0403  -12.8289  -48.4635 H         1 UNK         0.0600 
    132 H132        3.6286  -14.6386  -48.9082 H         1 UNK         0.0800 
    133 H133        3.4431  -15.2848  -47.2992 H         1 UNK         0.0800 
    134 H134        2.8524  -16.2695  -50.6254 H         1 UNK         0.0800 
    135 H135        1.6818  -14.9921  -50.8925 H         1 UNK         0.0800 
    136 H136       -0.5883  -15.5346  -51.6443 H         1 UNK         0.1150 
    137 H137       -1.6360  -19.6271  -52.3526 H         1 UNK         0.1150 
    138 H138        2.1205  -18.6409  -50.5185 H         1 UNK         0.1150 
    139 H139       -0.3053  -21.3408  -50.9864 H         1 UNK         0.0800 
    140 H140        0.6860  -21.1715  -52.4118 H         1 UNK         0.0800 
    141 H141        0.7418  -20.2068  -48.7214 H         1 UNK         0.0800 
    142 H142        2.3962  -20.4498  -48.2622 H         1 UNK         0.0800 
    143 H143        1.9374  -22.9627  -48.1182 H         1 UNK         0.0600 
    144 H144        0.5750  -21.1408  -46.1944 H         1 UNK         0.3000 
    145 H145        1.3125  -23.1502  -43.5021 H         1 UNK         0.0600 
    146 H146        2.7429  -21.4392  -42.4391 H         1 UNK         0.0600 
    147 H147        3.6765  -22.3088  -43.6443 H         1 UNK         0.0600 
    148 H148        3.0751  -20.6932  -44.0024 H         1 UNK         0.0600 
    149 H149        0.6931  -20.3909  -43.4814 H         1 UNK         0.3000 
    150 H150       -2.7528  -20.6377  -44.4462 H         1 UNK         0.0600 
    151 H151       -2.6857  -21.1310  -42.0233 H         1 UNK         0.0600 
    152 H152       -2.9337  -19.4093  -42.2777 H         1 UNK         0.0600 
    153 H153       -1.3477  -20.0135  -41.7992 H         1 UNK         0.0600 
    154 H154       -1.2848  -18.3476  -43.7734 H         1 UNK         0.3000 
    155 H155        0.0584  -17.6423  -47.0291 H         1 UNK         0.0600 
    156 H156       -2.3174  -16.8591  -46.9402 H         1 UNK         0.0600 
    157 H157       -1.1793  -15.5639  -46.6242 H         1 UNK         0.0600 
    158 H158       -2.0755  -16.2955  -45.2917 H         1 UNK         0.0600 
    159 H159        0.1774  -16.4845  -44.3327 H         1 UNK         0.3000 
    160 H160        3.3709  -17.8147  -43.5762 H         1 UNK         0.0600 
    161 H161        2.6292  -14.9503  -44.3750 H         1 UNK         0.0600 
    162 H162        4.0115  -15.8672  -44.9632 H         1 UNK         0.0600 
    163 H163        3.9311  -15.3945  -43.2736 H         1 UNK         0.0600 
    164 H164        1.6248  -15.9190  -42.2940 H         1 UNK         0.3000 
    165 H165       -0.3708  -18.2961  -40.5457 H         1 UNK         0.0600 
    166 H166        0.6110  -17.2523  -38.5268 H         1 UNK         0.0600 
    167 H167        1.7649  -18.3654  -39.2430 H         1 UNK         0.0600 
    168 H168        1.9677  -16.6319  -39.4686 H         1 UNK         0.0600 
    169 H169       -0.1442  -15.5169  -40.1817 H         1 UNK         0.3000 
    170 H170       -1.8786  -14.2655  -42.9402 H         1 UNK         0.0600 
    171 H171       -3.8290  -15.1584  -41.6599 H         1 UNK         0.0600 
    172 H172       -3.0743  -14.6686  -40.1477 H         1 UNK         0.0600 
    173 H173       -3.5717  -13.4538  -41.3267 H         1 UNK         0.0600 
    174 H174       -1.2469  -13.0016  -40.5103 H         1 UNK         0.3000 
    175 H175        0.4521  -11.6421  -40.2556 H         1 UNK         0.0600 
    176 H176        2.9797  -13.3368  -40.6715 H         1 UNK         0.0600 
    177 H177        2.7811  -12.0545  -39.4784 H         1 UNK         0.0600 
    178 H178        1.8315  -13.5273  -39.3511 H         1 UNK         0.0600 
    179 H179        2.7449  -11.2859  -41.9908 H         1 UNK         0.3000 
    180 H180        1.1491   -9.1581  -44.3395 H         1 UNK         0.0600 
    181 H181        3.2248   -8.4996  -42.1853 H         1 UNK         0.0600 
    182 H182        1.7559   -7.6040  -42.5325 H         1 UNK         0.0600 
    183 H183        3.0437   -7.6606  -43.7260 H         1 UNK         0.0600 
    184 H184        2.5481  -10.5147  -45.3003 H         1 UNK         0.3000 
    185 H185        5.2589  -11.0500  -45.6423 H         1 UNK         0.0600 
    186 H186        6.5431  -12.1216  -43.8225 H         1 UNK         0.0600 
    187 H187        5.2980  -13.3462  -43.6055 H         1 UNK         0.0600 
    188 H188        6.2482  -13.3013  -45.0897 H         1 UNK         0.0600 
    189 H189        3.0581  -13.0023  -45.1619 H         1 UNK         0.3000 
    190 H190       -1.1531  -21.1248  -47.7173 H         1 UNK         0.3000 
    191 H191       -2.4574  -22.7171  -49.7429 H         1 UNK         0.0600 
    192 H192       -3.4697  -20.4904  -47.8959 H         1 UNK         0.0600 
    193 H193       -4.3819  -21.1916  -49.2281 H         1 UNK         0.0600 
    194 H194       -2.8955  -20.3156  -49.5522 H         1 UNK         0.0600 
    195 H195       -3.2073  -22.1787  -46.2533 H         1 UNK         0.3000 
    196 H196       -5.3316  -24.0700  -46.1947 H         1 UNK         0.0600 
    197 H197       -5.3617  -23.6593  -43.7811 H         1 UNK         0.0600 
    198 H198       -5.1456  -22.1347  -44.6249 H         1 UNK         0.0600 
    199 H199       -3.7768  -22.9110  -43.8283 H         1 UNK         0.0600 
    200 H200       -1.9128  -24.3108  -45.2441 H         1 UNK         0.3000 
    201 H201       -1.8812  -26.9442  -44.2408 H         1 UNK         0.0600 
    202 H202       -0.0269  -25.2962  -43.9867 H         1 UNK         0.0600 
    203 H203        0.3037  -25.3855  -45.7176 H         1 UNK         0.0600 
    204 H204        0.5695  -26.7911  -44.6930 H         1 UNK         0.0600 
    205 H205       -2.1250  -25.8538  -47.5628 H         1 UNK         0.3000 
    206 H206       -1.6122  -28.5622  -48.6792 H         1 UNK         0.0600 
    207 H207       -0.3936  -26.6686  -49.7184 H         1 UNK         0.0600 
    208 H208       -1.5524  -27.3467  -50.8486 H         1 UNK         0.0600 
    209 H209       -1.9115  -25.8330  -50.0208 H         1 UNK         0.0600 
    210 H210       -4.0307  -27.6355  -47.0560 H         1 UNK         0.3000 
    211 H211       -6.1717  -28.0814  -46.8913 H         1 UNK         0.0600 
    212 H212       -5.9794  -29.7179  -49.4726 H         1 UNK         0.0600 
    213 H213       -7.2428  -29.8156  -48.2567 H         1 UNK         0.0600 
    214 H214       -5.6088  -30.3180  -47.8565 H         1 UNK         0.0600 
    215 H215       -5.5021  -25.6654  -47.8237 H         1 UNK         0.3000 
    216 H216       -6.3787  -23.7383  -48.4583 H         1 UNK         0.0600 
    217 H217       -8.7849  -23.4488  -48.8287 H         1 UNK         0.0600 
    218 H218       -8.5253  -24.5161  -47.4586 H         1 UNK         0.0600 
    219 H219       -9.0200  -25.1791  -49.0158 H         1 UNK         0.0600 
    220 H220       -4.6827  -24.7435  -50.1298 H         1 UNK         0.3000 
    221 H221       -5.5634  -24.9367  -52.8832 H         1 UNK         0.0600 
    222 H222       -2.7882  -24.4089  -51.6912 H         1 UNK         0.0600 
    223 H223       -3.4555  -25.9943  -52.0896 H         1 UNK         0.0600 
    224 H224       -3.1236  -24.8318  -53.3645 H         1 UNK         0.0600 
    225 H225       -6.1232  -23.2797  -54.1930 H         1 UNK         0.3000 
    226 H226       -6.0542  -20.5455  -53.3013 H         1 UNK         0.0600 
    227 H227       -7.9217  -21.4635  -54.6493 H         1 UNK         0.0600 
    228 H228       -7.1703  -20.1188  -55.4920 H         1 UNK         0.0600 
    229 H229       -6.8335  -21.7687  -56.0035 H         1 UNK         0.0600 
    230 H230       -3.9667  -22.4578  -55.3530 H         1 UNK         0.3000 
    231 H231       -2.0992  -22.1341  -56.5023 H         1 UNK         0.0600 
    232 H232       -0.3811  -20.7537  -55.4532 H         1 UNK         0.0600 
    233 H233       -1.3654  -21.4395  -54.1695 H         1 UNK         0.0600 
    234 H234       -1.5862  -19.7558  -54.6562 H         1 UNK         0.0600 
    235 H235       -4.4753  -20.6266  -57.4530 H         1 UNK         0.3000 
    236 H236       -5.1829  -19.2745  -59.0344 H         1 UNK         0.0600 
    237 H237       -3.7876  -18.7244  -60.9710 H         1 UNK         0.0600 
    238 H238       -2.3132  -19.0675  -60.0800 H         1 UNK         0.0600 
    239 H239       -3.4374  -20.3691  -60.4697 H         1 UNK         0.0600 
    240 H240       -4.1849  -18.1506  -56.4067 H         1 UNK         0.3000 
    241 H241       -3.4026  -15.4322  -56.8921 H         1 UNK         0.0600 
    242 H242       -6.4042  -13.5292  -57.1191 H         1 UNK         0.3800 
    243 H243       -4.6794  -13.4742  -56.8949 H         1 UNK         0.3800 
    244 H244       -4.0893  -15.0821  -54.4807 H         1 UNK         0.0800 
    245 H245       -4.7001  -16.7180  -54.4376 H         1 UNK         0.0800 
    246 H246       -3.2893  -17.8834  -52.6681 H         1 UNK         0.0800 
    247 H247       -2.9506  -16.2333  -52.1934 H         1 UNK         0.0800 
@<TRIPOS>BOND
     1    1    2 1    
     2    1  127 1    
     3    1  128 1    
     4    1  129 1    
     5    2    3 2    
     6    2    4 am   BACKBONE|DICT|INTERRES
     7    4    5 1    
     8    4  130 1    
     9    5    6 1    
    10    5   65 1    
    11    5  131 1    
    12    6    7 1    
    13    6  132 1    
    14    6  133 1    
    15    7    8 1    
    16    8    9 1    
    17    8  134 1    
    18    8  135 1    
    19    9   10 ar   
    20    9   14 ar   
    21   10   11 ar   
    22   10  136 1    
    23   11   12 ar   
    24   11  126 1    
    25   12   13 ar   
    26   12  137 1    
    27   13   14 ar   
    28   13   15 1    
    29   14  138 1    
    30   15   16 1    
    31   15  139 1    
    32   15  140 1    
    33   16   17 1    
    34   17   18 1    
    35   17  141 1    
    36   17  142 1    
    37   18   19 1    
    38   18   67 1    
    39   18  143 1    
    40   19   20 am   BACKBONE|DICT|INTERRES
    41   19  144 1    
    42   20   21 2    
    43   20   22 1    
    44   22   23 1    
    45   22   24 1    
    46   22  145 1    
    47   23  146 1    
    48   23  147 1    
    49   23  148 1    
    50   24   25 am   BACKBONE|DICT|INTERRES
    51   24  149 1    
    52   25   26 2    
    53   25   27 1    
    54   27   28 1    
    55   27   29 1    
    56   27  150 1    
    57   28  151 1    
    58   28  152 1    
    59   28  153 1    
    60   29   30 am   BACKBONE|DICT|INTERRES
    61   29  154 1    
    62   30   31 2    
    63   30   32 1    
    64   32   33 1    
    65   32   34 1    
    66   32  155 1    
    67   33  156 1    
    68   33  157 1    
    69   33  158 1    
    70   34   35 am   BACKBONE|DICT|INTERRES
    71   34  159 1    
    72   35   36 2    
    73   35   37 1    
    74   37   38 1    
    75   37   39 1    
    76   37  160 1    
    77   38  161 1    
    78   38  162 1    
    79   38  163 1    
    80   39   40 am   BACKBONE|DICT|INTERRES
    81   39  164 1    
    82   40   41 2    
    83   40   42 1    
    84   42   43 1    
    85   42   44 1    
    86   42  165 1    
    87   43  166 1    
    88   43  167 1    
    89   43  168 1    
    90   44   45 am   BACKBONE|DICT|INTERRES
    91   44  169 1    
    92   45   46 2    
    93   45   47 1    
    94   47   48 1    
    95   47   49 1    
    96   47  170 1    
    97   48  171 1    
    98   48  172 1    
    99   48  173 1    
   100   49   50 am   BACKBONE|DICT|INTERRES
   101   49  174 1    
   102   50   51 2    
   103   50   52 1    
   104   52   53 1    
   105   52   54 1    
   106   52  175 1    
   107   53  176 1    
   108   53  177 1    
   109   53  178 1    
   110   54   55 am   BACKBONE|DICT|INTERRES
   111   54  179 1    
   112   55   56 2    
   113   55   57 1    
   114   57   58 1    
   115   57   59 1    
   116   57  180 1    
   117   58  181 1    
   118   58  182 1    
   119   58  183 1    
   120   59   60 am   BACKBONE|DICT|INTERRES
   121   59  184 1    
   122   60   61 2    
   123   60   62 1    
   124   62   63 1    
   125   62   64 1    
   126   62  185 1    
   127   63  186 1    
   128   63  187 1    
   129   63  188 1    
   130   64   65 am   BACKBONE|DICT|INTERRES
   131   64  189 1    
   132   65   66 2    
   133   67   68 2    
   134   67   69 am   BACKBONE|DICT|INTERRES
   135   69   70 1    
   136   69  190 1    
   137   70   71 1    
   138   70   72 1    
   139   70  191 1    
   140   71  192 1    
   141   71  193 1    
   142   71  194 1    
   143   72   73 2    
   144   72   74 am   BACKBONE|DICT|INTERRES
   145   74   75 1    
   146   74  195 1    
   147   75   76 1    
   148   75   77 1    
   149   75  196 1    
   150   76  197 1    
   151   76  198 1    
   152   76  199 1    
   153   77   78 2    
   154   77   79 am   BACKBONE|DICT|INTERRES
   155   79   80 1    
   156   79  200 1    
   157   80   81 1    
   158   80   82 1    
   159   80  201 1    
   160   81  202 1    
   161   81  203 1    
   162   81  204 1    
   163   82   83 2    
   164   82   84 am   BACKBONE|DICT|INTERRES
   165   84   85 1    
   166   84  205 1    
   167   85   86 1    
   168   85   87 1    
   169   85  206 1    
   170   86  207 1    
   171   86  208 1    
   172   86  209 1    
   173   87   88 2    
   174   87   89 am   BACKBONE|DICT|INTERRES
   175   89   90 1    
   176   89  210 1    
   177   90   91 1    
   178   90   92 1    
   179   90  211 1    
   180   91  212 1    
   181   91  213 1    
   182   91  214 1    
   183   92   93 2    
   184   92   94 am   BACKBONE|DICT|INTERRES
   185   94   95 1    
   186   94  215 1    
   187   95   96 1    
   188   95   97 1    
   189   95  216 1    
   190   96  217 1    
   191   96  218 1    
   192   96  219 1    
   193   97   98 2    
   194   97   99 am   BACKBONE|DICT|INTERRES
   195   99  100 1    
   196   99  220 1    
   197  100  101 1    
   198  100  102 1    
   199  100  221 1    
   200  101  222 1    
   201  101  223 1    
   202  101  224 1    
   203  102  103 2    
   204  102  104 am   BACKBONE|DICT|INTERRES
   205  104  105 1    
   206  104  225 1    
   207  105  106 1    
   208  105  107 1    
   209  105  226 1    
   210  106  227 1    
   211  106  228 1    
   212  106  229 1    
   213  107  108 2    
   214  107  109 am   BACKBONE|DICT|INTERRES
   215  109  110 1    
   216  109  230 1    
   217  110  111 1    
   218  110  112 1    
   219  110  231 1    
   220  111  232 1    
   221  111  233 1    
   222  111  234 1    
   223  112  113 2    
   224  112  114 am   BACKBONE|DICT|INTERRES
   225  114  115 1    
   226  114  235 1    
   227  115  116 1    
   228  115  117 1    
   229  115  236 1    
   230  116  237 1    
   231  116  238 1    
   232  116  239 1    
   233  117  118 2    
   234  117  119 am   BACKBONE|DICT|INTERRES
   235  119  120 1    
   236  119  240 1    
   237  120  121 1    
   238  120  124 1    
   239  120  241 1    
   240  121  122 am   BACKBONE|DICT|INTERRES
   241  121  123 2    
   242  122  242 1    
   243  122  243 1    
   244  124  125 1    
   245  124  244 1    
   246  124  245 1    
   247  125  126 1    
   248  126  246 1    
   249  126  247 1    
@<TRIPOS>SUBSTRUCTURE
     1 UNK         1 GROUP             0       ****    0 ROOT    
