@<TRIPOS>MOLECULE
3R540
247   249    1
SMALL
USER_CHARGES


@<TRIPOS>ATOM
      1 CA          0.6634  -13.6843  -49.0948 C.3       0 UNK        -0.1800 
      2 C          -0.6741  -13.7225  -48.3710 C.2       0 UNK         0.5000 
      3 O          -1.0495  -12.7379  -47.7341 O.2       0 UNK        -0.5000 
      4 N          -1.3801  -14.8586  -48.4518 N.am      1 UNK        -0.5000 
      5 CA         -2.6828  -15.1572  -47.8379 C.3       1 UNK         0.1400 
      6 C6         -3.8403  -14.2343  -48.3154 C.3       23 UNK        -0.0398 
      7 S7         -4.0938  -14.2595  -50.1259 S.3       23 UNK        -0.2404 
      8 C8         -5.6917  -15.1213  -50.2874 C.3       23 UNK        -0.0205 
      9 C9         -5.5204  -16.6324  -50.2875 C.ar      23 UNK        -0.0193 
     10 C10        -5.5283  -17.3431  -51.4921 C.ar      23 UNK        -0.1150 
     11 C11        -5.3668  -18.7317  -51.4962 C.ar      23 UNK        -0.0193 
     12 C12        -5.1704  -19.4074  -50.2892 C.ar      23 UNK        -0.1150 
     13 C13        -5.1559  -18.7061  -49.0819 C.ar      23 UNK        -0.0193 
     14 C14        -5.3534  -17.3235  -49.0847 C.ar      23 UNK        -0.1150 
     15 C15        -4.9112  -19.4341  -47.7737 C.3       23 UNK        -0.0205 
     16 S16        -3.1740  -19.2720  -47.2633 S.3       23 UNK        -0.2404 
     17 C17        -3.2040  -20.2031  -45.7001 C.3       23 UNK        -0.0398 
     18 CA         -2.4683  -21.5550  -45.8492 C.3       11 UNK         0.1400 
     19 N          -1.0257  -21.4483  -45.6236 N.am      11 UNK        -0.5000 
     20 C          -0.1356  -22.4206  -45.8651 C.2       10 UNK         0.5000 
     21 O          -0.4232  -23.4888  -46.4112 O.2       10 UNK        -0.5000 
     22 CA          1.3070  -22.1772  -45.3824 C.3       10 UNK         0.1400 
     23 CB          2.1161  -21.3952  -46.4267 C.3       10 UNK        -0.1800 
     24 N           1.3589  -21.4822  -44.0942 N.am      10 UNK        -0.5000 
     25 C           0.9009  -21.9965  -42.9437 C.2       9 UNK         0.5000 
     26 O           0.4268  -23.1269  -42.8481 O.2       9 UNK        -0.5000 
     27 CA          0.9323  -21.0905  -41.7010 C.3       9 UNK         0.1400 
     28 CB          2.3342  -21.0743  -41.0746 C.3       9 UNK        -0.1800 
     29 N           0.4979  -19.7232  -41.9860 N.am      9 UNK        -0.5000 
     30 C          -0.7331  -19.3820  -42.3943 C.2       8 UNK         0.5000 
     31 O          -1.6551  -20.1875  -42.5304 O.2       8 UNK        -0.5000 
     32 CA         -0.9531  -17.9022  -42.7679 C.3       8 UNK         0.1400 
     33 CB         -1.1642  -17.0399  -41.5144 C.3       8 UNK        -0.1800 
     34 N           0.1489  -17.3547  -43.5603 N.am      8 UNK        -0.5000 
     35 C           0.5125  -17.8151  -44.7666 C.2       7 UNK         0.5000 
     36 O          -0.0574  -18.7327  -45.3550 O.2       7 UNK        -0.5000 
     37 CA          1.7740  -17.1927  -45.3849 C.3       7 UNK         0.1400 
     38 CB          1.4627  -15.8312  -46.0257 C.3       7 UNK        -0.1800 
     39 N           2.8439  -17.0550  -44.3957 N.am      7 UNK        -0.5000 
     40 C           3.5066  -18.0916  -43.8602 C.2       6 UNK         0.5000 
     41 O           3.3074  -19.2642  -44.1739 O.2       6 UNK        -0.5000 
     42 CA          4.5360  -17.7702  -42.7614 C.3       6 UNK         0.1400 
     43 CB          5.8859  -17.3814  -43.3823 C.3       6 UNK        -0.1800 
     44 N           4.0906  -16.7039  -41.8650 N.am      6 UNK        -0.5000 
     45 C           3.0359  -16.7901  -41.0415 C.2       5 UNK         0.5000 
     46 O           2.3505  -17.8025  -40.9114 O.2       5 UNK        -0.5000 
     47 CA          2.6489  -15.5091  -40.2798 C.3       5 UNK         0.1400 
     48 CB          3.3911  -15.4329  -38.9376 C.3       5 UNK        -0.1800 
     49 N           2.9058  -14.2887  -41.0500 N.am      5 UNK        -0.5000 
     50 C           2.3127  -13.9905  -42.2124 C.2       4 UNK         0.5000 
     51 O           1.4720  -14.7119  -42.7607 O.2       4 UNK        -0.5000 
     52 CA          2.7815  -12.7053  -42.9044 C.3       4 UNK         0.1400 
     53 CB          4.0382  -12.9712  -43.7494 C.3       4 UNK        -0.1800 
     54 N           1.7083  -12.2505  -43.7735 N.am      4 UNK        -0.5000 
     55 C           1.2958  -10.9888  -43.9253 C.2       3 UNK         0.5000 
     56 O           1.8682  -10.0160  -43.4320 O.2       3 UNK        -0.5000 
     57 CA          0.0178  -10.7763  -44.7625 C.3       3 UNK         0.1400 
     58 CB          0.3780  -10.2493  -46.1602 C.3       3 UNK        -0.1800 
     59 N          -0.8008  -11.9868  -44.9055 N.am      3 UNK        -0.5000 
     60 C          -1.4808  -12.5743  -43.9054 C.2       2 UNK         0.5000 
     61 O          -1.4992  -12.1295  -42.7571 O.2       2 UNK        -0.5000 
     62 CA         -2.2607  -13.8647  -44.2265 C.3       2 UNK         0.1400 
     63 CB         -3.6302  -13.9158  -43.5217 C.3       2 UNK        -0.1800 
     64 N          -2.4314  -14.0431  -45.6661 N.am      2 UNK        -0.5000 
     65 C          -2.5934  -15.2100  -46.2960 C.2       1 UNK         0.5000 
     66 O          -2.6593  -16.2902  -45.7129 O.2       1 UNK        -0.5000 
     67 C          -3.1078  -22.6490  -44.9769 C.2       11 UNK         0.5000 
     68 O          -3.8506  -23.4776  -45.5057 O.2       11 UNK        -0.5000 
     69 N          -2.7808  -22.6599  -43.6780 N.am      12 UNK        -0.5000 
     70 CA         -3.2326  -23.6773  -42.7277 C.3       12 UNK         0.1400 
     71 CB         -2.8224  -23.2654  -41.3057 C.3       12 UNK        -0.1800 
     72 C          -2.7129  -25.0894  -43.0634 C.2       12 UNK         0.5000 
     73 O          -3.4499  -26.0615  -42.8936 O.2       12 UNK        -0.5000 
     74 N          -1.4632  -25.1726  -43.5385 N.am      13 UNK        -0.5000 
     75 CA         -0.7996  -26.4118  -43.9294 C.3       13 UNK         0.1400 
     76 CB          0.7124  -26.1703  -44.0660 C.3       13 UNK        -0.1800 
     77 C          -1.3735  -27.0277  -45.2170 C.2       13 UNK         0.5000 
     78 O          -1.7607  -28.1974  -45.1971 O.2       13 UNK        -0.5000 
     79 N          -1.3899  -26.2590  -46.3163 N.am      14 UNK        -0.5000 
     80 CA         -1.6886  -26.7799  -47.6537 C.3       14 UNK         0.1400 
     81 CB         -0.4768  -27.5745  -48.1903 C.3       14 UNK        -0.1800 
     82 C          -2.1415  -25.6782  -48.6277 C.2       14 UNK         0.5000 
     83 O          -1.7334  -25.6902  -49.7919 O.2       14 UNK        -0.5000 
     84 N          -2.9611  -24.7285  -48.1475 N.am      15 UNK        -0.5000 
     85 CA         -3.5758  -23.6349  -48.9220 C.3       15 UNK         0.1400 
     86 CB         -4.6439  -24.1968  -49.8834 C.3       15 UNK        -0.1800 
     87 C          -2.5554  -22.7316  -49.6532 C.2       15 UNK         0.5000 
     88 O          -2.8731  -22.1736  -50.7045 O.2       15 UNK        -0.5000 
     89 N          -1.3304  -22.6560  -49.1086 N.am      16 UNK        -0.5000 
     90 CA         -0.1489  -21.9828  -49.6536 C.3       16 UNK         0.1400 
     91 CB         -0.3033  -20.4531  -49.5440 C.3       16 UNK        -0.1800 
     92 C           0.2290  -22.4660  -51.0703 C.2       16 UNK         0.5000 
     93 O           0.6931  -21.6711  -51.8886 O.2       16 UNK        -0.5000 
     94 N          -0.0182  -23.7579  -51.3478 N.am      17 UNK        -0.5000 
     95 CA          0.1319  -24.4247  -52.6477 C.3       17 UNK         0.1400 
     96 CB          1.6208  -24.5422  -53.0342 C.3       17 UNK        -0.1800 
     97 C          -0.7322  -23.7691  -53.7484 C.2       17 UNK         0.5000 
     98 O          -0.2984  -23.6536  -54.8953 O.2       17 UNK        -0.5000 
     99 N          -1.9286  -23.3130  -53.3475 N.am      18 UNK        -0.5000 
    100 CA        -2.9157  -22.5387  -54.1056 C.3       18 UNK         0.1400 
    101 CB        -3.3408  -23.2555  -55.4040 C.3       18 UNK        -0.1800 
    102 C         -2.5104  -21.0711  -54.3551 C.2       18 UNK         0.5000 
    103 O         -3.2436  -20.3643  -55.0498 O.2       18 UNK        -0.5000 
    104 N         -1.3749  -20.6235  -53.7943 N.am      19 UNK        -0.5000 
    105 CA        -0.8416  -19.2517  -53.7712 C.3       19 UNK         0.1400 
    106 CB        -1.7361  -18.3637  -52.8817 C.3       19 UNK        -0.1800 
    107 C         -0.6130  -18.5990  -55.1545 C.2       19 UNK         0.5000 
    108 O         -0.3896  -17.3893  -55.2190 O.2       19 UNK        -0.5000 
    109 N         -0.7130  -19.3938  -56.2315 N.am      20 UNK        -0.5000 
    110 CA        -0.8410  -18.9815  -57.6342 C.3       20 UNK         0.1400 
    111 CB         0.4686  -18.3441  -58.1437 C.3       20 UNK        -0.1800 
    112 C         -2.0868  -18.0973  -57.8913 C.2       20 UNK         0.5000 
    113 O         -2.0664  -17.2634  -58.7989 O.2       20 UNK        -0.5000 
    114 N         -3.1422  -18.2870  -57.0847 N.am      21 UNK        -0.5000 
    115 CA        -4.3602  -17.4743  -57.0900 C.3       21 UNK         0.1400 
    116 CB        -4.3129  -16.4843  -55.9139 C.3       21 UNK        -0.1800 
    117 C         -5.6363  -18.3290  -57.0270 C.2       21 UNK         0.5000 
    118 O         -6.6284  -17.9672  -57.6613 O.2       21 UNK        -0.5000 
    119 N         -5.5981  -19.4427  -56.2841 N.am      22 UNK        -0.5000 
    120 CA        -6.7193  -20.3884  -56.1394 C.3       22 UNK         0.1400 
    121 C         -6.7600  -21.4821  -57.2483 C.2       22 UNK         0.5000 
    122 N         -5.7896  -21.5572  -58.1515 N.am      22 UNK        -0.7600 
    123 O         -7.6985  -22.2724  -57.2989 O.2       22 UNK        -0.5000 
    124 C124       -6.7542  -21.0281  -54.7263 C.3       23 UNK        -0.0398 
    125 S125       -7.0671  -19.8243  -53.3888 S.3       23 UNK        -0.2404 
    126 C126       -5.3776  -19.5026  -52.8031 C.3       23 UNK        -0.0205 
    127 H127        1.4651  -13.4730  -48.3871 H         1 UNK         0.0600 
    128 H128        0.6575  -12.8981  -49.8496 H         1 UNK         0.0600 
    129 H129        0.8857  -14.6305  -49.5886 H         1 UNK         0.0600 
    130 H130       -0.9936  -15.6225  -48.9874 H         1 UNK         0.3000 
    131 H131       -2.9224  -16.1712  -48.1606 H         1 UNK         0.0600 
    132 H132       -3.6535  -13.1978  -48.0324 H         1 UNK         0.0800 
    133 H133       -4.7713  -14.5066  -47.8168 H         1 UNK         0.0800 
    134 H134       -6.3736  -14.8165  -49.4924 H         1 UNK         0.0800 
    135 H135       -6.1606  -14.8025  -51.2195 H         1 UNK         0.0800 
    136 H136       -5.6625  -16.8186  -52.4278 H         1 UNK         0.1150 
    137 H137       -5.0197  -20.4780  -50.2910 H         1 UNK         0.1150 
    138 H138       -5.3498  -16.7855  -48.1481 H         1 UNK         0.1150 
    139 H139       -5.5611  -19.0235  -46.9993 H         1 UNK         0.0800 
    140 H140       -5.1665  -20.4905  -47.8707 H         1 UNK         0.0800 
    141 H141       -4.2441  -20.3368  -45.3962 H         1 UNK         0.0800 
    142 H142       -2.7484  -19.5910  -44.9217 H         1 UNK         0.0800 
    143 H143       -2.5964  -21.8909  -46.8741 H         1 UNK         0.0600 
    144 H144       -0.6901  -20.5605  -45.2592 H         1 UNK         0.3000 
    145 H145        1.7821  -23.1511  -45.2511 H         1 UNK         0.0600 
    146 H146        3.1318  -21.2082  -46.0785 H         1 UNK         0.0600 
    147 H147        2.1997  -21.9577  -47.3555 H         1 UNK         0.0600 
    148 H148        1.6588  -20.4329  -46.6586 H         1 UNK         0.0600 
    149 H149        1.7828  -20.5597  -44.0904 H         1 UNK         0.3000 
    150 H150        0.2406  -21.5111  -40.9683 H         1 UNK         0.0600 
    151 H151        2.3425  -20.5080  -40.1432 H         1 UNK         0.0600 
    152 H152        2.6706  -22.0857  -40.8431 H         1 UNK         0.0600 
    153 H153        3.0698  -20.6281  -41.7440 H         1 UNK         0.0600 
    154 H154        1.1872  -18.9906  -41.8400 H         1 UNK         0.3000 
    155 H155       -1.8575  -17.8416  -43.3768 H         1 UNK         0.0600 
    156 H156       -0.2925  -17.0575  -40.8604 H         1 UNK         0.0600 
    157 H157       -2.0157  -17.3989  -40.9352 H         1 UNK         0.0600 
    158 H158       -1.3638  -16.0010  -41.7765 H         1 UNK         0.0600 
    159 H159        0.6720  -16.5859  -43.1557 H         1 UNK         0.3000 
    160 H160        2.1260  -17.8617  -46.1732 H         1 UNK         0.0600 
    161 H161        1.0482  -15.1225  -45.3096 H         1 UNK         0.0600 
    162 H162        0.7305  -15.9501  -46.8239 H         1 UNK         0.0600 
    163 H163        2.3547  -15.3851  -46.4657 H         1 UNK         0.0600 
    164 H164        3.0192  -16.1276  -44.0398 H         1 UNK         0.3000 
    165 H165        4.6808  -18.6739  -42.1658 H         1 UNK         0.0600 
    166 H166        6.6438  -17.2283  -42.6138 H         1 UNK         0.0600 
    167 H167        6.2509  -18.1673  -44.0449 H         1 UNK         0.0600 
    168 H168        5.8121  -16.4648  -43.9691 H         1 UNK         0.0600 
    169 H169        4.5996  -15.8336  -41.9025 H         1 UNK         0.3000 
    170 H170        1.5772  -15.5571  -40.0761 H         1 UNK         0.0600 
    171 H171        3.2001  -16.3224  -38.3356 H         1 UNK         0.0600 
    172 H172        4.4701  -15.3559  -39.0765 H         1 UNK         0.0600 
    173 H173        3.0644  -14.5717  -38.3545 H         1 UNK         0.0600 
    174 H174        3.5889  -13.6505  -40.6673 H         1 UNK         0.3000 
    175 H175        2.9987  -11.9559  -42.1403 H         1 UNK         0.0600 
    176 H176        3.8581  -13.7286  -44.5136 H         1 UNK         0.0600 
    177 H177        4.3702  -12.0632  -44.2531 H         1 UNK         0.0600 
    178 H178        4.8651  -13.3178  -43.1285 H         1 UNK         0.0600 
    179 H179        1.1362  -12.9933  -44.1511 H         1 UNK         0.3000 
    180 H180       -0.5828  -10.0181  -44.2557 H         1 UNK         0.0600 
    181 H181        0.9757  -10.9705  -46.7193 H         1 UNK         0.0600 
    182 H182        0.9538   -9.3252  -46.0951 H         1 UNK         0.0600 
    183 H183       -0.5173  -10.0331  -46.7435 H         1 UNK         0.0600 
    184 H184       -0.8204  -12.3892  -45.8371 H         1 UNK         0.3000 
    185 H185       -1.6463  -14.6845  -43.8485 H         1 UNK         0.0600 
    186 H186       -4.1395  -14.8606  -43.7119 H         1 UNK         0.0600 
    187 H187       -3.5222  -13.8245  -42.4403 H         1 UNK         0.0600 
    188 H188       -4.2820  -13.1093  -43.8590 H         1 UNK         0.0600 
    189 H189       -2.3283  -13.2129  -46.2388 H         1 UNK         0.3000 
    190 H190       -2.1917  -21.9180  -43.3103 H         1 UNK         0.3000 
    191 H191       -4.3233  -23.7088  -42.7693 H         1 UNK         0.0600 
    192 H192       -3.2391  -22.2933  -41.0411 H         1 UNK         0.0600 
    193 H193       -3.1837  -23.9861  -40.5711 H         1 UNK         0.0600 
    194 H194       -1.7393  -23.2039  -41.1998 H         1 UNK         0.0600 
    195 H195       -0.8984  -24.3285  -43.5619 H         1 UNK         0.3000 
    196 H196       -0.9450  -27.1355  -43.1245 H         1 UNK         0.0600 
    197 H197        1.2306  -27.0866  -44.3514 H         1 UNK         0.0600 
    198 H198        1.1437  -25.8339  -43.1231 H         1 UNK         0.0600 
    199 H199        0.9357  -25.4179  -44.8223 H         1 UNK         0.0600 
    200 H200       -1.0635  -25.2964  -46.2649 H         1 UNK         0.3000 
    201 H201       -2.5359  -27.4646  -47.5799 H         1 UNK         0.0600 
    202 H202       -0.2158  -28.4042  -47.5335 H         1 UNK         0.0600 
    203 H203        0.4029  -26.9376  -48.2895 H         1 UNK         0.0600 
    204 H204       -0.6866  -28.0038  -49.1708 H         1 UNK         0.0600 
    205 H205       -3.2196  -24.7600  -47.1674 H         1 UNK         0.3000 
    206 H206       -4.0955  -22.9963  -48.2082 H         1 UNK         0.0600 
    207 H207       -5.3632  -24.8199  -49.3520 H         1 UNK         0.0600 
    208 H208       -5.2057  -23.3926  -50.3604 H         1 UNK         0.0600 
    209 H209       -4.1989  -24.7992  -50.6760 H         1 UNK         0.0600 
    210 H210       -1.1685  -23.1672  -48.2469 H         1 UNK         0.3000 
    211 H211        0.6854  -22.2770  -49.0192 H         1 UNK         0.0600 
    212 H212       -1.1458  -20.0912  -50.1323 H         1 UNK         0.0600 
    213 H213        0.5913  -19.9361  -49.8926 H         1 UNK         0.0600 
    214 H214       -0.4660  -20.1510  -48.5092 H         1 UNK         0.0600 
    215 H215       -0.4547  -24.3259  -50.6276 H         1 UNK         0.3000 
    216 H216       -0.2570  -25.4358  -52.5184 H         1 UNK         0.0600 
    217 H217        1.7447  -25.1516  -53.9300 H         1 UNK         0.0600 
    218 H218        2.1977  -25.0149  -52.2393 H         1 UNK         0.0600 
    219 H219        2.0661  -23.5680  -53.2383 H         1 UNK         0.0600 
    220 H220       -2.1449  -23.3924  -52.3605 H         1 UNK         0.3000 
    221 H221       -3.7934  -22.4945  -53.4604 H         1 UNK         0.0600 
    222 H222       -2.5438  -23.2638  -56.1474 H         1 UNK         0.0600 
    223 H223       -3.6308  -24.2878  -55.2087 H         1 UNK         0.0600 
    224 H224       -4.1970  -22.7621  -55.8634 H         1 UNK         0.0600 
    225 H225       -0.8252  -21.2844  -53.2565 H         1 UNK         0.3000 
    226 H226        0.1388  -19.3189  -53.2981 H         1 UNK         0.0600 
    227 H227       -1.9769  -18.8511  -51.9376 H         1 UNK         0.0600 
    228 H228       -1.2405  -17.4221  -52.6434 H         1 UNK         0.0600 
    229 H229       -2.6742  -18.1179  -53.3772 H         1 UNK         0.0600 
    230 H230       -0.8937  -20.3713  -56.0512 H         1 UNK         0.3000 
    231 H231       -1.0028  -19.8974  -58.2040 H         1 UNK         0.0600 
    232 H232        0.6587  -17.3774  -57.6769 H         1 UNK         0.0600 
    233 H233        0.4316  -18.1833  -59.2217 H         1 UNK         0.0600 
    234 H234        1.3247  -18.9881  -57.9427 H         1 UNK         0.0600 
    235 H235       -3.0787  -19.0064  -56.3703 H         1 UNK         0.3000 
    236 H236       -4.4196  -16.8976  -58.0153 H         1 UNK         0.0600 
    237 H237       -3.4507  -15.8218  -55.9929 H         1 UNK         0.0600 
    238 H238       -5.2053  -15.8577  -55.8924 H         1 UNK         0.0600 
    239 H239       -4.2494  -17.0000  -54.9557 H         1 UNK         0.0600 
    240 H240       -4.7426  -19.7010  -55.7999 H         1 UNK         0.3000 
    241 H241       -7.6522  -19.8335  -56.2551 H         1 UNK         0.0600 
    242 H242       -5.0212  -20.9070  -58.1312 H         1 UNK         0.3800 
    243 H243       -5.8319  -22.2645  -58.8683 H         1 UNK         0.3800 
    244 H244       -7.5539  -21.7683  -54.6651 H         1 UNK         0.0800 
    245 H245       -5.8324  -21.5733  -54.5275 H         1 UNK         0.0800 
    246 H246       -4.8421  -18.9369  -53.5634 H         1 UNK         0.0800 
    247 H247       -4.8477  -20.4460  -52.6731 H         1 UNK         0.0800 
@<TRIPOS>BOND
     1    1    2 1    
     2    1  127 1    
     3    1  128 1    
     4    1  129 1    
     5    2    3 2    
     6    2    4 am   BACKBONE|DICT|INTERRES
     7    4    5 1    
     8    4  130 1    
     9    5    6 1    
    10    5   65 1    
    11    5  131 1    
    12    6    7 1    
    13    6  132 1    
    14    6  133 1    
    15    7    8 1    
    16    8    9 1    
    17    8  134 1    
    18    8  135 1    
    19    9   10 ar   
    20    9   14 ar   
    21   10   11 ar   
    22   10  136 1    
    23   11   12 ar   
    24   11  126 1    
    25   12   13 ar   
    26   12  137 1    
    27   13   14 ar   
    28   13   15 1    
    29   14  138 1    
    30   15   16 1    
    31   15  139 1    
    32   15  140 1    
    33   16   17 1    
    34   17   18 1    
    35   17  141 1    
    36   17  142 1    
    37   18   19 1    
    38   18   67 1    
    39   18  143 1    
    40   19   20 am   BACKBONE|DICT|INTERRES
    41   19  144 1    
    42   20   21 2    
    43   20   22 1    
    44   22   23 1    
    45   22   24 1    
    46   22  145 1    
    47   23  146 1    
    48   23  147 1    
    49   23  148 1    
    50   24   25 am   BACKBONE|DICT|INTERRES
    51   24  149 1    
    52   25   26 2    
    53   25   27 1    
    54   27   28 1    
    55   27   29 1    
    56   27  150 1    
    57   28  151 1    
    58   28  152 1    
    59   28  153 1    
    60   29   30 am   BACKBONE|DICT|INTERRES
    61   29  154 1    
    62   30   31 2    
    63   30   32 1    
    64   32   33 1    
    65   32   34 1    
    66   32  155 1    
    67   33  156 1    
    68   33  157 1    
    69   33  158 1    
    70   34   35 am   BACKBONE|DICT|INTERRES
    71   34  159 1    
    72   35   36 2    
    73   35   37 1    
    74   37   38 1    
    75   37   39 1    
    76   37  160 1    
    77   38  161 1    
    78   38  162 1    
    79   38  163 1    
    80   39   40 am   BACKBONE|DICT|INTERRES
    81   39  164 1    
    82   40   41 2    
    83   40   42 1    
    84   42   43 1    
    85   42   44 1    
    86   42  165 1    
    87   43  166 1    
    88   43  167 1    
    89   43  168 1    
    90   44   45 am   BACKBONE|DICT|INTERRES
    91   44  169 1    
    92   45   46 2    
    93   45   47 1    
    94   47   48 1    
    95   47   49 1    
    96   47  170 1    
    97   48  171 1    
    98   48  172 1    
    99   48  173 1    
   100   49   50 am   BACKBONE|DICT|INTERRES
   101   49  174 1    
   102   50   51 2    
   103   50   52 1    
   104   52   53 1    
   105   52   54 1    
   106   52  175 1    
   107   53  176 1    
   108   53  177 1    
   109   53  178 1    
   110   54   55 am   BACKBONE|DICT|INTERRES
   111   54  179 1    
   112   55   56 2    
   113   55   57 1    
   114   57   58 1    
   115   57   59 1    
   116   57  180 1    
   117   58  181 1    
   118   58  182 1    
   119   58  183 1    
   120   59   60 am   BACKBONE|DICT|INTERRES
   121   59  184 1    
   122   60   61 2    
   123   60   62 1    
   124   62   63 1    
   125   62   64 1    
   126   62  185 1    
   127   63  186 1    
   128   63  187 1    
   129   63  188 1    
   130   64   65 am   BACKBONE|DICT|INTERRES
   131   64  189 1    
   132   65   66 2    
   133   67   68 2    
   134   67   69 am   BACKBONE|DICT|INTERRES
   135   69   70 1    
   136   69  190 1    
   137   70   71 1    
   138   70   72 1    
   139   70  191 1    
   140   71  192 1    
   141   71  193 1    
   142   71  194 1    
   143   72   73 2    
   144   72   74 am   BACKBONE|DICT|INTERRES
   145   74   75 1    
   146   74  195 1    
   147   75   76 1    
   148   75   77 1    
   149   75  196 1    
   150   76  197 1    
   151   76  198 1    
   152   76  199 1    
   153   77   78 2    
   154   77   79 am   BACKBONE|DICT|INTERRES
   155   79   80 1    
   156   79  200 1    
   157   80   81 1    
   158   80   82 1    
   159   80  201 1    
   160   81  202 1    
   161   81  203 1    
   162   81  204 1    
   163   82   83 2    
   164   82   84 am   BACKBONE|DICT|INTERRES
   165   84   85 1    
   166   84  205 1    
   167   85   86 1    
   168   85   87 1    
   169   85  206 1    
   170   86  207 1    
   171   86  208 1    
   172   86  209 1    
   173   87   88 2    
   174   87   89 am   BACKBONE|DICT|INTERRES
   175   89   90 1    
   176   89  210 1    
   177   90   91 1    
   178   90   92 1    
   179   90  211 1    
   180   91  212 1    
   181   91  213 1    
   182   91  214 1    
   183   92   93 2    
   184   92   94 am   BACKBONE|DICT|INTERRES
   185   94   95 1    
   186   94  215 1    
   187   95   96 1    
   188   95   97 1    
   189   95  216 1    
   190   96  217 1    
   191   96  218 1    
   192   96  219 1    
   193   97   98 2    
   194   97   99 am   BACKBONE|DICT|INTERRES
   195   99  100 1    
   196   99  220 1    
   197  100  101 1    
   198  100  102 1    
   199  100  221 1    
   200  101  222 1    
   201  101  223 1    
   202  101  224 1    
   203  102  103 2    
   204  102  104 am   BACKBONE|DICT|INTERRES
   205  104  105 1    
   206  104  225 1    
   207  105  106 1    
   208  105  107 1    
   209  105  226 1    
   210  106  227 1    
   211  106  228 1    
   212  106  229 1    
   213  107  108 2    
   214  107  109 am   BACKBONE|DICT|INTERRES
   215  109  110 1    
   216  109  230 1    
   217  110  111 1    
   218  110  112 1    
   219  110  231 1    
   220  111  232 1    
   221  111  233 1    
   222  111  234 1    
   223  112  113 2    
   224  112  114 am   BACKBONE|DICT|INTERRES
   225  114  115 1    
   226  114  235 1    
   227  115  116 1    
   228  115  117 1    
   229  115  236 1    
   230  116  237 1    
   231  116  238 1    
   232  116  239 1    
   233  117  118 2    
   234  117  119 am   BACKBONE|DICT|INTERRES
   235  119  120 1    
   236  119  240 1    
   237  120  121 1    
   238  120  124 1    
   239  120  241 1    
   240  121  122 am   BACKBONE|DICT|INTERRES
   241  121  123 2    
   242  122  242 1    
   243  122  243 1    
   244  124  125 1    
   245  124  244 1    
   246  124  245 1    
   247  125  126 1    
   248  126  246 1    
   249  126  247 1    
@<TRIPOS>SUBSTRUCTURE
     1 UNK         1 GROUP             0       ****    0 ROOT    
