@<TRIPOS>MOLECULE
3R540
247   249    1
SMALL
USER_CHARGES


@<TRIPOS>ATOM
      1 CA          0.6297  -11.0420  -45.0400 C.3       0 UNK        -0.1800 
      2 C           1.3384  -11.5547  -46.2849 C.2       0 UNK         0.5000 
      3 O           2.5412  -11.3452  -46.4399 O.2       0 UNK        -0.5000 
      4 N           0.6031  -12.2470  -47.1646 N.am      1 UNK        -0.5000 
      5 CA          1.0793  -12.8148  -48.4372 C.3       1 UNK         0.1400 
      6 C6         -0.0941  -13.3396  -49.3054 C.3       23 UNK        -0.0398 
      7 S7         -1.1996  -14.4966  -48.4205 S.3       23 UNK        -0.2404 
      8 C8         -1.8702  -15.5071  -49.7835 C.3       23 UNK        -0.0205 
      9 C9         -0.9459  -16.5888  -50.3461 C.ar      23 UNK        -0.0193 
     10 C10        -1.4472  -17.4199  -51.3527 C.ar      23 UNK        -0.1150 
     11 C11        -0.6621  -18.4311  -51.9113 C.ar      23 UNK        -0.0193 
     12 C12         0.6485  -18.6062  -51.4633 C.ar      23 UNK        -0.1150 
     13 C13         1.1598  -17.8050  -50.4383 C.ar      23 UNK        -0.0193 
     14 C14         0.3625  -16.7989  -49.8887 C.ar      23 UNK        -0.1150 
     15 C15         2.5472  -18.0793  -49.8707 C.3       23 UNK        -0.0205 
     16 S16         2.4780  -18.9073  -48.2409 S.3       23 UNK        -0.2404 
     17 C17         1.1189  -20.0893  -48.5089 C.3       23 UNK        -0.0398 
     18 CA          1.0612  -21.2606  -47.5028 C.3       11 UNK         0.1400 
     19 N           0.8226  -20.8132  -46.1305 N.am      11 UNK        -0.5000 
     20 C           1.2702  -21.4621  -45.0475 C.2       10 UNK         0.5000 
     21 O           1.8854  -22.5273  -45.0875 O.2       10 UNK        -0.5000 
     22 CA          0.9933  -20.8070  -43.6867 C.3       10 UNK         0.1400 
     23 CB          1.9029  -19.5880  -43.4664 C.3       10 UNK        -0.1800 
     24 N          -0.4090  -20.4154  -43.5682 N.am      10 UNK        -0.5000 
     25 C          -1.3791  -21.2356  -43.1384 C.2       9 UNK         0.5000 
     26 O          -1.1715  -22.3713  -42.7108 O.2       9 UNK        -0.5000 
     27 CA         -2.8281  -20.7136  -43.1968 C.3       9 UNK         0.1400 
     28 CB         -3.2795  -20.2127  -41.8163 C.3       9 UNK        -0.1800 
     29 N          -3.0094  -19.6599  -44.1982 N.am      9 UNK        -0.5000 
     30 C          -3.0341  -19.8950  -45.5191 C.2       8 UNK         0.5000 
     31 O          -2.9656  -21.0241  -46.0020 O.2       8 UNK        -0.5000 
     32 CA         -3.1109  -18.6870  -46.4753 C.3       8 UNK         0.1400 
     33 CB         -4.5479  -18.4837  -46.9753 C.3       8 UNK        -0.1800 
     34 N          -2.6217  -17.4319  -45.9062 N.am      8 UNK        -0.5000 
     35 C          -1.3709  -17.2121  -45.4820 C.2       7 UNK         0.5000 
     36 O          -0.4847  -18.0688  -45.5302 O.2       7 UNK        -0.5000 
     37 CA         -1.0728  -15.8321  -44.8494 C.3       7 UNK         0.1400 
     38 CB         -2.2408  -14.8221  -44.9469 C.3       7 UNK        -0.1800 
     39 N          -0.6575  -15.9374  -43.4477 N.am      7 UNK        -0.5000 
     40 C          -1.3319  -16.5563  -42.4638 C.2       6 UNK         0.5000 
     41 O          -2.3647  -17.2032  -42.6406 O.2       6 UNK        -0.5000 
     42 CA         -0.7878  -16.3963  -41.0309 C.3       6 UNK         0.1400 
     43 CB          0.2058  -17.5188  -40.7015 C.3       6 UNK        -0.1800 
     44 N          -0.1402  -15.1046  -40.7996 N.am      6 UNK        -0.5000 
     45 C          -0.7474  -13.9110  -40.8651 C.2       5 UNK         0.5000 
     46 O          -1.9599  -13.7701  -41.0277 O.2       5 UNK        -0.5000 
     47 CA          0.1450  -12.6588  -40.7389 C.3       5 UNK         0.1400 
     48 CB         -0.0631  -11.9861  -39.3728 C.3       5 UNK        -0.1800 
     49 N           1.5803  -12.9000  -40.9307 N.am      5 UNK        -0.5000 
     50 C           2.1548  -13.3125  -42.0670 C.2       4 UNK         0.5000 
     51 O           1.5293  -13.6359  -43.0829 O.2       4 UNK        -0.5000 
     52 CA          3.6848  -13.4094  -42.0562 C.3       4 UNK         0.1400 
     53 CB          4.1412  -14.7984  -41.5763 C.3       4 UNK        -0.1800 
     54 N           4.1365  -13.1783  -43.4175 N.am      4 UNK        -0.5000 
     55 C           5.3545  -12.8035  -43.8228 C.2       3 UNK         0.5000 
     56 O           6.2947  -12.5874  -43.0563 O.2       3 UNK        -0.5000 
     57 CA          5.5304  -12.6378  -45.3491 C.3       3 UNK         0.1400 
     58 CB          6.9859  -12.8304  -45.8246 C.3       3 UNK        -0.1800 
     59 N           4.5863  -13.4766  -46.1005 N.am      3 UNK        -0.5000 
     60 C           4.5572  -14.8191  -46.1565 C.2       2 UNK         0.5000 
     61 O           5.4640  -15.5399  -45.7395 O.2       2 UNK        -0.5000 
     62 CA          3.2747  -15.4805  -46.7037 C.3       2 UNK         0.1400 
     63 CB          2.6660  -16.4140  -45.6446 C.3       2 UNK        -0.1800 
     64 N           2.2479  -14.5146  -47.0965 N.am      2 UNK        -0.5000 
     65 C           2.1889  -13.8798  -48.2740 C.2       1 UNK         0.5000 
     66 O           2.9763  -14.0845  -49.1978 O.2       1 UNK        -0.5000 
     67 C           0.0030  -22.2935  -47.9402 C.2       11 UNK         0.5000 
     68 O           0.2716  -23.4950  -47.9255 O.2       11 UNK        -0.5000 
     69 N          -1.1615  -21.7955  -48.3821 N.am      12 UNK        -0.5000 
     70 CA         -2.1857  -22.5303  -49.1246 C.3       12 UNK         0.1400 
     71 CB         -3.3140  -21.5666  -49.5207 C.3       12 UNK        -0.1800 
     72 C          -2.7401  -23.7645  -48.3972 C.2       12 UNK         0.5000 
     73 O          -2.9167  -24.8042  -49.0301 O.2       12 UNK        -0.5000 
     74 N          -2.9554  -23.6475  -47.0819 N.am      13 UNK        -0.5000 
     75 CA         -3.4275  -24.7332  -46.2223 C.3       13 UNK         0.1400 
     76 CB         -3.7755  -24.1676  -44.8390 C.3       13 UNK        -0.1800 
     77 C          -2.4229  -25.8949  -46.0925 C.2       13 UNK         0.5000 
     78 O          -2.8468  -27.0447  -45.9732 O.2       13 UNK        -0.5000 
     79 N          -1.1196  -25.5845  -46.1346 N.am      14 UNK        -0.5000 
     80 CA         -0.0401  -26.5724  -46.1089 C.3       14 UNK         0.1400 
     81 CB          1.2383  -25.9212  -45.5606 C.3       14 UNK        -0.1800 
     82 C           0.2073  -27.1739  -47.5032 C.2       14 UNK         0.5000 
     83 O           0.4684  -28.3722  -47.6130 O.2       14 UNK        -0.5000 
     84 N           0.1024  -26.3347  -48.5426 N.am      15 UNK        -0.5000 
     85 CA          0.2568  -26.7101  -49.9496 C.3       15 UNK         0.1400 
     86 CB          0.4454  -25.4294  -50.7784 C.3       15 UNK        -0.1800 
     87 C          -0.9215  -27.5334  -50.5096 C.2       15 UNK         0.5000 
     88 O          -0.7604  -28.1734  -51.5494 O.2       15 UNK        -0.5000 
     89 N          -2.0772  -27.4778  -49.8306 N.am      16 UNK        -0.5000 
     90 CA         -3.3838  -28.0064  -50.2374 C.3       16 UNK         0.1400 
     91 CB         -3.3600  -29.5441  -50.3651 C.3       16 UNK        -0.1800 
     92 C          -3.9207  -27.2868  -51.4934 C.2       16 UNK         0.5000 
     93 O          -4.4387  -27.9252  -52.4119 O.2       16 UNK        -0.5000 
     94 N          -3.7665  -25.9589  -51.5005 N.am      17 UNK        -0.5000 
     95 CA         -4.2053  -25.0421  -52.5470 C.3       17 UNK         0.1400 
     96 CB         -3.0067  -24.1630  -52.9425 C.3       17 UNK        -0.1800 
     97 C          -5.3632  -24.1715  -52.0301 C.2       17 UNK         0.5000 
     98 O          -5.6500  -24.1628  -50.8299 O.2       17 UNK        -0.5000 
     99 N          -6.0027  -23.4333  -52.9448 N.am      18 UNK        -0.5000 
    100 CA        -7.0176  -22.4329  -52.6169 C.3       18 UNK         0.1400 
    101 CB        -7.7904  -22.0616  -53.8908 C.3       18 UNK        -0.1800 
    102 C         -6.3696  -21.1819  -51.9985 C.2       18 UNK         0.5000 
    103 O         -5.3335  -20.7276  -52.4907 O.2       18 UNK        -0.5000 
    104 N         -6.9992  -20.6334  -50.9526 N.am      19 UNK        -0.5000 
    105 CA        -6.5723  -19.4071  -50.2788 C.3       19 UNK         0.1400 
    106 CB        -7.4526  -19.1773  -49.0412 C.3       19 UNK        -0.1800 
    107 C         -6.6364  -18.1953  -51.2251 C.2       19 UNK         0.5000 
    108 O         -7.6534  -18.0069  -51.8965 O.2       19 UNK        -0.5000 
    109 N         -5.5420  -17.4237  -51.2785 N.am      20 UNK        -0.5000 
    110 CA        -5.2902  -16.2359  -52.1111 C.3       20 UNK         0.1400 
    111 CB        -6.2963  -15.1110  -51.8024 C.3       20 UNK        -0.1800 
    112 C         -5.2059  -16.5042  -53.6300 C.2       20 UNK         0.5000 
    113 O         -4.3607  -15.9074  -54.2968 O.2       20 UNK        -0.5000 
    114 N         -6.0717  -17.3805  -54.1517 N.am      21 UNK        -0.5000 
    115 CA        -6.1444  -17.7655  -55.5606 C.3       21 UNK         0.1400 
    116 CB        -7.5117  -18.4130  -55.8274 C.3       21 UNK        -0.1800 
    117 C         -5.0062  -18.7077  -55.9950 C.2       21 UNK         0.5000 
    118 O         -4.6014  -18.6624  -57.1571 O.2       21 UNK        -0.5000 
    119 N         -4.5230  -19.5442  -55.0661 N.am      22 UNK        -0.5000 
    120 CA        -3.4312  -20.5195  -55.2431 C.3       22 UNK         0.1400 
    121 C         -3.7668  -21.7352  -56.1604 C.2       22 UNK         0.5000 
    122 N         -5.0148  -21.9483  -56.5585 N.am      22 UNK        -0.7600 
    123 O         -2.8872  -22.5261  -56.4890 O.2       22 UNK        -0.5000 
    124 C124       -2.0625  -19.8727  -55.6080 C.3       23 UNK        -0.0398 
    125 S125       -1.5642  -18.4866  -54.5278 S.3       23 UNK        -0.2404 
    126 C126       -1.2465  -19.3590  -52.9649 C.3       23 UNK        -0.0205 
    127 H127        0.3256  -10.0051  -45.1815 H         1 UNK         0.0600 
    128 H128        1.2961  -11.0868  -44.1789 H         1 UNK         0.0600 
    129 H129       -0.2557  -11.6356  -44.8109 H         1 UNK         0.0600 
    130 H130       -0.3785  -12.3959  -46.9767 H         1 UNK         0.3000 
    131 H131        1.5404  -11.9920  -48.9877 H         1 UNK         0.0600 
    132 H132       -0.7008  -12.4965  -49.6379 H         1 UNK         0.0800 
    133 H133        0.2790  -13.8078  -50.2184 H         1 UNK         0.0800 
    134 H134       -2.1815  -14.8445  -50.5923 H         1 UNK         0.0800 
    135 H135       -2.7759  -15.9910  -49.4153 H         1 UNK         0.0800 
    136 H136       -2.4574  -17.2861  -51.7092 H         1 UNK         0.1150 
    137 H137        1.2575  -19.3951  -51.8821 H         1 UNK         0.1150 
    138 H138        0.7707  -16.2093  -49.0837 H         1 UNK         0.1150 
    139 H139        3.1231  -18.7011  -50.5578 H         1 UNK         0.0800 
    140 H140        3.0951  -17.1408  -49.7756 H         1 UNK         0.0800 
    141 H141        1.2264  -20.4896  -49.5185 H         1 UNK         0.0800 
    142 H142        0.1902  -19.5165  -48.4904 H         1 UNK         0.0800 
    143 H143        2.0300  -21.7637  -47.5465 H         1 UNK         0.0600 
    144 H144        0.3527  -19.9226  -46.0101 H         1 UNK         0.3000 
    145 H145        1.2371  -21.5381  -42.9127 H         1 UNK         0.0600 
    146 H146        1.8531  -19.2516  -42.4328 H         1 UNK         0.0600 
    147 H147        2.9456  -19.8341  -43.6714 H         1 UNK         0.0600 
    148 H148        1.6321  -18.7507  -44.1087 H         1 UNK         0.0600 
    149 H149       -0.6629  -19.5149  -43.9558 H         1 UNK         0.3000 
    150 H150       -3.4735  -21.5510  -43.4669 H         1 UNK         0.0600 
    151 H151       -3.3064  -21.0340  -41.0993 H         1 UNK         0.0600 
    152 H152       -4.2803  -19.7827  -41.8562 H         1 UNK         0.0600 
    153 H153       -2.6028  -19.4590  -41.4149 H         1 UNK         0.0600 
    154 H154       -3.0192  -18.7044  -43.8548 H         1 UNK         0.3000 
    155 H155       -2.4831  -18.9214  -47.3373 H         1 UNK         0.0600 
    156 H156       -5.2144  -18.1783  -46.1678 H         1 UNK         0.0600 
    157 H157       -4.5913  -17.7225  -47.7544 H         1 UNK         0.0600 
    158 H158       -4.9495  -19.4053  -47.3971 H         1 UNK         0.0600 
    159 H159       -3.2992  -16.6917  -45.7970 H         1 UNK         0.3000 
    160 H160       -0.2285  -15.4203  -45.4024 H         1 UNK         0.0600 
    161 H161       -3.0955  -15.1216  -44.3393 H         1 UNK         0.0600 
    162 H162       -2.5952  -14.7001  -45.9691 H         1 UNK         0.0600 
    163 H163       -1.9261  -13.8376  -44.6001 H         1 UNK         0.0600 
    164 H164        0.1718  -15.4120  -43.1989 H         1 UNK         0.3000 
    165 H165       -1.6364  -16.4771  -40.3485 H         1 UNK         0.0600 
    166 H166        0.4647  -17.5158  -39.6426 H         1 UNK         0.0600 
    167 H167       -0.2131  -18.4998  -40.9308 H         1 UNK         0.0600 
    168 H168        1.1289  -17.4090  -41.2705 H         1 UNK         0.0600 
    169 H169        0.8566  -15.1174  -40.6462 H         1 UNK         0.3000 
    170 H170       -0.1774  -11.9614  -41.5150 H         1 UNK         0.0600 
    171 H171       -1.1159  -11.7548  -39.2052 H         1 UNK         0.0600 
    172 H172        0.2659  -12.6282  -38.5549 H         1 UNK         0.0600 
    173 H173        0.4870  -11.0472  -39.3066 H         1 UNK         0.0600 
    174 H174        2.1716  -12.6805  -40.1417 H         1 UNK         0.3000 
    175 H175        4.0910  -12.6339  -41.4037 H         1 UNK         0.0600 
    176 H176        3.7556  -15.5915  -42.2188 H         1 UNK         0.0600 
    177 H177        5.2284  -14.8766  -41.5677 H         1 UNK         0.0600 
    178 H178        3.7946  -14.9970  -40.5616 H         1 UNK         0.0600 
    179 H179        3.4061  -13.2958  -44.1073 H         1 UNK         0.3000 
    180 H180        5.2519  -11.6067  -45.5708 H         1 UNK         0.0600 
    181 H181        7.3889  -13.7995  -45.5303 H         1 UNK         0.0600 
    182 H182        7.6368  -12.0677  -45.3960 H         1 UNK         0.0600 
    183 H183        7.0612  -12.7485  -46.9088 H         1 UNK         0.0600 
    184 H184        3.7914  -12.9690  -46.4747 H         1 UNK         0.3000 
    185 H185        3.5594  -16.0793  -47.5703 H         1 UNK         0.0600 
    186 H186        3.3706  -17.1933  -45.3520 H         1 UNK         0.0600 
    187 H187        2.3775  -15.8742  -44.7419 H         1 UNK         0.0600 
    188 H188        1.7830  -16.9164  -46.0350 H         1 UNK         0.0600 
    189 H189        1.5672  -14.2671  -46.3941 H         1 UNK         0.3000 
    190 H190       -1.3204  -20.8050  -48.2931 H         1 UNK         0.3000 
    191 H191       -1.7130  -22.8833  -50.0419 H         1 UNK         0.0600 
    192 H192       -3.8182  -21.1575  -48.6457 H         1 UNK         0.0600 
    193 H193       -4.0674  -22.0755  -50.1211 H         1 UNK         0.0600 
    194 H194       -2.9379  -20.7342  -50.1161 H         1 UNK         0.0600 
    195 H195       -2.8199  -22.7358  -46.6482 H         1 UNK         0.3000 
    196 H196       -4.3412  -25.1344  -46.6659 H         1 UNK         0.0600 
    197 H197       -4.1877  -24.9423  -44.1914 H         1 UNK         0.0600 
    198 H198       -4.5186  -23.3732  -44.9123 H         1 UNK         0.0600 
    199 H199       -2.8933  -23.7614  -44.3447 H         1 UNK         0.0600 
    200 H200       -0.8501  -24.6227  -46.2950 H         1 UNK         0.3000 
    201 H201       -0.3164  -27.3859  -45.4346 H         1 UNK         0.0600 
    202 H202        1.0754  -25.5078  -44.5651 H         1 UNK         0.0600 
    203 H203        1.5899  -25.1132  -46.2029 H         1 UNK         0.0600 
    204 H204        2.0447  -26.6514  -45.4829 H         1 UNK         0.0600 
    205 H205       -0.0480  -25.3482  -48.3504 H         1 UNK         0.3000 
    206 H206        1.1591  -27.3174  -50.0448 H         1 UNK         0.0600 
    207 H207        1.2960  -24.8481  -50.4220 H         1 UNK         0.0600 
    208 H208        0.6281  -25.6648  -51.8276 H         1 UNK         0.0600 
    209 H209       -0.4383  -24.7927  -50.7354 H         1 UNK         0.0600 
    210 H210       -2.1014  -26.8513  -49.0360 H         1 UNK         0.3000 
    211 H211       -4.0728  -27.7572  -49.4290 H         1 UNK         0.0600 
    212 H212       -2.7497  -29.8763  -51.2051 H         1 UNK         0.0600 
    213 H213       -4.3658  -29.9356  -50.5206 H         1 UNK         0.0600 
    214 H214       -2.9674  -30.0080  -49.4602 H         1 UNK         0.0600 
    215 H215       -3.4215  -25.5178  -50.6499 H         1 UNK         0.3000 
    216 H216       -4.5498  -25.5931  -53.4244 H         1 UNK         0.0600 
    217 H217       -3.2575  -23.5081  -53.7761 H         1 UNK         0.0600 
    218 H218       -2.1574  -24.7712  -53.2546 H         1 UNK         0.0600 
    219 H219       -2.6798  -23.5308  -52.1171 H         1 UNK         0.0600 
    220 H220       -5.6975  -23.4636  -53.9064 H         1 UNK         0.3000 
    221 H221       -7.7198  -22.8659  -51.9010 H         1 UNK         0.0600 
    222 H222       -7.1345  -21.6319  -54.6471 H         1 UNK         0.0600 
    223 H223       -8.2780  -22.9343  -54.3256 H         1 UNK         0.0600 
    224 H224       -8.5682  -21.3277  -53.6757 H         1 UNK         0.0600 
    225 H225       -7.8614  -21.0450  -50.6271 H         1 UNK         0.3000 
    226 H226       -5.5413  -19.5475  -49.9483 H         1 UNK         0.0600 
    227 H227       -7.3637  -20.0025  -48.3344 H         1 UNK         0.0600 
    228 H228       -7.1605  -18.2667  -48.5165 H         1 UNK         0.0600 
    229 H229       -8.5051  -19.0759  -49.3092 H         1 UNK         0.0600 
    230 H230       -4.7578  -17.7030  -50.7077 H         1 UNK         0.3000 
    231 H231       -4.3079  -15.8700  -51.8107 H         1 UNK         0.0600 
    232 H232       -6.0315  -14.1974  -52.3361 H         1 UNK         0.0600 
    233 H233       -6.3080  -14.8736  -50.7387 H         1 UNK         0.0600 
    234 H234       -7.3114  -15.3758  -52.0991 H         1 UNK         0.0600 
    235 H235       -6.7564  -17.7873  -53.5201 H         1 UNK         0.3000 
    236 H236       -6.0727  -16.8610  -56.1683 H         1 UNK         0.0600 
    237 H237       -8.3231  -17.7136  -55.6249 H         1 UNK         0.0600 
    238 H238       -7.6035  -18.7235  -56.8690 H         1 UNK         0.0600 
    239 H239       -7.6685  -19.2935  -55.2043 H         1 UNK         0.0600 
    240 H240       -4.9365  -19.5433  -54.1406 H         1 UNK         0.3000 
    241 H241       -3.3108  -20.9737  -54.2604 H         1 UNK         0.0600 
    242 H242       -5.7424  -21.2927  -56.3293 H         1 UNK         0.3800 
    243 H243       -5.2158  -22.7378  -57.1519 H         1 UNK         0.3800 
    244 H244       -1.2675  -20.6197  -55.5785 H         1 UNK         0.0800 
    245 H245       -2.0840  -19.5032  -56.6341 H         1 UNK         0.0800 
    246 H246       -2.1793  -19.7781  -52.5849 H         1 UNK         0.0800 
    247 H247       -0.5779  -20.2012  -53.1496 H         1 UNK         0.0800 
@<TRIPOS>BOND
     1    1    2 1    
     2    1  127 1    
     3    1  128 1    
     4    1  129 1    
     5    2    3 2    
     6    2    4 am   BACKBONE|DICT|INTERRES
     7    4    5 1    
     8    4  130 1    
     9    5    6 1    
    10    5   65 1    
    11    5  131 1    
    12    6    7 1    
    13    6  132 1    
    14    6  133 1    
    15    7    8 1    
    16    8    9 1    
    17    8  134 1    
    18    8  135 1    
    19    9   10 ar   
    20    9   14 ar   
    21   10   11 ar   
    22   10  136 1    
    23   11   12 ar   
    24   11  126 1    
    25   12   13 ar   
    26   12  137 1    
    27   13   14 ar   
    28   13   15 1    
    29   14  138 1    
    30   15   16 1    
    31   15  139 1    
    32   15  140 1    
    33   16   17 1    
    34   17   18 1    
    35   17  141 1    
    36   17  142 1    
    37   18   19 1    
    38   18   67 1    
    39   18  143 1    
    40   19   20 am   BACKBONE|DICT|INTERRES
    41   19  144 1    
    42   20   21 2    
    43   20   22 1    
    44   22   23 1    
    45   22   24 1    
    46   22  145 1    
    47   23  146 1    
    48   23  147 1    
    49   23  148 1    
    50   24   25 am   BACKBONE|DICT|INTERRES
    51   24  149 1    
    52   25   26 2    
    53   25   27 1    
    54   27   28 1    
    55   27   29 1    
    56   27  150 1    
    57   28  151 1    
    58   28  152 1    
    59   28  153 1    
    60   29   30 am   BACKBONE|DICT|INTERRES
    61   29  154 1    
    62   30   31 2    
    63   30   32 1    
    64   32   33 1    
    65   32   34 1    
    66   32  155 1    
    67   33  156 1    
    68   33  157 1    
    69   33  158 1    
    70   34   35 am   BACKBONE|DICT|INTERRES
    71   34  159 1    
    72   35   36 2    
    73   35   37 1    
    74   37   38 1    
    75   37   39 1    
    76   37  160 1    
    77   38  161 1    
    78   38  162 1    
    79   38  163 1    
    80   39   40 am   BACKBONE|DICT|INTERRES
    81   39  164 1    
    82   40   41 2    
    83   40   42 1    
    84   42   43 1    
    85   42   44 1    
    86   42  165 1    
    87   43  166 1    
    88   43  167 1    
    89   43  168 1    
    90   44   45 am   BACKBONE|DICT|INTERRES
    91   44  169 1    
    92   45   46 2    
    93   45   47 1    
    94   47   48 1    
    95   47   49 1    
    96   47  170 1    
    97   48  171 1    
    98   48  172 1    
    99   48  173 1    
   100   49   50 am   BACKBONE|DICT|INTERRES
   101   49  174 1    
   102   50   51 2    
   103   50   52 1    
   104   52   53 1    
   105   52   54 1    
   106   52  175 1    
   107   53  176 1    
   108   53  177 1    
   109   53  178 1    
   110   54   55 am   BACKBONE|DICT|INTERRES
   111   54  179 1    
   112   55   56 2    
   113   55   57 1    
   114   57   58 1    
   115   57   59 1    
   116   57  180 1    
   117   58  181 1    
   118   58  182 1    
   119   58  183 1    
   120   59   60 am   BACKBONE|DICT|INTERRES
   121   59  184 1    
   122   60   61 2    
   123   60   62 1    
   124   62   63 1    
   125   62   64 1    
   126   62  185 1    
   127   63  186 1    
   128   63  187 1    
   129   63  188 1    
   130   64   65 am   BACKBONE|DICT|INTERRES
   131   64  189 1    
   132   65   66 2    
   133   67   68 2    
   134   67   69 am   BACKBONE|DICT|INTERRES
   135   69   70 1    
   136   69  190 1    
   137   70   71 1    
   138   70   72 1    
   139   70  191 1    
   140   71  192 1    
   141   71  193 1    
   142   71  194 1    
   143   72   73 2    
   144   72   74 am   BACKBONE|DICT|INTERRES
   145   74   75 1    
   146   74  195 1    
   147   75   76 1    
   148   75   77 1    
   149   75  196 1    
   150   76  197 1    
   151   76  198 1    
   152   76  199 1    
   153   77   78 2    
   154   77   79 am   BACKBONE|DICT|INTERRES
   155   79   80 1    
   156   79  200 1    
   157   80   81 1    
   158   80   82 1    
   159   80  201 1    
   160   81  202 1    
   161   81  203 1    
   162   81  204 1    
   163   82   83 2    
   164   82   84 am   BACKBONE|DICT|INTERRES
   165   84   85 1    
   166   84  205 1    
   167   85   86 1    
   168   85   87 1    
   169   85  206 1    
   170   86  207 1    
   171   86  208 1    
   172   86  209 1    
   173   87   88 2    
   174   87   89 am   BACKBONE|DICT|INTERRES
   175   89   90 1    
   176   89  210 1    
   177   90   91 1    
   178   90   92 1    
   179   90  211 1    
   180   91  212 1    
   181   91  213 1    
   182   91  214 1    
   183   92   93 2    
   184   92   94 am   BACKBONE|DICT|INTERRES
   185   94   95 1    
   186   94  215 1    
   187   95   96 1    
   188   95   97 1    
   189   95  216 1    
   190   96  217 1    
   191   96  218 1    
   192   96  219 1    
   193   97   98 2    
   194   97   99 am   BACKBONE|DICT|INTERRES
   195   99  100 1    
   196   99  220 1    
   197  100  101 1    
   198  100  102 1    
   199  100  221 1    
   200  101  222 1    
   201  101  223 1    
   202  101  224 1    
   203  102  103 2    
   204  102  104 am   BACKBONE|DICT|INTERRES
   205  104  105 1    
   206  104  225 1    
   207  105  106 1    
   208  105  107 1    
   209  105  226 1    
   210  106  227 1    
   211  106  228 1    
   212  106  229 1    
   213  107  108 2    
   214  107  109 am   BACKBONE|DICT|INTERRES
   215  109  110 1    
   216  109  230 1    
   217  110  111 1    
   218  110  112 1    
   219  110  231 1    
   220  111  232 1    
   221  111  233 1    
   222  111  234 1    
   223  112  113 2    
   224  112  114 am   BACKBONE|DICT|INTERRES
   225  114  115 1    
   226  114  235 1    
   227  115  116 1    
   228  115  117 1    
   229  115  236 1    
   230  116  237 1    
   231  116  238 1    
   232  116  239 1    
   233  117  118 2    
   234  117  119 am   BACKBONE|DICT|INTERRES
   235  119  120 1    
   236  119  240 1    
   237  120  121 1    
   238  120  124 1    
   239  120  241 1    
   240  121  122 am   BACKBONE|DICT|INTERRES
   241  121  123 2    
   242  122  242 1    
   243  122  243 1    
   244  124  125 1    
   245  124  244 1    
   246  124  245 1    
   247  125  126 1    
   248  126  246 1    
   249  126  247 1    
@<TRIPOS>SUBSTRUCTURE
     1 UNK         1 GROUP             0       ****    0 ROOT    
