@<TRIPOS>MOLECULE
3R540
247   249    1
SMALL
USER_CHARGES


@<TRIPOS>ATOM
      1 CA          1.2547  -10.5101  -49.5105 C.3       0 UNK        -0.1800 
      2 C           0.9315  -11.3072  -48.2560 C.2       0 UNK         0.5000 
      3 O           1.6973  -11.2655  -47.2935 O.2       0 UNK        -0.5000 
      4 N          -0.2067  -12.0146  -48.2557 N.am      1 UNK        -0.5000 
      5 CA         -0.6866  -12.8987  -47.1815 C.3       1 UNK         0.1400 
      6 C6         -2.0313  -13.5702  -47.5552 C.3       23 UNK        -0.0398 
      7 S7         -1.9342  -14.6234  -49.0450 S.3       23 UNK        -0.2404 
      8 C8         -2.0775  -16.2670  -48.2820 C.3       23 UNK        -0.0205 
      9 C9         -2.2669  -17.3786  -49.3006 C.ar      23 UNK        -0.0193 
     10 C10        -3.4795  -17.5029  -49.9837 C.ar      23 UNK        -0.1150 
     11 C11        -3.6842  -18.5501  -50.8867 C.ar      23 UNK        -0.0193 
     12 C12        -2.6718  -19.4945  -51.0823 C.ar      23 UNK        -0.1150 
     13 C13        -1.4452  -19.3665  -50.4227 C.ar      23 UNK        -0.0193 
     14 C14        -1.2486  -18.3069  -49.5327 C.ar      23 UNK        -0.1150 
     15 C15        -0.3218  -20.3534  -50.6965 C.3       23 UNK        -0.0205 
     16 S16        -0.5296  -21.9035  -49.7713 S.3       23 UNK        -0.2404 
     17 C17        -0.1515  -21.3765  -48.0648 C.3       23 UNK        -0.0398 
     18 CA         -0.2414  -22.5594  -47.0732 C.3       11 UNK         0.1400 
     19 N           0.4794  -22.3112  -45.8237 N.am      11 UNK        -0.5000 
     20 C           0.7221  -23.2451  -44.8926 C.2       10 UNK         0.5000 
     21 O           0.3744  -24.4209  -45.0000 O.2       10 UNK        -0.5000 
     22 CA          1.4231  -22.7814  -43.6039 C.3       10 UNK         0.1400 
     23 CB          2.9273  -22.5766  -43.8363 C.3       10 UNK        -0.1800 
     24 N           0.8317  -21.5603  -43.0574 N.am      10 UNK        -0.5000 
     25 C          -0.4294  -21.4680  -42.6105 C.2       9 UNK         0.5000 
     26 O          -1.2117  -22.4186  -42.5655 O.2       9 UNK        -0.5000 
     27 CA         -0.9116  -20.0696  -42.1832 C.3       9 UNK         0.1400 
     28 CB         -0.4228  -19.7318  -40.7669 C.3       9 UNK        -0.1800 
     29 N          -0.4935  -19.0172  -43.1107 N.am      9 UNK        -0.5000 
     30 C          -0.8608  -18.9480  -44.3984 C.2       8 UNK         0.5000 
     31 O          -1.6182  -19.7502  -44.9413 O.2       8 UNK        -0.5000 
     32 CA         -0.2298  -17.8290  -45.2412 C.3       8 UNK         0.1400 
     33 CB         -0.8807  -16.4722  -44.9308 C.3       8 UNK        -0.1800 
     34 N           1.2165  -17.7416  -45.0539 N.am      8 UNK        -0.5000 
     35 C           2.0838  -18.7230  -45.3397 C.2       7 UNK         0.5000 
     36 O           1.7628  -19.7920  -45.8557 O.2       7 UNK        -0.5000 
     37 CA          3.5482  -18.4928  -44.9352 C.3       7 UNK         0.1400 
     38 CB          4.2929  -17.6957  -46.0151 C.3       7 UNK        -0.1800 
     39 N           3.6516  -17.8084  -43.6465 N.am      7 UNK        -0.5000 
     40 C           3.3282  -18.3662  -42.4707 C.2       6 UNK         0.5000 
     41 O           2.9476  -19.5308  -42.3470 O.2       6 UNK        -0.5000 
     42 CA          3.4011  -17.4524  -41.2340 C.3       6 UNK         0.1400 
     43 CB          4.8450  -17.3417  -40.7223 C.3       6 UNK        -0.1800 
     44 N           2.8734  -16.1129  -41.5004 N.am      6 UNK        -0.5000 
     45 C           1.5832  -15.8496  -41.7514 C.2       5 UNK         0.5000 
     46 O           0.6998  -16.7067  -41.7418 O.2       5 UNK        -0.5000 
     47 CA          1.2260  -14.3955  -42.1128 C.3       5 UNK         0.1400 
     48 CB          0.9236  -13.5784  -40.8486 C.3       5 UNK        -0.1800 
     49 N           2.2549  -13.7066  -42.8957 N.am      5 UNK        -0.5000 
     50 C           2.6801  -14.0775  -44.1104 C.2       4 UNK         0.5000 
     51 O           2.3107  -15.1098  -44.6714 O.2       4 UNK        -0.5000 
     52 CA          3.6739  -13.1266  -44.8056 C.3       4 UNK         0.1400 
     53 CB          4.0564  -13.5935  -46.2211 C.3       4 UNK        -0.1800 
     54 N           3.1249  -11.7763  -44.8981 N.am      4 UNK        -0.5000 
     55 C           3.1970  -10.8370  -43.9474 C.2       3 UNK         0.5000 
     56 O           3.7284  -11.0164  -42.8508 O.2       3 UNK        -0.5000 
     57 CA          2.5247   -9.4939  -44.2649 C.3       3 UNK         0.1400 
     58 CB          3.3196   -8.7145  -45.3252 C.3       3 UNK        -0.1800 
     59 N           1.1598   -9.7088  -44.7397 N.am      3 UNK        -0.5000 
     60 C           0.0820   -9.7651  -43.9459 C.2       2 UNK         0.5000 
     61 O           0.1185   -9.5874  -42.7277 O.2       2 UNK        -0.5000 
     62 CA         -1.2694  -10.0655  -44.6227 C.3       2 UNK         0.1400 
     63 CB         -1.9867   -8.7585  -44.9936 C.3       2 UNK        -0.1800 
     64 N          -1.1404  -10.8947  -45.8218 N.am      2 UNK        -0.5000 
     65 C          -0.8300  -12.1987  -45.8111 C.2       1 UNK         0.5000 
     66 O          -0.6597  -12.8482  -44.7800 O.2       1 UNK        -0.5000 
     67 C          -1.7017  -22.9817  -46.8229 C.2       11 UNK         0.5000 
     68 O          -2.1617  -23.9299  -47.4571 O.2       11 UNK        -0.5000 
     69 N          -2.3890  -22.3167  -45.8827 N.am      12 UNK        -0.5000 
     70 CA         -3.7601  -22.6301  -45.4735 C.3       12 UNK         0.1400 
     71 CB         -4.2590  -21.5784  -44.4721 C.3       12 UNK        -0.1800 
     72 C          -3.9189  -24.0491  -44.8976 C.2       12 UNK         0.5000 
     73 O          -4.9405  -24.6905  -45.1430 O.2       12 UNK        -0.5000 
     74 N          -2.9010  -24.5232  -44.1681 N.am      13 UNK        -0.5000 
     75 CA         -2.8241  -25.8965  -43.6762 C.3       13 UNK         0.1400 
     76 CB         -1.7808  -25.9754  -42.5508 C.3       13 UNK        -0.1800 
     77 C          -2.4995  -26.9016  -44.7985 C.2       13 UNK         0.5000 
     78 O          -3.0803  -27.9874  -44.8258 O.2       13 UNK        -0.5000 
     79 N          -1.5675  -26.5330  -45.6874 N.am      14 UNK        -0.5000 
     80 CA         -1.0404  -27.3981  -46.7408 C.3       14 UNK         0.1400 
     81 CB          0.3062  -26.8403  -47.2278 C.3       14 UNK        -0.1800 
     82 C          -1.9908  -27.6025  -47.9342 C.2       14 UNK         0.5000 
     83 O          -2.0967  -28.7292  -48.4220 O.2       14 UNK        -0.5000 
     84 N          -2.6219  -26.5238  -48.4168 N.am      15 UNK        -0.5000 
     85 CA         -3.3405  -26.5137  -49.6947 C.3       15 UNK         0.1400 
     86 CB         -2.3396  -26.2371  -50.8327 C.3       15 UNK        -0.1800 
     87 C          -4.4957  -25.5029  -49.7506 C.2       15 UNK         0.5000 
     88 O          -5.5190  -25.7991  -50.3700 O.2       15 UNK        -0.5000 
     89 N          -4.3154  -24.3234  -49.1407 N.am      16 UNK        -0.5000 
     90 CA         -5.2164  -23.1685  -49.1864 C.3       16 UNK         0.1400 
     91 CB         -6.4806  -23.4396  -48.3376 C.3       16 UNK        -0.1800 
     92 C          -5.5134  -22.7417  -50.6409 C.2       16 UNK         0.5000 
     93 O          -4.5781  -22.4746  -51.3959 O.2       16 UNK        -0.5000 
     94 N          -6.7967  -22.7254  -51.0236 N.am      17 UNK        -0.5000 
     95 CA         -7.2905  -22.3714  -52.3555 C.3       17 UNK         0.1400 
     96 CB         -8.8247  -22.3036  -52.3089 C.3       17 UNK        -0.1800 
     97 C          -6.8242  -23.3051  -53.4921 C.2       17 UNK         0.5000 
     98 O          -6.9284  -22.9142  -54.6547 O.2       17 UNK        -0.5000 
     99 N          -6.3104  -24.5023  -53.1638 N.am      18 UNK        -0.5000 
    100 CA        -5.6995  -25.4152  -54.1344 C.3       18 UNK         0.1400 
    101 CB        -5.5586  -26.8174  -53.5249 C.3       18 UNK        -0.1800 
    102 C         -4.3462  -24.9003  -54.6667 C.2       18 UNK         0.5000 
    103 O         -3.9736  -25.2433  -55.7891 O.2       18 UNK        -0.5000 
    104 N         -3.6627  -24.0391  -53.8977 N.am      19 UNK        -0.5000 
    105 CA        -2.4966  -23.2689  -54.3335 C.3       19 UNK         0.1400 
    106 CB        -1.5469  -23.0807  -53.1396 C.3       19 UNK        -0.1800 
    107 C         -2.9758  -21.9345  -54.9401 C.2       19 UNK         0.5000 
    108 O         -2.6263  -20.8606  -54.4489 O.2       19 UNK        -0.5000 
    109 N         -3.8063  -22.0526  -55.9860 N.am      20 UNK        -0.5000 
    110 CA        -4.6940  -21.0340  -56.5582 C.3       20 UNK         0.1400 
    111 CB        -5.5053  -21.6890  -57.6884 C.3       20 UNK        -0.1800 
    112 C         -4.0448  -19.7274  -57.0557 C.2       20 UNK         0.5000 
    113 O         -4.7713  -18.7692  -57.3245 O.2       20 UNK        -0.5000 
    114 N         -2.7112  -19.6933  -57.1755 N.am      21 UNK        -0.5000 
    115 CA        -1.9402  -18.4798  -57.4478 C.3       21 UNK         0.1400 
    116 CB        -0.4716  -18.8561  -57.6966 C.3       21 UNK        -0.1800 
    117 C         -2.0551  -17.4448  -56.3098 C.2       21 UNK         0.5000 
    118 O         -2.1659  -16.2511  -56.5920 O.2       21 UNK        -0.5000 
    119 N         -2.0567  -17.9334  -55.0598 N.am      22 UNK        -0.5000 
    120 CA        -2.2744  -17.1754  -53.8135 C.3       22 UNK         0.1400 
    121 C         -1.3395  -15.9439  -53.6028 C.2       22 UNK         0.5000 
    122 N         -0.0950  -15.9952  -54.0629 N.am      22 UNK        -0.7600 
    123 O         -1.7277  -14.9394  -53.0129 O.2       22 UNK        -0.5000 
    124 C124       -3.7800  -16.8708  -53.5614 C.3       23 UNK        -0.0398 
    125 S125       -4.7869  -18.3971  -53.4580 S.3       23 UNK        -0.2404 
    126 C126       -4.9935  -18.6444  -51.6598 C.3       23 UNK        -0.0205 
    127 H127        0.4875  -10.6287  -50.2759 H         1 UNK         0.0600 
    128 H128        2.2061  -10.8401  -49.9274 H         1 UNK         0.0600 
    129 H129        1.3361   -9.4502  -49.2698 H         1 UNK         0.0600 
    130 H130       -0.7819  -12.0080  -49.0864 H         1 UNK         0.3000 
    131 H131        0.0648  -13.6813  -47.0551 H         1 UNK         0.0600 
    132 H132       -2.4032  -14.1683  -46.7211 H         1 UNK         0.0800 
    133 H133       -2.7949  -12.8111  -47.7344 H         1 UNK         0.0800 
    134 H134       -2.9174  -16.2849  -47.5860 H         1 UNK         0.0800 
    135 H135       -1.1756  -16.4406  -47.6989 H         1 UNK         0.0800 
    136 H136       -4.2611  -16.7758  -49.8135 H         1 UNK         0.1150 
    137 H137       -2.8280  -20.3072  -51.7787 H         1 UNK         0.1150 
    138 H138       -0.3045  -18.2108  -49.0150 H         1 UNK         0.1150 
    139 H139       -0.2988  -20.5812  -51.7631 H         1 UNK         0.0800 
    140 H140        0.6481  -19.9132  -50.4599 H         1 UNK         0.0800 
    141 H141       -0.8101  -20.5593  -47.7655 H         1 UNK         0.0800 
    142 H142        0.8606  -20.9703  -48.0695 H         1 UNK         0.0800 
    143 H143        0.2603  -23.4112  -47.5371 H         1 UNK         0.0600 
    144 H144        0.8289  -21.3659  -45.6808 H         1 UNK         0.3000 
    145 H145        1.3018  -23.5708  -42.8591 H         1 UNK         0.0600 
    146 H146        3.4369  -22.3150  -42.9088 H         1 UNK         0.0600 
    147 H147        3.3904  -23.4879  -44.2166 H         1 UNK         0.0600 
    148 H148        3.1213  -21.7840  -44.5586 H         1 UNK         0.0600 
    149 H149        1.4277  -20.7400  -43.0211 H         1 UNK         0.3000 
    150 H150       -2.0033  -20.0856  -42.1708 H         1 UNK         0.0600 
    151 H151       -0.7317  -20.4968  -40.0535 H         1 UNK         0.0600 
    152 H152       -0.8347  -18.7822  -40.4249 H         1 UNK         0.0600 
    153 H153        0.6643  -19.6587  -40.7222 H         1 UNK         0.0600 
    154 H154        0.1043  -18.2885  -42.7313 H         1 UNK         0.3000 
    155 H155       -0.4067  -18.0705  -46.2903 H         1 UNK         0.0600 
    156 H156       -0.7919  -16.2103  -43.8777 H         1 UNK         0.0600 
    157 H157       -0.4228  -15.6698  -45.5088 H         1 UNK         0.0600 
    158 H158       -1.9443  -16.4866  -45.1702 H         1 UNK         0.0600 
    159 H159        1.5806  -16.8628  -44.6951 H         1 UNK         0.3000 
    160 H160        4.0308  -19.4678  -44.8412 H         1 UNK         0.0600 
    161 H161        4.3172  -18.2490  -46.9547 H         1 UNK         0.0600 
    162 H162        3.8087  -16.7406  -46.2152 H         1 UNK         0.0600 
    163 H163        5.3252  -17.4996  -45.7254 H         1 UNK         0.0600 
    164 H164        3.8947  -16.8295  -43.6705 H         1 UNK         0.3000 
    165 H165        2.7949  -17.9078  -40.4478 H         1 UNK         0.0600 
    166 H166        4.8932  -16.7586  -39.8026 H         1 UNK         0.0600 
    167 H167        5.2569  -18.3277  -40.5027 H         1 UNK         0.0600 
    168 H168        5.4994  -16.8682  -41.4552 H         1 UNK         0.0600 
    169 H169        3.5356  -15.3517  -41.5267 H         1 UNK         0.3000 
    170 H170        0.3198  -14.4234  -42.7202 H         1 UNK         0.0600 
    171 H171        0.1419  -14.0533  -40.2541 H         1 UNK         0.0600 
    172 H172        1.8047  -13.4767  -40.2140 H         1 UNK         0.0600 
    173 H173        0.5744  -12.5771  -41.1026 H         1 UNK         0.0600 
    174 H174        2.6133  -12.8377  -42.5183 H         1 UNK         0.3000 
    175 H175        4.5852  -13.1064  -44.2044 H         1 UNK         0.0600 
    176 H176        3.1788  -13.7126  -46.8583 H         1 UNK         0.0600 
    177 H177        4.7241  -12.8802  -46.7044 H         1 UNK         0.0600 
    178 H178        4.5781  -14.5494  -46.1886 H         1 UNK         0.0600 
    179 H179        2.6250  -11.5618  -45.7591 H         1 UNK         0.3000 
    180 H180        2.5114   -8.8958  -43.3512 H         1 UNK         0.0600 
    181 H181        3.3635   -9.2466  -46.2763 H         1 UNK         0.0600 
    182 H182        4.3456   -8.5449  -44.9961 H         1 UNK         0.0600 
    183 H183        2.8722   -7.7379  -45.5105 H         1 UNK         0.0600 
    184 H184        1.0551   -9.9405  -45.7194 H         1 UNK         0.3000 
    185 H185       -1.8892  -10.6007  -43.8999 H         1 UNK         0.0600 
    186 H186       -2.9761   -8.9547  -45.4072 H         1 UNK         0.0600 
    187 H187       -2.1226   -8.1251  -44.1159 H         1 UNK         0.0600 
    188 H188       -1.4222   -8.1836  -45.7289 H         1 UNK         0.0600 
    189 H189       -1.2650  -10.4353  -46.7122 H         1 UNK         0.3000 
    190 H190       -1.9594  -21.5112  -45.4325 H         1 UNK         0.3000 
    191 H191       -4.3862  -22.5652  -46.3628 H         1 UNK         0.0600 
    192 H192       -3.6402  -21.5521  -43.5750 H         1 UNK         0.0600 
    193 H193       -5.2826  -21.7893  -44.1601 H         1 UNK         0.0600 
    194 H194       -4.2537  -20.5814  -44.9127 H         1 UNK         0.0600 
    195 H195       -2.1136  -23.9166  -43.9718 H         1 UNK         0.3000 
    196 H196       -3.7936  -26.1684  -43.2532 H         1 UNK         0.0600 
    197 H197       -1.7206  -26.9857  -42.1446 H         1 UNK         0.0600 
    198 H198       -2.0384  -25.3077  -41.7284 H         1 UNK         0.0600 
    199 H199       -0.7851  -25.7021  -42.9012 H         1 UNK         0.0600 
    200 H200       -1.1038  -25.6385  -45.5638 H         1 UNK         0.3000 
    201 H201       -0.8495  -28.3805  -46.3034 H         1 UNK         0.0600 
    202 H202        1.0272  -26.7817  -46.4123 H         1 UNK         0.0600 
    203 H203        0.1973  -25.8415  -47.6511 H         1 UNK         0.0600 
    204 H204        0.7393  -27.4785  -47.9990 H         1 UNK         0.0600 
    205 H205       -2.4894  -25.6278  -47.9517 H         1 UNK         0.3000 
    206 H206       -3.7908  -27.4944  -49.8634 H         1 UNK         0.0600 
    207 H207       -1.6035  -27.0366  -50.9159 H         1 UNK         0.0600 
    208 H208       -2.8389  -26.1564  -51.7979 H         1 UNK         0.0600 
    209 H209       -1.8008  -25.3031  -50.6669 H         1 UNK         0.0600 
    210 H210       -3.4360  -24.1585  -48.6561 H         1 UNK         0.3000 
    211 H211       -4.6759  -22.3364  -48.7336 H         1 UNK         0.0600 
    212 H212       -7.0896  -24.2456  -48.7485 H         1 UNK         0.0600 
    213 H213       -7.1056  -22.5488  -48.2635 H         1 UNK         0.0600 
    214 H214       -6.2168  -23.7267  -47.3210 H         1 UNK         0.0600 
    215 H215       -7.4957  -22.9971  -50.3478 H         1 UNK         0.3000 
    216 H216       -6.9124  -21.3747  -52.5919 H         1 UNK         0.0600 
    217 H217       -9.2337  -22.0046  -53.2751 H         1 UNK         0.0600 
    218 H218       -9.1661  -21.5734  -51.5749 H         1 UNK         0.0600 
    219 H219       -9.2614  -23.2697  -52.0525 H         1 UNK         0.0600 
    220 H220       -6.2503  -24.7664  -52.1870 H         1 UNK         0.3000 
    221 H221       -6.3742  -25.4955  -54.9895 H         1 UNK         0.0600 
    222 H222       -4.8562  -26.8316  -52.6938 H         1 UNK         0.0600 
    223 H223       -6.5166  -27.1886  -53.1606 H         1 UNK         0.0600 
    224 H224       -5.1955  -27.5282  -54.2682 H         1 UNK         0.0600 
    225 H225       -4.0727  -23.7405  -53.0190 H         1 UNK         0.3000 
    226 H226       -1.9520  -23.8107  -55.1094 H         1 UNK         0.0600 
    227 H227       -1.1936  -24.0399  -52.7623 H         1 UNK         0.0600 
    228 H228       -0.6686  -22.5005  -53.4239 H         1 UNK         0.0600 
    229 H229       -2.0362  -22.5588  -52.3176 H         1 UNK         0.0600 
    230 H230       -3.9864  -22.9956  -56.3045 H         1 UNK         0.3000 
    231 H231       -5.3886  -20.7474  -55.7662 H         1 UNK         0.0600 
    232 H232       -6.2265  -20.9900  -58.1139 H         1 UNK         0.0600 
    233 H233       -6.0691  -22.5480  -57.3238 H         1 UNK         0.0600 
    234 H234       -4.8595  -22.0296  -58.4986 H         1 UNK         0.0600 
    235 H235       -2.1929  -20.5200  -56.9183 H         1 UNK         0.3000 
    236 H236       -2.3355  -18.0235  -58.3578 H         1 UNK         0.0600 
    237 H237       -0.3762  -19.5305  -58.5478 H         1 UNK         0.0600 
    238 H238        0.1257  -17.9701  -57.9161 H         1 UNK         0.0600 
    239 H239       -0.0278  -19.3453  -56.8286 H         1 UNK         0.0600 
    240 H240       -2.0346  -18.9412  -54.9421 H         1 UNK         0.3000 
    241 H241       -1.9530  -17.8536  -53.0272 H         1 UNK         0.0600 
    242 H242        0.5149  -15.2041  -53.9307 H         1 UNK         0.3800 
    243 H243        0.2372  -16.8088  -54.5555 H         1 UNK         0.3800 
    244 H244       -3.9187  -16.3005  -52.6420 H         1 UNK         0.0800 
    245 H245       -4.1750  -16.2479  -54.3649 H         1 UNK         0.0800 
    246 H246       -5.7147  -17.9155  -51.2875 H         1 UNK         0.0800 
    247 H247       -5.4350  -19.6268  -51.4891 H         1 UNK         0.0800 
@<TRIPOS>BOND
     1    1    2 1    
     2    1  127 1    
     3    1  128 1    
     4    1  129 1    
     5    2    3 2    
     6    2    4 am   BACKBONE|DICT|INTERRES
     7    4    5 1    
     8    4  130 1    
     9    5    6 1    
    10    5   65 1    
    11    5  131 1    
    12    6    7 1    
    13    6  132 1    
    14    6  133 1    
    15    7    8 1    
    16    8    9 1    
    17    8  134 1    
    18    8  135 1    
    19    9   10 ar   
    20    9   14 ar   
    21   10   11 ar   
    22   10  136 1    
    23   11   12 ar   
    24   11  126 1    
    25   12   13 ar   
    26   12  137 1    
    27   13   14 ar   
    28   13   15 1    
    29   14  138 1    
    30   15   16 1    
    31   15  139 1    
    32   15  140 1    
    33   16   17 1    
    34   17   18 1    
    35   17  141 1    
    36   17  142 1    
    37   18   19 1    
    38   18   67 1    
    39   18  143 1    
    40   19   20 am   BACKBONE|DICT|INTERRES
    41   19  144 1    
    42   20   21 2    
    43   20   22 1    
    44   22   23 1    
    45   22   24 1    
    46   22  145 1    
    47   23  146 1    
    48   23  147 1    
    49   23  148 1    
    50   24   25 am   BACKBONE|DICT|INTERRES
    51   24  149 1    
    52   25   26 2    
    53   25   27 1    
    54   27   28 1    
    55   27   29 1    
    56   27  150 1    
    57   28  151 1    
    58   28  152 1    
    59   28  153 1    
    60   29   30 am   BACKBONE|DICT|INTERRES
    61   29  154 1    
    62   30   31 2    
    63   30   32 1    
    64   32   33 1    
    65   32   34 1    
    66   32  155 1    
    67   33  156 1    
    68   33  157 1    
    69   33  158 1    
    70   34   35 am   BACKBONE|DICT|INTERRES
    71   34  159 1    
    72   35   36 2    
    73   35   37 1    
    74   37   38 1    
    75   37   39 1    
    76   37  160 1    
    77   38  161 1    
    78   38  162 1    
    79   38  163 1    
    80   39   40 am   BACKBONE|DICT|INTERRES
    81   39  164 1    
    82   40   41 2    
    83   40   42 1    
    84   42   43 1    
    85   42   44 1    
    86   42  165 1    
    87   43  166 1    
    88   43  167 1    
    89   43  168 1    
    90   44   45 am   BACKBONE|DICT|INTERRES
    91   44  169 1    
    92   45   46 2    
    93   45   47 1    
    94   47   48 1    
    95   47   49 1    
    96   47  170 1    
    97   48  171 1    
    98   48  172 1    
    99   48  173 1    
   100   49   50 am   BACKBONE|DICT|INTERRES
   101   49  174 1    
   102   50   51 2    
   103   50   52 1    
   104   52   53 1    
   105   52   54 1    
   106   52  175 1    
   107   53  176 1    
   108   53  177 1    
   109   53  178 1    
   110   54   55 am   BACKBONE|DICT|INTERRES
   111   54  179 1    
   112   55   56 2    
   113   55   57 1    
   114   57   58 1    
   115   57   59 1    
   116   57  180 1    
   117   58  181 1    
   118   58  182 1    
   119   58  183 1    
   120   59   60 am   BACKBONE|DICT|INTERRES
   121   59  184 1    
   122   60   61 2    
   123   60   62 1    
   124   62   63 1    
   125   62   64 1    
   126   62  185 1    
   127   63  186 1    
   128   63  187 1    
   129   63  188 1    
   130   64   65 am   BACKBONE|DICT|INTERRES
   131   64  189 1    
   132   65   66 2    
   133   67   68 2    
   134   67   69 am   BACKBONE|DICT|INTERRES
   135   69   70 1    
   136   69  190 1    
   137   70   71 1    
   138   70   72 1    
   139   70  191 1    
   140   71  192 1    
   141   71  193 1    
   142   71  194 1    
   143   72   73 2    
   144   72   74 am   BACKBONE|DICT|INTERRES
   145   74   75 1    
   146   74  195 1    
   147   75   76 1    
   148   75   77 1    
   149   75  196 1    
   150   76  197 1    
   151   76  198 1    
   152   76  199 1    
   153   77   78 2    
   154   77   79 am   BACKBONE|DICT|INTERRES
   155   79   80 1    
   156   79  200 1    
   157   80   81 1    
   158   80   82 1    
   159   80  201 1    
   160   81  202 1    
   161   81  203 1    
   162   81  204 1    
   163   82   83 2    
   164   82   84 am   BACKBONE|DICT|INTERRES
   165   84   85 1    
   166   84  205 1    
   167   85   86 1    
   168   85   87 1    
   169   85  206 1    
   170   86  207 1    
   171   86  208 1    
   172   86  209 1    
   173   87   88 2    
   174   87   89 am   BACKBONE|DICT|INTERRES
   175   89   90 1    
   176   89  210 1    
   177   90   91 1    
   178   90   92 1    
   179   90  211 1    
   180   91  212 1    
   181   91  213 1    
   182   91  214 1    
   183   92   93 2    
   184   92   94 am   BACKBONE|DICT|INTERRES
   185   94   95 1    
   186   94  215 1    
   187   95   96 1    
   188   95   97 1    
   189   95  216 1    
   190   96  217 1    
   191   96  218 1    
   192   96  219 1    
   193   97   98 2    
   194   97   99 am   BACKBONE|DICT|INTERRES
   195   99  100 1    
   196   99  220 1    
   197  100  101 1    
   198  100  102 1    
   199  100  221 1    
   200  101  222 1    
   201  101  223 1    
   202  101  224 1    
   203  102  103 2    
   204  102  104 am   BACKBONE|DICT|INTERRES
   205  104  105 1    
   206  104  225 1    
   207  105  106 1    
   208  105  107 1    
   209  105  226 1    
   210  106  227 1    
   211  106  228 1    
   212  106  229 1    
   213  107  108 2    
   214  107  109 am   BACKBONE|DICT|INTERRES
   215  109  110 1    
   216  109  230 1    
   217  110  111 1    
   218  110  112 1    
   219  110  231 1    
   220  111  232 1    
   221  111  233 1    
   222  111  234 1    
   223  112  113 2    
   224  112  114 am   BACKBONE|DICT|INTERRES
   225  114  115 1    
   226  114  235 1    
   227  115  116 1    
   228  115  117 1    
   229  115  236 1    
   230  116  237 1    
   231  116  238 1    
   232  116  239 1    
   233  117  118 2    
   234  117  119 am   BACKBONE|DICT|INTERRES
   235  119  120 1    
   236  119  240 1    
   237  120  121 1    
   238  120  124 1    
   239  120  241 1    
   240  121  122 am   BACKBONE|DICT|INTERRES
   241  121  123 2    
   242  122  242 1    
   243  122  243 1    
   244  124  125 1    
   245  124  244 1    
   246  124  245 1    
   247  125  126 1    
   248  126  246 1    
   249  126  247 1    
@<TRIPOS>SUBSTRUCTURE
     1 UNK         1 GROUP             0       ****    0 ROOT    
