@<TRIPOS>MOLECULE
3R540
247   249    1
SMALL
USER_CHARGES


@<TRIPOS>ATOM
      1 CA          2.4977  -16.0324  -47.6530 C.3       0 UNK        -0.1800 
      2 C           1.3120  -15.7679  -48.5699 C.2       0 UNK         0.5000 
      3 O           1.4408  -15.0204  -49.5384 O.2       0 UNK        -0.5000 
      4 N           0.1626  -16.3820  -48.2605 N.am      1 UNK        -0.5000 
      5 CA         -1.1065  -16.3024  -49.0043 C.3       1 UNK         0.1400 
      6 C6         -1.0329  -16.8615  -50.4515 C.3       23 UNK        -0.0398 
      7 S7         -0.4830  -18.6011  -50.5485 S.3       23 UNK        -0.2404 
      8 C8          1.1266  -18.4216  -51.3772 C.3       23 UNK        -0.0205 
      9 C9          1.7280  -19.7623  -51.7815 C.ar      23 UNK        -0.0193 
     10 C10         1.1881  -20.4747  -52.8578 C.ar      23 UNK        -0.1150 
     11 C11         1.7739  -21.6686  -53.2914 C.ar      23 UNK        -0.0193 
     12 C12         2.9137  -22.1457  -52.6402 C.ar      23 UNK        -0.1150 
     13 C13         3.4694  -21.4426  -51.5670 C.ar      23 UNK        -0.0193 
     14 C14         2.8634  -20.2589  -51.1309 C.ar      23 UNK        -0.1150 
     15 C15         4.7707  -21.9291  -50.9449 C.3       23 UNK        -0.0205 
     16 S16         4.5526  -23.4326  -49.9425 S.3       23 UNK        -0.2404 
     17 C17         4.2177  -22.7444  -48.2882 C.3       23 UNK        -0.0398 
     18 CA          2.9899  -23.4028  -47.6127 C.3       11 UNK         0.1400 
     19 N           3.1283  -23.4334  -46.1548 N.am      11 UNK        -0.5000 
     20 C           2.3341  -24.1275  -45.3277 C.2       10 UNK         0.5000 
     21 O           1.4197  -24.8574  -45.7089 O.2       10 UNK        -0.5000 
     22 CA          2.5751  -23.9305  -43.8192 C.3       10 UNK         0.1400 
     23 CB          3.6095  -24.9407  -43.3018 C.3       10 UNK        -0.1800 
     24 N           3.0076  -22.5715  -43.4760 N.am      10 UNK        -0.5000 
     25 C           2.2657  -21.4721  -43.6629 C.2       9 UNK         0.5000 
     26 O           1.1444  -21.4847  -44.1745 O.2       9 UNK        -0.5000 
     27 CA          2.8976  -20.1332  -43.2552 C.3       9 UNK         0.1400 
     28 CB          3.2657  -19.3022  -44.4944 C.3       9 UNK        -0.1800 
     29 N           1.9675  -19.3867  -42.4102 N.am      9 UNK        -0.5000 
     30 C           1.8704  -19.5770  -41.0863 C.2       8 UNK         0.5000 
     31 O           2.6041  -20.3405  -40.4562 O.2       8 UNK        -0.5000 
     32 CA          0.7874  -18.7955  -40.3210 C.3       8 UNK         0.1400 
     33 CB          1.3469  -17.4685  -39.7863 C.3       8 UNK        -0.1800 
     34 N          -0.4283  -18.5407  -41.0945 N.am      8 UNK        -0.5000 
     35 C          -1.3297  -19.4857  -41.4021 C.2       7 UNK         0.5000 
     36 O          -1.1790  -20.6811  -41.1485 O.2       7 UNK        -0.5000 
     37 CA         -2.6338  -19.0213  -42.0696 C.3       7 UNK         0.1400 
     38 CB         -3.6285  -18.5249  -41.0086 C.3       7 UNK        -0.1800 
     39 N          -2.3943  -17.9476  -43.0296 N.am      7 UNK        -0.5000 
     40 C          -2.4058  -18.1057  -44.3592 C.2       6 UNK         0.5000 
     41 O          -2.6516  -19.1694  -44.9248 O.2       6 UNK        -0.5000 
     42 CA         -2.0822  -16.8623  -45.2098 C.3       6 UNK         0.1400 
     43 CB         -3.3724  -16.1021  -45.5498 C.3       6 UNK        -0.1800 
     44 N          -1.1315  -15.9512  -44.5723 N.am      6 UNK        -0.5000 
     45 C           0.1209  -16.2729  -44.2143 C.2       5 UNK         0.5000 
     46 O           0.6497  -17.3479  -44.4855 O.2       5 UNK        -0.5000 
     47 CA          0.9002  -15.2583  -43.3590 C.3       5 UNK         0.1400 
     48 CB          1.9584  -14.5241  -44.1953 C.3       5 UNK        -0.1800 
     49 N           0.0446  -14.2902  -42.6677 N.am      5 UNK        -0.5000 
     50 C          -0.8556  -14.5963  -41.7199 C.2       4 UNK         0.5000 
     51 O          -1.0734  -15.7473  -41.3371 O.2       4 UNK        -0.5000 
     52 CA         -1.6810  -13.4327  -41.1382 C.3       4 UNK         0.1400 
     53 CB         -1.0095  -12.8819  -39.8718 C.3       4 UNK        -0.1800 
     54 N          -1.8765  -12.3416  -42.0968 N.am      4 UNK        -0.5000 
     55 C          -2.6356  -12.4297  -43.1978 C.2       3 UNK         0.5000 
     56 O          -3.3165  -13.4213  -43.4672 O.2       3 UNK        -0.5000 
     57 CA         -2.6234  -11.2301  -44.1750 C.3       3 UNK         0.1400 
     58 CB         -1.4700  -10.2317  -43.9253 C.3       3 UNK        -0.1800 
     59 N          -2.6216  -11.6554  -45.5813 N.am      3 UNK        -0.5000 
     60 C          -1.7393  -12.4791  -46.1639 C.2       2 UNK         0.5000 
     61 O          -0.7807  -12.9917  -45.5811 O.2       2 UNK        -0.5000 
     62 CA         -1.9584  -12.7803  -47.6512 C.3       2 UNK         0.1400 
     63 CB         -1.2727  -11.7231  -48.5341 C.3       2 UNK        -0.1800 
     64 N          -1.4091  -14.1016  -47.9327 N.am      2 UNK        -0.5000 
     65 C          -1.7549  -14.8953  -48.9528 C.2       1 UNK         0.5000 
     66 O          -2.5675  -14.5587  -49.8154 O.2       1 UNK        -0.5000 
     67 C           1.6724  -22.7264  -48.0419 C.2       11 UNK         0.5000 
     68 O           0.9898  -23.2305  -48.9310 O.2       11 UNK        -0.5000 
     69 N           1.3107  -21.6295  -47.3611 N.am      12 UNK        -0.5000 
     70 CA          0.0619  -20.9087  -47.5928 C.3       12 UNK         0.1400 
     71 CB          0.1399  -19.5181  -46.9630 C.3       12 UNK        -0.1800 
     72 C          -1.1626  -21.6760  -47.0706 C.2       12 UNK         0.5000 
     73 O          -2.2077  -21.6583  -47.7187 O.2       12 UNK        -0.5000 
     74 N          -1.0071  -22.3829  -45.9430 N.am      13 UNK        -0.5000 
     75 CA         -2.0185  -23.2930  -45.4065 C.3       13 UNK         0.1400 
     76 CB         -1.5822  -23.8026  -44.0254 C.3       13 UNK        -0.1800 
     77 C          -2.3131  -24.4588  -46.3717 C.2       13 UNK         0.5000 
     78 O          -3.4811  -24.7726  -46.6018 O.2       13 UNK        -0.5000 
     79 N          -1.2567  -25.0293  -46.9710 N.am      14 UNK        -0.5000 
     80 CA         -1.3406  -26.0431  -48.0256 C.3       14 UNK         0.1400 
     81 CB          0.0517  -26.6438  -48.2714 C.3       14 UNK        -0.1800 
     82 C          -1.9474  -25.5056  -49.3384 C.2       14 UNK         0.5000 
     83 O          -2.6761  -26.2371  -50.0092 O.2       14 UNK        -0.5000 
     84 N          -1.6699  -24.2346  -49.6641 N.am      15 UNK        -0.5000 
     85 CA         -2.2384  -23.5089  -50.8053 C.3       15 UNK         0.1400 
     86 CB         -1.4507  -22.2078  -51.0263 C.3       15 UNK        -0.1800 
     87 C          -3.7374  -23.1828  -50.6533 C.2       15 UNK         0.5000 
     88 O          -4.3752  -22.8621  -51.6538 O.2       15 UNK        -0.5000 
     89 N          -4.2583  -23.2769  -49.4215 N.am      16 UNK        -0.5000 
     90 CA         -5.6105  -22.9365  -48.9755 C.3       16 UNK         0.1400 
     91 CB         -6.7085  -23.6380  -49.8041 C.3       16 UNK        -0.1800 
     92 C          -5.8170  -21.4175  -48.8117 C.2       16 UNK         0.5000 
     93 O          -6.8728  -20.8921  -49.1704 O.2       16 UNK        -0.5000 
     94 N          -4.8159  -20.7573  -48.2109 N.am      17 UNK        -0.5000 
     95 CA         -4.8220  -19.4047  -47.6500 C.3       17 UNK         0.1400 
     96 CB         -5.6966  -19.3687  -46.3767 C.3       17 UNK        -0.1800 
     97 C          -5.1889  -18.3064  -48.6641 C.2       17 UNK         0.5000 
     98 O          -4.3007  -17.7771  -49.3308 O.2       17 UNK        -0.5000 
     99 N          -6.4845  -17.9732  -48.7452 N.am      18 UNK        -0.5000 
    100 CA        -7.0535  -16.9654  -49.6412 C.3       18 UNK         0.1400 
    101 CB        -8.5115  -16.7059  -49.2329 C.3       18 UNK        -0.1800 
    102 C         -6.9680  -17.3423  -51.1328 C.2       18 UNK         0.5000 
    103 O         -7.0345  -16.4524  -51.9828 O.2       18 UNK        -0.5000 
    104 N         -6.8026  -18.6382  -51.4332 N.am      19 UNK        -0.5000 
    105 CA        -6.5042  -19.1618  -52.7652 C.3       19 UNK         0.1400 
    106 CB        -6.8498  -20.6583  -52.7991 C.3       19 UNK        -0.1800 
    107 C         -5.0353  -18.8755  -53.1419 C.2       19 UNK         0.5000 
    108 O         -4.1914  -19.7733  -53.1162 O.2       19 UNK        -0.5000 
    109 N         -4.7561  -17.6011  -53.4442 N.am      20 UNK        -0.5000 
    110 CA        -3.4409  -17.0718  -53.7962 C.3       20 UNK         0.1400 
    111 CB        -3.5483  -15.5555  -54.0105 C.3       20 UNK        -0.1800 
    112 C         -2.8292  -17.7593  -55.0279 C.2       20 UNK         0.5000 
    113 O         -3.5528  -18.1090  -55.9650 O.2       20 UNK        -0.5000 
    114 N         -1.5049  -17.9619  -54.9777 N.am      21 UNK        -0.5000 
    115 CA        -0.6854  -18.6651  -55.9731 C.3       21 UNK         0.1400 
    116 CB        -0.5934  -17.8421  -57.2749 C.3       21 UNK        -0.1800 
    117 C         -1.1324  -20.1244  -56.2211 C.2       21 UNK         0.5000 
    118 O         -0.8855  -20.6620  -57.3017 O.2       21 UNK        -0.5000 
    119 N         -1.7773  -20.7353  -55.2145 N.am      22 UNK        -0.5000 
    120 CA        -2.3969  -22.0708  -55.2577 C.3       22 UNK         0.1400 
    121 C         -3.6201  -22.1669  -56.2246 C.2       22 UNK         0.5000 
    122 N         -4.2348  -21.0608  -56.6328 N.am      22 UNK        -0.7600 
    123 O         -4.0427  -23.2593  -56.5941 O.2       22 UNK        -0.5000 
    124 C124       -1.3603  -23.2196  -55.4518 C.3       23 UNK        -0.0398 
    125 S125       -0.2482  -23.4102  -54.0158 S.3       23 UNK        -0.2404 
    126 C126        1.2021  -22.4187  -54.4869 C.3       23 UNK        -0.0205 
    127 H127        2.8764  -15.0933  -47.2498 H         1 UNK         0.0600 
    128 H128        3.3010  -16.5145  -48.2100 H         1 UNK         0.0600 
    129 H129        2.2303  -16.6783  -46.8160 H         1 UNK         0.0600 
    130 H130        0.1494  -16.9847  -47.4512 H         1 UNK         0.3000 
    131 H131       -1.8016  -16.9446  -48.4632 H         1 UNK         0.0600 
    132 H132       -2.0277  -16.8347  -50.8954 H         1 UNK         0.0800 
    133 H133       -0.4041  -16.2300  -51.0803 H         1 UNK         0.0800 
    134 H134        1.8064  -17.8790  -50.7191 H         1 UNK         0.0800 
    135 H135        1.0087  -17.8070  -52.2705 H         1 UNK         0.0800 
    136 H136        0.3127  -20.0945  -53.3621 H         1 UNK         0.1150 
    137 H137        3.3846  -23.0572  -52.9809 H         1 UNK         0.1150 
    138 H138        3.2980  -19.7038  -50.3117 H         1 UNK         0.1150 
    139 H139        5.4750  -22.1537  -51.7473 H         1 UNK         0.0800 
    140 H140        5.2417  -21.1439  -50.3516 H         1 UNK         0.0800 
    141 H141        4.1186  -21.6580  -48.3302 H         1 UNK         0.0800 
    142 H142        5.1159  -22.9335  -47.6986 H         1 UNK         0.0800 
    143 H143        2.9368  -24.4456  -47.9345 H         1 UNK         0.0600 
    144 H144        3.8565  -22.8633  -45.7511 H         1 UNK         0.3000 
    145 H145        1.6297  -24.1185  -43.3066 H         1 UNK         0.0600 
    146 H146        3.7255  -24.8678  -42.2203 H         1 UNK         0.0600 
    147 H147        3.3019  -25.9631  -43.5257 H         1 UNK         0.0600 
    148 H148        4.5886  -24.7854  -43.7567 H         1 UNK         0.0600 
    149 H149        3.9175  -22.4838  -43.0463 H         1 UNK         0.3000 
    150 H150        3.8201  -20.3215  -42.7015 H         1 UNK         0.0600 
    151 H151        4.0354  -19.8020  -45.0834 H         1 UNK         0.0600 
    152 H152        3.6544  -18.3234  -44.2130 H         1 UNK         0.0600 
    153 H153        2.4096  -19.1436  -45.1480 H         1 UNK         0.0600 
    154 H154        1.3022  -18.7904  -42.8870 H         1 UNK         0.3000 
    155 H155        0.5058  -19.4010  -39.4566 H         1 UNK         0.0600 
    156 H156        1.6785  -16.8144  -40.5906 H         1 UNK         0.0600 
    157 H157        2.2040  -17.6426  -39.1346 H         1 UNK         0.0600 
    158 H158        0.5996  -16.9303  -39.2027 H         1 UNK         0.0600 
    159 H159       -0.6467  -17.5664  -41.2827 H         1 UNK         0.3000 
    160 H160       -3.0780  -19.8875  -42.5651 H         1 UNK         0.0600 
    161 H161       -3.2479  -17.6532  -40.4742 H         1 UNK         0.0600 
    162 H162       -3.8324  -19.3013  -40.2700 H         1 UNK         0.0600 
    163 H163       -4.5808  -18.2495  -41.4621 H         1 UNK         0.0600 
    164 H164       -2.1489  -17.0431  -42.6462 H         1 UNK         0.3000 
    165 H165       -1.6333  -17.2036  -46.1393 H         1 UNK         0.0600 
    166 H166       -3.1705  -15.1927  -46.1119 H         1 UNK         0.0600 
    167 H167       -4.0355  -16.7148  -46.1593 H         1 UNK         0.0600 
    168 H168       -3.9204  -15.8191  -44.6503 H         1 UNK         0.0600 
    169 H169       -1.4761  -15.0335  -44.3212 H         1 UNK         0.3000 
    170 H170        1.4288  -15.8307  -42.5972 H         1 UNK         0.0600 
    171 H171        2.6644  -15.2320  -44.6311 H         1 UNK         0.0600 
    172 H172        1.5159  -13.9601  -45.0152 H         1 UNK         0.0600 
    173 H173        2.5348  -13.8307  -43.5829 H         1 UNK         0.0600 
    174 H174        0.1192  -13.3299  -42.9708 H         1 UNK         0.3000 
    175 H175       -2.6606  -13.8286  -40.8617 H         1 UNK         0.0600 
    176 H176       -0.0287  -12.4560  -40.0875 H         1 UNK         0.0600 
    177 H177       -1.6187  -12.1060  -39.4079 H         1 UNK         0.0600 
    178 H178       -0.8693  -13.6701  -39.1306 H         1 UNK         0.0600 
    179 H179       -1.3502  -11.4949  -41.9361 H         1 UNK         0.3000 
    180 H180       -3.5632  -10.7003  -44.0142 H         1 UNK         0.0600 
    181 H181       -0.4924  -10.7093  -44.0029 H         1 UNK         0.0600 
    182 H182       -1.5439   -9.7737  -42.9384 H         1 UNK         0.0600 
    183 H183       -1.4961   -9.4190  -44.6514 H         1 UNK         0.0600 
    184 H184       -3.3921  -11.3093  -46.1354 H         1 UNK         0.3000 
    185 H185       -3.0321  -12.7874  -47.8505 H         1 UNK         0.0600 
    186 H186       -0.1941  -11.7065  -48.3721 H         1 UNK         0.0600 
    187 H187       -1.4483  -11.9154  -49.5926 H         1 UNK         0.0600 
    188 H188       -1.6542  -10.7244  -48.3185 H         1 UNK         0.0600 
    189 H189       -0.7432  -14.4264  -47.2432 H         1 UNK         0.3000 
    190 H190        1.8786  -21.3162  -46.5887 H         1 UNK         0.3000 
    191 H191       -0.0522  -20.7831  -48.6697 H         1 UNK         0.0600 
    192 H192       -0.7368  -18.9402  -47.2495 H         1 UNK         0.0600 
    193 H193        1.0236  -18.9776  -47.3009 H         1 UNK         0.0600 
    194 H194        0.1605  -19.5695  -45.8742 H         1 UNK         0.0600 
    195 H195       -0.1468  -22.2777  -45.4138 H         1 UNK         0.3000 
    196 H196       -2.9405  -22.7213  -45.2794 H         1 UNK         0.0600 
    197 H197       -2.3623  -24.4169  -43.5746 H         1 UNK         0.0600 
    198 H198       -1.3837  -22.9743  -43.3440 H         1 UNK         0.0600 
    199 H199       -0.6807  -24.4112  -44.0845 H         1 UNK         0.0600 
    200 H200       -0.3236  -24.7465  -46.6874 H         1 UNK         0.3000 
    201 H201       -1.9925  -26.8419  -47.6660 H         1 UNK         0.0600 
    202 H202        0.4544  -27.0900  -47.3619 H         1 UNK         0.0600 
    203 H203        0.7613  -25.8917  -48.6161 H         1 UNK         0.0600 
    204 H204        0.0106  -27.4277  -49.0286 H         1 UNK         0.0600 
    205 H205       -0.9836  -23.7325  -49.1114 H         1 UNK         0.3000 
    206 H206       -2.1237  -24.1356  -51.6915 H         1 UNK         0.0600 
    207 H207       -0.3793  -22.3924  -51.1030 H         1 UNK         0.0600 
    208 H208       -1.7618  -21.7168  -51.9491 H         1 UNK         0.0600 
    209 H209       -1.6146  -21.4937  -50.2223 H         1 UNK         0.0600 
    210 H210       -3.6208  -23.5430  -48.6821 H         1 UNK         0.3000 
    211 H211       -5.6820  -23.3432  -47.9658 H         1 UNK         0.0600 
    212 H212       -6.7896  -23.2314  -50.8115 H         1 UNK         0.0600 
    213 H213       -7.6838  -23.5182  -49.3314 H         1 UNK         0.0600 
    214 H214       -6.5174  -24.7079  -49.8867 H         1 UNK         0.0600 
    215 H215       -3.9438  -21.2592  -48.0499 H         1 UNK         0.3000 
    216 H216       -3.7939  -19.2026  -47.3468 H         1 UNK         0.0600 
    217 H217       -5.7342  -18.3673  -45.9475 H         1 UNK         0.0600 
    218 H218       -5.2877  -20.0285  -45.6111 H         1 UNK         0.0600 
    219 H219       -6.7225  -19.6848  -46.5670 H         1 UNK         0.0600 
    220 H220       -7.1427  -18.5054  -48.1942 H         1 UNK         0.3000 
    221 H221       -6.4885  -16.0406  -49.5071 H         1 UNK         0.0600 
    222 H222       -9.1211  -17.6055  -49.3277 H         1 UNK         0.0600 
    223 H223       -8.5775  -16.3615  -48.2007 H         1 UNK         0.0600 
    224 H224       -8.9624  -15.9360  -49.8605 H         1 UNK         0.0600 
    225 H225       -6.7537  -19.3022  -50.6686 H         1 UNK         0.3000 
    226 H226       -7.1397  -18.6602  -53.4981 H         1 UNK         0.0600 
    227 H227       -6.3121  -21.2042  -52.0259 H         1 UNK         0.0600 
    228 H228       -7.9158  -20.8211  -52.6403 H         1 UNK         0.0600 
    229 H229       -6.5883  -21.1021  -53.7606 H         1 UNK         0.0600 
    230 H230       -5.5110  -16.9293  -53.3761 H         1 UNK         0.3000 
    231 H231       -2.7866  -17.2580  -52.9455 H         1 UNK         0.0600 
    232 H232       -3.9112  -15.0555  -53.1120 H         1 UNK         0.0600 
    233 H233       -2.5760  -15.1235  -54.2511 H         1 UNK         0.0600 
    234 H234       -4.2276  -15.3135  -54.8288 H         1 UNK         0.0600 
    235 H235       -1.0039  -17.6350  -54.1640 H         1 UNK         0.3000 
    236 H236        0.3194  -18.7275  -55.5530 H         1 UNK         0.0600 
    237 H237       -0.2715  -16.8204  -57.0737 H         1 UNK         0.0600 
    238 H238        0.1303  -18.2779  -57.9646 H         1 UNK         0.0600 
    239 H239       -1.5516  -17.7961  -57.7933 H         1 UNK         0.0600 
    240 H240       -1.9813  -20.2020  -54.3811 H         1 UNK         0.3000 
    241 H241       -2.8428  -22.2080  -54.2715 H         1 UNK         0.0600 
    242 H242       -5.0265  -21.1364  -57.2509 H         1 UNK         0.3800 
    243 H243       -3.9153  -20.1453  -56.3375 H         1 UNK         0.3800 
    244 H244       -0.7797  -23.0904  -56.3653 H         1 UNK         0.0800 
    245 H245       -1.8710  -24.1772  -55.5622 H         1 UNK         0.0800 
    246 H246        1.9532  -23.0805  -54.9205 H         1 UNK         0.0800 
    247 H247        0.9488  -21.7060  -55.2688 H         1 UNK         0.0800 
@<TRIPOS>BOND
     1    1    2 1    
     2    1  127 1    
     3    1  128 1    
     4    1  129 1    
     5    2    3 2    
     6    2    4 am   BACKBONE|DICT|INTERRES
     7    4    5 1    
     8    4  130 1    
     9    5    6 1    
    10    5   65 1    
    11    5  131 1    
    12    6    7 1    
    13    6  132 1    
    14    6  133 1    
    15    7    8 1    
    16    8    9 1    
    17    8  134 1    
    18    8  135 1    
    19    9   10 ar   
    20    9   14 ar   
    21   10   11 ar   
    22   10  136 1    
    23   11   12 ar   
    24   11  126 1    
    25   12   13 ar   
    26   12  137 1    
    27   13   14 ar   
    28   13   15 1    
    29   14  138 1    
    30   15   16 1    
    31   15  139 1    
    32   15  140 1    
    33   16   17 1    
    34   17   18 1    
    35   17  141 1    
    36   17  142 1    
    37   18   19 1    
    38   18   67 1    
    39   18  143 1    
    40   19   20 am   BACKBONE|DICT|INTERRES
    41   19  144 1    
    42   20   21 2    
    43   20   22 1    
    44   22   23 1    
    45   22   24 1    
    46   22  145 1    
    47   23  146 1    
    48   23  147 1    
    49   23  148 1    
    50   24   25 am   BACKBONE|DICT|INTERRES
    51   24  149 1    
    52   25   26 2    
    53   25   27 1    
    54   27   28 1    
    55   27   29 1    
    56   27  150 1    
    57   28  151 1    
    58   28  152 1    
    59   28  153 1    
    60   29   30 am   BACKBONE|DICT|INTERRES
    61   29  154 1    
    62   30   31 2    
    63   30   32 1    
    64   32   33 1    
    65   32   34 1    
    66   32  155 1    
    67   33  156 1    
    68   33  157 1    
    69   33  158 1    
    70   34   35 am   BACKBONE|DICT|INTERRES
    71   34  159 1    
    72   35   36 2    
    73   35   37 1    
    74   37   38 1    
    75   37   39 1    
    76   37  160 1    
    77   38  161 1    
    78   38  162 1    
    79   38  163 1    
    80   39   40 am   BACKBONE|DICT|INTERRES
    81   39  164 1    
    82   40   41 2    
    83   40   42 1    
    84   42   43 1    
    85   42   44 1    
    86   42  165 1    
    87   43  166 1    
    88   43  167 1    
    89   43  168 1    
    90   44   45 am   BACKBONE|DICT|INTERRES
    91   44  169 1    
    92   45   46 2    
    93   45   47 1    
    94   47   48 1    
    95   47   49 1    
    96   47  170 1    
    97   48  171 1    
    98   48  172 1    
    99   48  173 1    
   100   49   50 am   BACKBONE|DICT|INTERRES
   101   49  174 1    
   102   50   51 2    
   103   50   52 1    
   104   52   53 1    
   105   52   54 1    
   106   52  175 1    
   107   53  176 1    
   108   53  177 1    
   109   53  178 1    
   110   54   55 am   BACKBONE|DICT|INTERRES
   111   54  179 1    
   112   55   56 2    
   113   55   57 1    
   114   57   58 1    
   115   57   59 1    
   116   57  180 1    
   117   58  181 1    
   118   58  182 1    
   119   58  183 1    
   120   59   60 am   BACKBONE|DICT|INTERRES
   121   59  184 1    
   122   60   61 2    
   123   60   62 1    
   124   62   63 1    
   125   62   64 1    
   126   62  185 1    
   127   63  186 1    
   128   63  187 1    
   129   63  188 1    
   130   64   65 am   BACKBONE|DICT|INTERRES
   131   64  189 1    
   132   65   66 2    
   133   67   68 2    
   134   67   69 am   BACKBONE|DICT|INTERRES
   135   69   70 1    
   136   69  190 1    
   137   70   71 1    
   138   70   72 1    
   139   70  191 1    
   140   71  192 1    
   141   71  193 1    
   142   71  194 1    
   143   72   73 2    
   144   72   74 am   BACKBONE|DICT|INTERRES
   145   74   75 1    
   146   74  195 1    
   147   75   76 1    
   148   75   77 1    
   149   75  196 1    
   150   76  197 1    
   151   76  198 1    
   152   76  199 1    
   153   77   78 2    
   154   77   79 am   BACKBONE|DICT|INTERRES
   155   79   80 1    
   156   79  200 1    
   157   80   81 1    
   158   80   82 1    
   159   80  201 1    
   160   81  202 1    
   161   81  203 1    
   162   81  204 1    
   163   82   83 2    
   164   82   84 am   BACKBONE|DICT|INTERRES
   165   84   85 1    
   166   84  205 1    
   167   85   86 1    
   168   85   87 1    
   169   85  206 1    
   170   86  207 1    
   171   86  208 1    
   172   86  209 1    
   173   87   88 2    
   174   87   89 am   BACKBONE|DICT|INTERRES
   175   89   90 1    
   176   89  210 1    
   177   90   91 1    
   178   90   92 1    
   179   90  211 1    
   180   91  212 1    
   181   91  213 1    
   182   91  214 1    
   183   92   93 2    
   184   92   94 am   BACKBONE|DICT|INTERRES
   185   94   95 1    
   186   94  215 1    
   187   95   96 1    
   188   95   97 1    
   189   95  216 1    
   190   96  217 1    
   191   96  218 1    
   192   96  219 1    
   193   97   98 2    
   194   97   99 am   BACKBONE|DICT|INTERRES
   195   99  100 1    
   196   99  220 1    
   197  100  101 1    
   198  100  102 1    
   199  100  221 1    
   200  101  222 1    
   201  101  223 1    
   202  101  224 1    
   203  102  103 2    
   204  102  104 am   BACKBONE|DICT|INTERRES
   205  104  105 1    
   206  104  225 1    
   207  105  106 1    
   208  105  107 1    
   209  105  226 1    
   210  106  227 1    
   211  106  228 1    
   212  106  229 1    
   213  107  108 2    
   214  107  109 am   BACKBONE|DICT|INTERRES
   215  109  110 1    
   216  109  230 1    
   217  110  111 1    
   218  110  112 1    
   219  110  231 1    
   220  111  232 1    
   221  111  233 1    
   222  111  234 1    
   223  112  113 2    
   224  112  114 am   BACKBONE|DICT|INTERRES
   225  114  115 1    
   226  114  235 1    
   227  115  116 1    
   228  115  117 1    
   229  115  236 1    
   230  116  237 1    
   231  116  238 1    
   232  116  239 1    
   233  117  118 2    
   234  117  119 am   BACKBONE|DICT|INTERRES
   235  119  120 1    
   236  119  240 1    
   237  120  121 1    
   238  120  124 1    
   239  120  241 1    
   240  121  122 am   BACKBONE|DICT|INTERRES
   241  121  123 2    
   242  122  242 1    
   243  122  243 1    
   244  124  125 1    
   245  124  244 1    
   246  124  245 1    
   247  125  126 1    
   248  126  246 1    
   249  126  247 1    
@<TRIPOS>SUBSTRUCTURE
     1 UNK         1 GROUP             0       ****    0 ROOT    
