@<TRIPOS>MOLECULE
3R540
247   249    1
SMALL
USER_CHARGES


@<TRIPOS>ATOM
      1 CA          6.1244  -11.3564  -49.5557 C.3       0 UNK        -0.1800 
      2 C           5.5854  -12.2570  -48.4541 C.2       0 UNK         0.5000 
      3 O           6.0421  -12.1706  -47.3148 O.2       0 UNK        -0.5000 
      4 N           4.6041  -13.1094  -48.7824 N.am      1 UNK        -0.5000 
      5 CA          3.9676  -14.0722  -47.8700 C.3       1 UNK         0.1400 
      6 C6          2.9869  -14.9972  -48.6322 C.3       23 UNK        -0.0398 
      7 S7          2.6753  -16.5719  -47.7643 S.3       23 UNK        -0.2404 
      8 C8          2.4234  -17.7154  -49.1668 C.3       23 UNK        -0.0205 
      9 C9          1.2018  -17.4316  -50.0439 C.ar      23 UNK        -0.0193 
     10 C10         1.1566  -17.9846  -51.3281 C.ar      23 UNK        -0.1150 
     11 C11         0.0369  -17.8104  -52.1483 C.ar      23 UNK        -0.0193 
     12 C12        -1.0450  -17.0625  -51.6783 C.ar      23 UNK        -0.1150 
     13 C13        -1.0248  -16.5174  -50.3934 C.ar      23 UNK        -0.0193 
     14 C14         0.1044  -16.6893  -49.5888 C.ar      23 UNK        -0.1150 
     15 C15        -2.2485  -15.7948  -49.8554 C.3       23 UNK        -0.0205 
     16 S16        -3.4743  -16.9783  -49.2076 S.3       23 UNK        -0.2404 
     17 C17        -2.6504  -17.5797  -47.6927 C.3       23 UNK        -0.0398 
     18 CA         -1.8577  -18.8989  -47.8809 C.3       11 UNK         0.1400 
     19 N          -0.9255  -19.1316  -46.7762 N.am      11 UNK        -0.5000 
     20 C           0.0046  -20.0961  -46.7347 C.2       10 UNK         0.5000 
     21 O           0.2269  -20.8763  -47.6589 O.2       10 UNK        -0.5000 
     22 CA          0.7719  -20.2627  -45.4097 C.3       10 UNK         0.1400 
     23 CB          1.9157  -19.2452  -45.2971 C.3       10 UNK        -0.1800 
     24 N          -0.1041  -20.1523  -44.2431 N.am      10 UNK        -0.5000 
     25 C          -1.1231  -20.9825  -43.9773 C.2       9 UNK         0.5000 
     26 O          -1.3942  -21.9744  -44.6526 O.2       9 UNK        -0.5000 
     27 CA         -2.0257  -20.6094  -42.7911 C.3       9 UNK         0.1400 
     28 CB         -1.4156  -21.0869  -41.4654 C.3       9 UNK        -0.1800 
     29 N          -2.2758  -19.1692  -42.7359 N.am      9 UNK        -0.5000 
     30 C          -3.0345  -18.5034  -43.6180 C.2       8 UNK         0.5000 
     31 O          -3.6302  -19.0421  -44.5518 O.2       8 UNK        -0.5000 
     32 CA         -3.1025  -16.9737  -43.4520 C.3       8 UNK         0.1400 
     33 CB         -4.1308  -16.5890  -42.3781 C.3       8 UNK        -0.1800 
     34 N          -1.8044  -16.3830  -43.1180 N.am      8 UNK        -0.5000 
     35 C          -0.7501  -16.3671  -43.9458 C.2       7 UNK         0.5000 
     36 O          -0.7754  -16.8282  -45.0848 O.2       7 UNK        -0.5000 
     37 CA          0.5634  -15.7762  -43.4010 C.3       7 UNK         0.1400 
     38 CB          0.5913  -14.2574  -43.6227 C.3       7 UNK        -0.1800 
     39 N           0.8150  -16.0678  -41.9854 N.am      7 UNK        -0.5000 
     40 C           0.8651  -17.2922  -41.4392 C.2       6 UNK         0.5000 
     41 O           0.6735  -18.3289  -42.0768 O.2       6 UNK        -0.5000 
     42 CA          1.1960  -17.3533  -39.9382 C.3       6 UNK         0.1400 
     43 CB          1.4720  -18.7819  -39.4355 C.3       6 UNK        -0.1800 
     44 N           2.3602  -16.5154  -39.6670 N.am      6 UNK        -0.5000 
     45 C           2.4498  -15.5826  -38.7117 C.2       5 UNK         0.5000 
     46 O           1.5517  -15.3371  -37.9056 O.2       5 UNK        -0.5000 
     47 CA          3.7655  -14.7794  -38.6486 C.3       5 UNK         0.1400 
     48 CB          4.6711  -15.3218  -37.5321 C.3       5 UNK        -0.1800 
     49 N           4.5160  -14.7775  -39.9094 N.am      5 UNK        -0.5000 
     50 C           4.1252  -14.1502  -41.0262 C.2       4 UNK         0.5000 
     51 O           3.0727  -13.5148  -41.1196 O.2       4 UNK        -0.5000 
     52 CA          5.0448  -14.3109  -42.2507 C.3       4 UNK         0.1400 
     53 CB          4.6432  -15.5546  -43.0588 C.3       4 UNK        -0.1800 
     54 N           5.0090  -13.1355  -43.1213 N.am      4 UNK        -0.5000 
     55 C           5.5406  -11.9453  -42.8014 C.2       3 UNK         0.5000 
     56 O           6.1569  -11.7417  -41.7538 O.2       3 UNK        -0.5000 
     57 CA          5.3913  -10.7870  -43.8097 C.3       3 UNK         0.1400 
     58 CB          6.7398  -10.4802  -44.4799 C.3       3 UNK        -0.1800 
     59 N           4.3920  -11.0442  -44.8471 N.am      3 UNK        -0.5000 
     60 C           3.0677  -10.9328  -44.6659 C.2       2 UNK         0.5000 
     61 O           2.5589  -10.5367  -43.6170 O.2       2 UNK        -0.5000 
     62 CA          2.1471  -11.3254  -45.8418 C.3       2 UNK         0.1400 
     63 CB          1.5856  -10.0691  -46.5254 C.3       2 UNK        -0.1800 
     64 N           2.7796  -12.1679  -46.8601 N.am      2 UNK        -0.5000 
     65 C           3.2812  -13.3956  -46.6601 C.2       1 UNK         0.5000 
     66 O           3.2688  -13.9610  -45.5678 O.2       1 UNK        -0.5000 
     67 C          -2.7762  -20.1107  -48.1205 C.2       11 UNK         0.5000 
     68 O          -2.8740  -20.5731  -49.2560 O.2       11 UNK        -0.5000 
     69 N          -3.3851  -20.6419  -47.0495 N.am      12 UNK        -0.5000 
     70 CA         -4.2232  -21.8414  -47.0982 C.3       12 UNK         0.1400 
     71 CB         -4.8675  -22.0864  -45.7266 C.3       12 UNK        -0.1800 
     72 C          -3.4581  -23.0885  -47.5779 C.2       12 UNK         0.5000 
     73 O          -3.9826  -23.8325  -48.4069 O.2       12 UNK        -0.5000 
     74 N          -2.2273  -23.2741  -47.0811 N.am      13 UNK        -0.5000 
     75 CA         -1.3196  -24.3499  -47.4783 C.3       13 UNK         0.1400 
     76 CB         -0.0949  -24.3666  -46.5514 C.3       13 UNK        -0.1800 
     77 C          -0.8931  -24.2535  -48.9536 C.2       13 UNK         0.5000 
     78 O          -0.9773  -25.2516  -49.6702 O.2       13 UNK        -0.5000 
     79 N          -0.4883  -23.0531  -49.3949 N.am      14 UNK        -0.5000 
     80 CA         -0.1214  -22.7540  -50.7829 C.3       14 UNK         0.1400 
     81 CB          0.4472  -21.3312  -50.8693 C.3       14 UNK        -0.1800 
     82 C          -1.2957  -22.9348  -51.7630 C.2       14 UNK         0.5000 
     83 O          -1.0947  -23.4236  -52.8746 O.2       14 UNK        -0.5000 
     84 N          -2.5081  -22.6036  -51.3022 N.am      15 UNK        -0.5000 
     85 CA         -3.7791  -22.8271  -51.9873 C.3       15 UNK         0.1400 
     86 CB         -4.8170  -21.8415  -51.4240 C.3       15 UNK        -0.1800 
     87 C          -4.2863  -24.2847  -51.9068 C.2       15 UNK         0.5000 
     88 O          -5.4344  -24.5257  -52.2776 O.2       15 UNK        -0.5000 
     89 N          -3.4556  -25.2262  -51.4328 N.am      16 UNK        -0.5000 
     90 CA         -3.7049  -26.6685  -51.3419 C.3       16 UNK         0.1400 
     91 CB         -3.8503  -27.2874  -52.7484 C.3       16 UNK        -0.1800 
     92 C          -4.8824  -27.0017  -50.4061 C.2       16 UNK         0.5000 
     93 O          -5.8493  -27.6414  -50.8217 O.2       16 UNK        -0.5000 
     94 N          -4.7750  -26.5243  -49.1586 N.am      17 UNK        -0.5000 
     95 CA         -5.7789  -26.5909  -48.0906 C.3       17 UNK         0.1400 
     96 CB         -6.1000  -28.0489  -47.6985 C.3       17 UNK        -0.1800 
     97 C          -7.0260  -25.7509  -48.4310 C.2       17 UNK         0.5000 
     98 O          -8.1567  -26.1950  -48.2242 O.2       17 UNK        -0.5000 
     99 N          -6.7723  -24.5432  -48.9567 N.am      18 UNK        -0.5000 
    100 CA        -7.7437  -23.5268  -49.3745 C.3       18 UNK         0.1400 
    101 CB        -8.5017  -22.9669  -48.1530 C.3       18 UNK        -0.1800 
    102 C         -8.6836  -23.9764  -50.5167 C.2       18 UNK         0.5000 
    103 O         -9.7982  -23.4632  -50.6302 O.2       18 UNK        -0.5000 
    104 N         -8.2144  -24.9044  -51.3619 N.am      19 UNK        -0.5000 
    105 CA        -8.8947  -25.3366  -52.5847 C.3       19 UNK         0.1400 
    106 CB        -8.3052  -26.6796  -53.0405 C.3       19 UNK        -0.1800 
    107 C         -8.7850  -24.2865  -53.7079 C.2       19 UNK         0.5000 
    108 O         -9.7265  -24.1357  -54.4878 O.2       19 UNK        -0.5000 
    109 N         -7.6474  -23.5750  -53.7306 N.am      20 UNK        -0.5000 
    110 CA        -7.2233  -22.5151  -54.6506 C.3       20 UNK         0.1400 
    111 CB        -8.2832  -21.3952  -54.7258 C.3       20 UNK        -0.1800 
    112 C         -6.8199  -23.0499  -56.0469 C.2       20 UNK         0.5000 
    113 O         -7.1960  -24.1651  -56.4097 O.2       20 UNK        -0.5000 
    114 N         -6.0492  -22.3048  -56.8515 N.am      21 UNK        -0.5000 
    115 CA        -5.4290  -21.0024  -56.6023 C.3       21 UNK         0.1400 
    116 CB        -6.0998  -19.9545  -57.5066 C.3       21 UNK        -0.1800 
    117 C         -3.9298  -21.0952  -56.9272 C.2       21 UNK         0.5000 
    118 O         -3.5360  -21.9117  -57.7646 O.2       21 UNK        -0.5000 
    119 N         -3.1333  -20.2404  -56.2783 N.am      22 UNK        -0.5000 
    120 CA        -1.6746  -20.1280  -56.4577 C.3       22 UNK         0.1400 
    121 C         -1.2123  -18.7429  -56.9985 C.2       22 UNK         0.5000 
    122 N         -2.1110  -17.8330  -57.3559 N.am      22 UNK        -0.7600 
    123 O         -0.0161  -18.4935  -57.1208 O.2       22 UNK        -0.5000 
    124 C124       -0.9026  -20.5653  -55.1838 C.3       23 UNK        -0.0398 
    125 S125       -1.3642  -19.6653  -53.6609 S.3       23 UNK        -0.2404 
    126 C126       -0.0143  -18.4465  -53.5306 C.3       23 UNK        -0.0205 
    127 H127        7.1906  -11.5338  -49.6959 H         1 UNK         0.0600 
    128 H128        5.9846  -10.3097  -49.2856 H         1 UNK         0.0600 
    129 H129        5.6218  -11.5329  -50.5069 H         1 UNK         0.0600 
    130 H130        4.2713  -13.1229  -49.7361 H         1 UNK         0.3000 
    131 H131        4.7761  -14.6887  -47.4707 H         1 UNK         0.0600 
    132 H132        2.0369  -14.4968  -48.8281 H         1 UNK         0.0800 
    133 H133        3.4017  -15.2408  -49.6114 H         1 UNK         0.0800 
    134 H134        2.3210  -18.7252  -48.7668 H         1 UNK         0.0800 
    135 H135        3.3264  -17.7173  -49.7791 H         1 UNK         0.0800 
    136 H136        1.9901  -18.5749  -51.6821 H         1 UNK         0.1150 
    137 H137       -1.9217  -16.9416  -52.2992 H         1 UNK         0.1150 
    138 H138        0.0978  -16.2831  -48.5881 H         1 UNK         0.1150 
    139 H139       -1.9694  -15.0818  -49.0780 H         1 UNK         0.0800 
    140 H140       -2.7084  -15.2107  -50.6539 H         1 UNK         0.0800 
    141 H141       -3.4019  -17.6881  -46.9095 H         1 UNK         0.0800 
    142 H142       -1.9828  -16.7912  -47.3471 H         1 UNK         0.0800 
    143 H143       -1.2454  -18.8094  -48.7776 H         1 UNK         0.0600 
    144 H144       -0.9882  -18.4866  -45.9935 H         1 UNK         0.3000 
    145 H145        1.2079  -21.2636  -45.4011 H         1 UNK         0.0600 
    146 H146        2.4732  -19.3762  -44.3695 H         1 UNK         0.0600 
    147 H147        2.6202  -19.3601  -46.1215 H         1 UNK         0.0600 
    148 H148        1.5474  -18.2203  -45.3237 H         1 UNK         0.0600 
    149 H149        0.0767  -19.3855  -43.6015 H         1 UNK         0.3000 
    150 H150       -2.9839  -21.1163  -42.9242 H         1 UNK         0.0600 
    151 H151       -1.3045  -22.1719  -41.4601 H         1 UNK         0.0600 
    152 H152       -2.0476  -20.8201  -40.6183 H         1 UNK         0.0600 
    153 H153       -0.4276  -20.6591  -41.2984 H         1 UNK         0.0600 
    154 H154       -1.7632  -18.6461  -42.0413 H         1 UNK         0.3000 
    155 H155       -3.4313  -16.5518  -44.4042 H         1 UNK         0.0600 
    156 H156       -3.8442  -16.9578  -41.3925 H         1 UNK         0.0600 
    157 H157       -5.1121  -17.0043  -42.6117 H         1 UNK         0.0600 
    158 H158       -4.2450  -15.5068  -42.3118 H         1 UNK         0.0600 
    159 H159       -1.7027  -15.9830  -42.1970 H         1 UNK         0.3000 
    160 H160        1.3793  -16.2167  -43.9767 H         1 UNK         0.0600 
    161 H161       -0.1673  -13.7465  -43.0289 H         1 UNK         0.0600 
    162 H162        0.4091  -14.0167  -44.6707 H         1 UNK         0.0600 
    163 H163        1.5622  -13.8367  -43.3615 H         1 UNK         0.0600 
    164 H164        1.0121  -15.2717  -41.3946 H         1 UNK         0.3000 
    165 H165        0.3190  -16.9704  -39.4127 H         1 UNK         0.0600 
    166 H166        1.7283  -18.7831  -38.3760 H         1 UNK         0.0600 
    167 H167        0.5925  -19.4147  -39.5537 H         1 UNK         0.0600 
    168 H168        2.2938  -19.2492  -39.9794 H         1 UNK         0.0600 
    169 H169        3.1438  -16.6309  -40.2933 H         1 UNK         0.3000 
    170 H170        3.5060  -13.7466  -38.4064 H         1 UNK         0.0600 
    171 H171        4.1565  -15.3091  -36.5703 H         1 UNK         0.0600 
    172 H172        4.9778  -16.3504  -37.7264 H         1 UNK         0.0600 
    173 H173        5.5713  -14.7164  -37.4243 H         1 UNK         0.0600 
    174 H174        5.3898  -15.2844  -39.9103 H         1 UNK         0.3000 
    175 H175        6.0719  -14.4433  -41.9040 H         1 UNK         0.0600 
    176 H176        3.6087  -15.4961  -43.3960 H         1 UNK         0.0600 
    177 H177        5.2742  -15.6760  -43.9395 H         1 UNK         0.0600 
    178 H178        4.7409  -16.4613  -42.4610 H         1 UNK         0.0600 
    179 H179        4.4759  -13.2260  -43.9786 H         1 UNK         0.3000 
    180 H180        5.0887   -9.9015  -43.2468 H         1 UNK         0.0600 
    181 H181        7.1328  -11.3491  -45.0087 H         1 UNK         0.0600 
    182 H182        7.4848  -10.1851  -43.7399 H         1 UNK         0.0600 
    183 H183        6.6510   -9.6624  -45.1952 H         1 UNK         0.0600 
    184 H184        4.7425  -11.3915  -45.7324 H         1 UNK         0.3000 
    185 H185        1.3109  -11.8862  -45.4212 H         1 UNK         0.0600 
    186 H186        1.0734   -9.4275  -45.8070 H         1 UNK         0.0600 
    187 H187        2.3760   -9.4773  -46.9888 H         1 UNK         0.0600 
    188 H188        0.8620  -10.3293  -47.2982 H         1 UNK         0.0600 
    189 H189        2.8635  -11.7677  -47.7830 H         1 UNK         0.3000 
    190 H190       -3.2785  -20.1934  -46.1448 H         1 UNK         0.3000 
    191 H191       -5.0244  -21.6525  -47.8155 H         1 UNK         0.0600 
    192 H192       -4.1187  -22.2636  -44.9544 H         1 UNK         0.0600 
    193 H193       -5.5245  -22.9567  -45.7546 H         1 UNK         0.0600 
    194 H194       -5.4707  -21.2327  -45.4170 H         1 UNK         0.0600 
    195 H195       -1.8899  -22.6394  -46.3617 H         1 UNK         0.3000 
    196 H196       -1.8512  -25.2949  -47.3489 H         1 UNK         0.0600 
    197 H197        0.5890  -25.1722  -46.8211 H         1 UNK         0.0600 
    198 H198       -0.3896  -24.5234  -45.5137 H         1 UNK         0.0600 
    199 H199        0.4623  -23.4309  -46.6015 H         1 UNK         0.0600 
    200 H200       -0.4189  -22.2810  -48.7355 H         1 UNK         0.3000 
    201 H201        0.6649  -23.4525  -51.0759 H         1 UNK         0.0600 
    202 H202        1.3183  -21.2113  -50.2252 H         1 UNK         0.0600 
    203 H203       -0.2921  -20.5851  -50.5739 H         1 UNK         0.0600 
    204 H204        0.7615  -21.0981  -51.8871 H         1 UNK         0.0600 
    205 H205       -2.5687  -22.1431  -50.3982 H         1 UNK         0.3000 
    206 H206       -3.6435  -22.6004  -53.0467 H         1 UNK         0.0600 
    207 H207       -4.4991  -20.8101  -51.5786 H         1 UNK         0.0600 
    208 H208       -5.7900  -21.9528  -51.9010 H         1 UNK         0.0600 
    209 H209       -4.9587  -21.9871  -50.3536 H         1 UNK         0.0600 
    210 H210       -2.5491  -24.9290  -51.0921 H         1 UNK         0.3000 
    211 H211       -2.8159  -27.1056  -50.8850 H         1 UNK         0.0600 
    212 H212       -4.7335  -26.9178  -53.2697 H         1 UNK         0.0600 
    213 H213       -3.9384  -28.3727  -52.6884 H         1 UNK         0.0600 
    214 H214       -2.9803  -27.0660  -53.3666 H         1 UNK         0.0600 
    215 H215       -3.9882  -25.9182  -48.9589 H         1 UNK         0.3000 
    216 H216       -5.3247  -26.1151  -47.2202 H         1 UNK         0.0600 
    217 H217       -6.7291  -28.0808  -46.8084 H         1 UNK         0.0600 
    218 H218       -5.1907  -28.6058  -47.4729 H         1 UNK         0.0600 
    219 H219       -6.6316  -28.5787  -48.4892 H         1 UNK         0.0600 
    220 H220       -5.7943  -24.2858  -49.0523 H         1 UNK         0.3000 
    221 H221       -7.1574  -22.7070  -49.7884 H         1 UNK         0.0600 
    222 H222       -9.1668  -23.7107  -47.7136 H         1 UNK         0.0600 
    223 H223       -7.8102  -22.6349  -47.3785 H         1 UNK         0.0600 
    224 H224       -9.1118  -22.1064  -48.4300 H         1 UNK         0.0600 
    225 H225       -7.2713  -25.2477  -51.2285 H         1 UNK         0.3000 
    226 H226       -9.9534  -25.4861  -52.3628 H         1 UNK         0.0600 
    227 H227       -8.4223  -27.4429  -52.2710 H         1 UNK         0.0600 
    228 H228       -8.8053  -27.0413  -53.9396 H         1 UNK         0.0600 
    229 H229       -7.2415  -26.5948  -53.2666 H         1 UNK         0.0600 
    230 H230       -6.9223  -23.8794  -53.0835 H         1 UNK         0.3000 
    231 H231       -6.3285  -22.1143  -54.1783 H         1 UNK         0.0600 
    232 H232       -8.6446  -21.1263  -53.7331 H         1 UNK         0.0600 
    233 H233       -9.1436  -21.6910  -55.3266 H         1 UNK         0.0600 
    234 H234       -7.8774  -20.4881  -55.1696 H         1 UNK         0.0600 
    235 H235       -5.7436  -22.7222  -57.7198 H         1 UNK         0.3000 
    236 H236       -5.5283  -20.6873  -55.5650 H         1 UNK         0.0600 
    237 H237       -5.6948  -18.9591  -57.3213 H         1 UNK         0.0600 
    238 H238       -5.9476  -20.1791  -58.5633 H         1 UNK         0.0600 
    239 H239       -7.1745  -19.9040  -57.3341 H         1 UNK         0.0600 
    240 H240       -3.5289  -19.6038  -55.6011 H         1 UNK         0.3000 
    241 H241       -1.3663  -20.8168  -57.2460 H         1 UNK         0.0600 
    242 H242       -1.7971  -16.9442  -57.7134 H         1 UNK         0.3800 
    243 H243       -3.0972  -18.0278  -57.3009 H         1 UNK         0.3800 
    244 H244        0.1754  -20.5066  -55.3413 H         1 UNK         0.0800 
    245 H245       -1.1032  -21.6216  -55.0011 H         1 UNK         0.0800 
    246 H246       -0.1539  -17.6678  -54.2814 H         1 UNK         0.0800 
    247 H247        0.9361  -18.9317  -53.7573 H         1 UNK         0.0800 
@<TRIPOS>BOND
     1    1    2 1    
     2    1  127 1    
     3    1  128 1    
     4    1  129 1    
     5    2    3 2    
     6    2    4 am   BACKBONE|DICT|INTERRES
     7    4    5 1    
     8    4  130 1    
     9    5    6 1    
    10    5   65 1    
    11    5  131 1    
    12    6    7 1    
    13    6  132 1    
    14    6  133 1    
    15    7    8 1    
    16    8    9 1    
    17    8  134 1    
    18    8  135 1    
    19    9   10 ar   
    20    9   14 ar   
    21   10   11 ar   
    22   10  136 1    
    23   11   12 ar   
    24   11  126 1    
    25   12   13 ar   
    26   12  137 1    
    27   13   14 ar   
    28   13   15 1    
    29   14  138 1    
    30   15   16 1    
    31   15  139 1    
    32   15  140 1    
    33   16   17 1    
    34   17   18 1    
    35   17  141 1    
    36   17  142 1    
    37   18   19 1    
    38   18   67 1    
    39   18  143 1    
    40   19   20 am   BACKBONE|DICT|INTERRES
    41   19  144 1    
    42   20   21 2    
    43   20   22 1    
    44   22   23 1    
    45   22   24 1    
    46   22  145 1    
    47   23  146 1    
    48   23  147 1    
    49   23  148 1    
    50   24   25 am   BACKBONE|DICT|INTERRES
    51   24  149 1    
    52   25   26 2    
    53   25   27 1    
    54   27   28 1    
    55   27   29 1    
    56   27  150 1    
    57   28  151 1    
    58   28  152 1    
    59   28  153 1    
    60   29   30 am   BACKBONE|DICT|INTERRES
    61   29  154 1    
    62   30   31 2    
    63   30   32 1    
    64   32   33 1    
    65   32   34 1    
    66   32  155 1    
    67   33  156 1    
    68   33  157 1    
    69   33  158 1    
    70   34   35 am   BACKBONE|DICT|INTERRES
    71   34  159 1    
    72   35   36 2    
    73   35   37 1    
    74   37   38 1    
    75   37   39 1    
    76   37  160 1    
    77   38  161 1    
    78   38  162 1    
    79   38  163 1    
    80   39   40 am   BACKBONE|DICT|INTERRES
    81   39  164 1    
    82   40   41 2    
    83   40   42 1    
    84   42   43 1    
    85   42   44 1    
    86   42  165 1    
    87   43  166 1    
    88   43  167 1    
    89   43  168 1    
    90   44   45 am   BACKBONE|DICT|INTERRES
    91   44  169 1    
    92   45   46 2    
    93   45   47 1    
    94   47   48 1    
    95   47   49 1    
    96   47  170 1    
    97   48  171 1    
    98   48  172 1    
    99   48  173 1    
   100   49   50 am   BACKBONE|DICT|INTERRES
   101   49  174 1    
   102   50   51 2    
   103   50   52 1    
   104   52   53 1    
   105   52   54 1    
   106   52  175 1    
   107   53  176 1    
   108   53  177 1    
   109   53  178 1    
   110   54   55 am   BACKBONE|DICT|INTERRES
   111   54  179 1    
   112   55   56 2    
   113   55   57 1    
   114   57   58 1    
   115   57   59 1    
   116   57  180 1    
   117   58  181 1    
   118   58  182 1    
   119   58  183 1    
   120   59   60 am   BACKBONE|DICT|INTERRES
   121   59  184 1    
   122   60   61 2    
   123   60   62 1    
   124   62   63 1    
   125   62   64 1    
   126   62  185 1    
   127   63  186 1    
   128   63  187 1    
   129   63  188 1    
   130   64   65 am   BACKBONE|DICT|INTERRES
   131   64  189 1    
   132   65   66 2    
   133   67   68 2    
   134   67   69 am   BACKBONE|DICT|INTERRES
   135   69   70 1    
   136   69  190 1    
   137   70   71 1    
   138   70   72 1    
   139   70  191 1    
   140   71  192 1    
   141   71  193 1    
   142   71  194 1    
   143   72   73 2    
   144   72   74 am   BACKBONE|DICT|INTERRES
   145   74   75 1    
   146   74  195 1    
   147   75   76 1    
   148   75   77 1    
   149   75  196 1    
   150   76  197 1    
   151   76  198 1    
   152   76  199 1    
   153   77   78 2    
   154   77   79 am   BACKBONE|DICT|INTERRES
   155   79   80 1    
   156   79  200 1    
   157   80   81 1    
   158   80   82 1    
   159   80  201 1    
   160   81  202 1    
   161   81  203 1    
   162   81  204 1    
   163   82   83 2    
   164   82   84 am   BACKBONE|DICT|INTERRES
   165   84   85 1    
   166   84  205 1    
   167   85   86 1    
   168   85   87 1    
   169   85  206 1    
   170   86  207 1    
   171   86  208 1    
   172   86  209 1    
   173   87   88 2    
   174   87   89 am   BACKBONE|DICT|INTERRES
   175   89   90 1    
   176   89  210 1    
   177   90   91 1    
   178   90   92 1    
   179   90  211 1    
   180   91  212 1    
   181   91  213 1    
   182   91  214 1    
   183   92   93 2    
   184   92   94 am   BACKBONE|DICT|INTERRES
   185   94   95 1    
   186   94  215 1    
   187   95   96 1    
   188   95   97 1    
   189   95  216 1    
   190   96  217 1    
   191   96  218 1    
   192   96  219 1    
   193   97   98 2    
   194   97   99 am   BACKBONE|DICT|INTERRES
   195   99  100 1    
   196   99  220 1    
   197  100  101 1    
   198  100  102 1    
   199  100  221 1    
   200  101  222 1    
   201  101  223 1    
   202  101  224 1    
   203  102  103 2    
   204  102  104 am   BACKBONE|DICT|INTERRES
   205  104  105 1    
   206  104  225 1    
   207  105  106 1    
   208  105  107 1    
   209  105  226 1    
   210  106  227 1    
   211  106  228 1    
   212  106  229 1    
   213  107  108 2    
   214  107  109 am   BACKBONE|DICT|INTERRES
   215  109  110 1    
   216  109  230 1    
   217  110  111 1    
   218  110  112 1    
   219  110  231 1    
   220  111  232 1    
   221  111  233 1    
   222  111  234 1    
   223  112  113 2    
   224  112  114 am   BACKBONE|DICT|INTERRES
   225  114  115 1    
   226  114  235 1    
   227  115  116 1    
   228  115  117 1    
   229  115  236 1    
   230  116  237 1    
   231  116  238 1    
   232  116  239 1    
   233  117  118 2    
   234  117  119 am   BACKBONE|DICT|INTERRES
   235  119  120 1    
   236  119  240 1    
   237  120  121 1    
   238  120  124 1    
   239  120  241 1    
   240  121  122 am   BACKBONE|DICT|INTERRES
   241  121  123 2    
   242  122  242 1    
   243  122  243 1    
   244  124  125 1    
   245  124  244 1    
   246  124  245 1    
   247  125  126 1    
   248  126  246 1    
   249  126  247 1    
@<TRIPOS>SUBSTRUCTURE
     1 UNK         1 GROUP             0       ****    0 ROOT    
