@<TRIPOS>MOLECULE
3R540
247   249    1
SMALL
USER_CHARGES


@<TRIPOS>ATOM
      1 CA         -2.9662  -17.5544  -46.2456 C.3       0 UNK        -0.1800 
      2 C          -2.3374  -16.4630  -47.0999 C.2       0 UNK         0.5000 
      3 O          -2.7957  -16.2242  -48.2167 O.2       0 UNK        -0.5000 
      4 N          -1.2891  -15.8109  -46.5832 N.am      1 UNK        -0.5000 
      5 CA         -0.5799  -14.7201  -47.2507 C.3       1 UNK         0.1400 
      6 C6          0.9123  -14.6750  -46.8207 C.3       23 UNK        -0.0398 
      7 S7          1.9765  -13.8730  -48.0695 S.3       23 UNK        -0.2404 
      8 C8          2.7062  -15.3059  -48.9297 C.3       23 UNK        -0.0205 
      9 C9          1.6529  -16.1621  -49.6194 C.ar      23 UNK        -0.0193 
     10 C10         1.1196  -15.7741  -50.8535 C.ar      23 UNK        -0.1150 
     11 C11         0.1409  -16.5543  -51.4790 C.ar      23 UNK        -0.0193 
     12 C12        -0.3071  -17.7222  -50.8582 C.ar      23 UNK        -0.1150 
     13 C13         0.2255  -18.1249  -49.6321 C.ar      23 UNK        -0.0193 
     14 C14         1.2105  -17.3457  -49.0210 C.ar      23 UNK        -0.1150 
     15 C15        -0.2730  -19.3933  -48.9644 C.3       23 UNK        -0.0205 
     16 S16         0.8060  -20.8136  -49.3385 S.3       23 UNK        -0.2404 
     17 C17         1.3384  -21.3129  -47.6686 C.3       23 UNK        -0.0398 
     18 CA          0.4859  -22.4474  -47.0461 C.3       11 UNK         0.1400 
     19 N           1.1651  -23.0308  -45.8875 N.am      11 UNK        -0.5000 
     20 C           0.8565  -24.2155  -45.3427 C.2       10 UNK         0.5000 
     21 O          -0.0081  -24.9633  -45.7969 O.2       10 UNK        -0.5000 
     22 CA          1.5896  -24.6034  -44.0419 C.3       10 UNK         0.1400 
     23 CB          2.8358  -25.4427  -44.3577 C.3       10 UNK        -0.1800 
     24 N           1.9794  -23.4513  -43.2229 N.am      10 UNK        -0.5000 
     25 C           1.1302  -22.5496  -42.7111 C.2       9 UNK         0.5000 
     26 O          -0.0911  -22.6243  -42.8481 O.2       9 UNK        -0.5000 
     27 CA          1.7342  -21.3277  -41.9883 C.3       9 UNK         0.1400 
     28 CB          3.1848  -21.5401  -41.5030 C.3       9 UNK        -0.1800 
     29 N           1.6452  -20.1160  -42.8095 N.am      9 UNK        -0.5000 
     30 C           2.1300  -19.9348  -44.0470 C.2       8 UNK         0.5000 
     31 O           2.7149  -20.8044  -44.6944 O.2       8 UNK        -0.5000 
     32 CA          1.9134  -18.5488  -44.6789 C.3       8 UNK         0.1400 
     33 CB          0.4789  -18.3966  -45.2013 C.3       8 UNK        -0.1800 
     34 N           2.2022  -17.4523  -43.7595 N.am      8 UNK        -0.5000 
     35 C           3.4270  -17.0910  -43.3553 C.2       7 UNK         0.5000 
     36 O           4.4686  -17.5935  -43.7775 O.2       7 UNK        -0.5000 
     37 CA          3.4904  -15.9881  -42.2829 C.3       7 UNK         0.1400 
     38 CB          3.4788  -14.5945  -42.9326 C.3       7 UNK        -0.1800 
     39 N           2.3824  -16.0942  -41.3312 N.am      7 UNK        -0.5000 
     40 C           2.2932  -17.0336  -40.3772 C.2       6 UNK         0.5000 
     41 O           3.1783  -17.8560  -40.1422 O.2       6 UNK        -0.5000 
     42 CA          0.9881  -17.0749  -39.5582 C.3       6 UNK         0.1400 
     43 CB          1.1300  -16.2340  -38.2806 C.3       6 UNK        -0.1800 
     44 N          -0.1799  -16.6083  -40.3086 N.am      6 UNK        -0.5000 
     45 C          -0.7214  -17.2418  -41.3592 C.2       5 UNK         0.5000 
     46 O          -0.3066  -18.3144  -41.7951 O.2       5 UNK        -0.5000 
     47 CA         -1.8772  -16.5210  -42.0798 C.3       5 UNK         0.1400 
     48 CB         -3.2287  -16.9052  -41.4620 C.3       5 UNK        -0.1800 
     49 N          -1.7159  -15.0643  -42.0545 N.am      5 UNK        -0.5000 
     50 C          -0.7625  -14.4094  -42.7292 C.2       4 UNK         0.5000 
     51 O          -0.0055  -14.9529  -43.5403 O.2       4 UNK        -0.5000 
     52 CA         -0.5650  -12.9318  -42.3614 C.3       4 UNK         0.1400 
     53 CB          0.2208  -12.8387  -41.0346 C.3       4 UNK        -0.1800 
     54 N           0.1542  -12.2642  -43.4428 N.am      4 UNK        -0.5000 
     55 C           0.4610  -10.9622  -43.5161 C.2       3 UNK         0.5000 
     56 O           0.1670  -10.1317  -42.6557 O.2       3 UNK        -0.5000 
     57 CA          1.2002  -10.5052  -44.7877 C.3       3 UNK         0.1400 
     58 CB          2.6153  -11.1043  -44.8540 C.3       3 UNK        -0.1800 
     59 N           0.4663  -10.8589  -46.0012 N.am      3 UNK        -0.5000 
     60 C          -0.7202  -10.3461  -46.3634 C.2       2 UNK         0.5000 
     61 O          -1.2812   -9.4254  -45.7685 O.2       2 UNK        -0.5000 
     62 CA         -1.4059  -10.9827  -47.5909 C.3       2 UNK         0.1400 
     63 CB         -1.0982  -10.1754  -48.8611 C.3       2 UNK        -0.1800 
     64 N          -1.0090  -12.3770  -47.8031 N.am      2 UNK        -0.5000 
     65 C          -1.2853  -13.3812  -46.9612 C.2       1 UNK         0.5000 
     66 O          -2.0025  -13.2578  -45.9646 O.2       1 UNK        -0.5000 
     67 C          -0.9587  -22.0006  -46.7075 C.2       11 UNK         0.5000 
     68 O          -1.8070  -21.9971  -47.5972 O.2       11 UNK        -0.5000 
     69 N          -1.2348  -21.6598  -45.4380 N.am      12 UNK        -0.5000 
     70 CA         -2.5828  -21.3316  -44.9652 C.3       12 UNK         0.1400 
     71 CB         -2.5016  -20.4394  -43.7155 C.3       12 UNK        -0.1800 
     72 C          -3.4064  -22.5999  -44.6808 C.2       12 UNK         0.5000 
     73 O          -4.6260  -22.5796  -44.8479 O.2       12 UNK        -0.5000 
     74 N          -2.7280  -23.6809  -44.2680 N.am      13 UNK        -0.5000 
     75 CA         -3.3195  -25.0046  -44.0711 C.3       13 UNK         0.1400 
     76 CB         -2.3541  -25.8796  -43.2571 C.3       13 UNK        -0.1800 
     77 C          -3.6927  -25.6871  -45.4021 C.2       13 UNK         0.5000 
     78 O          -4.7007  -26.3929  -45.4567 O.2       13 UNK        -0.5000 
     79 N          -2.8845  -25.4606  -46.4479 N.am      14 UNK        -0.5000 
     80 CA         -3.1271  -25.9169  -47.8159 C.3       14 UNK         0.1400 
     81 CB         -1.8901  -25.6162  -48.6770 C.3       14 UNK        -0.1800 
     82 C          -4.3800  -25.2572  -48.4219 C.2       14 UNK         0.5000 
     83 O          -4.5073  -24.0311  -48.3763 O.2       14 UNK        -0.5000 
     84 N          -5.2716  -26.0813  -48.9886 N.am      15 UNK        -0.5000 
     85 CA         -6.5280  -25.6690  -49.6166 C.3       15 UNK         0.1400 
     86 CB         -7.3158  -26.9196  -50.0383 C.3       15 UNK        -0.1800 
     87 C          -6.2783  -24.7381  -50.8158 C.2       15 UNK         0.5000 
     88 O          -5.7231  -25.1817  -51.8233 O.2       15 UNK        -0.5000 
     89 N          -6.6352  -23.4556  -50.6523 N.am      16 UNK        -0.5000 
     90 CA         -6.4044  -22.3491  -51.5892 C.3       16 UNK         0.1400 
     91 CB         -7.3415  -22.4694  -52.8079 C.3       16 UNK        -0.1800 
     92 C          -4.9206  -22.2131  -51.9913 C.2       16 UNK         0.5000 
     93 O          -4.6116  -22.0327  -53.1715 O.2       16 UNK        -0.5000 
     94 N          -4.0172  -22.3803  -51.0127 N.am      17 UNK        -0.5000 
     95 CA         -2.5533  -22.3744  -51.1544 C.3       17 UNK         0.1400 
     96 CB         -2.0817  -21.0182  -51.7243 C.3       17 UNK        -0.1800 
     97 C          -1.9908  -23.5452  -51.9925 C.2       17 UNK         0.5000 
     98 O          -0.7923  -23.5575  -52.2732 O.2       17 UNK        -0.5000 
     99 N          -2.8627  -24.4744  -52.4201 N.am      18 UNK        -0.5000 
    100 CA        -2.6504  -25.4852  -53.4610 C.3       18 UNK         0.1400 
    101 CB        -1.6345  -26.5499  -52.9982 C.3       18 UNK        -0.1800 
    102 C         -2.3005  -24.8670  -54.8369 C.2       18 UNK         0.5000 
    103 O         -1.6463  -25.5208  -55.6516 O.2       18 UNK        -0.5000 
    104 N         -2.7271  -23.6159  -55.0702 N.am      19 UNK        -0.5000 
    105 CA        -2.3386  -22.8031  -56.2253 C.3       19 UNK         0.1400 
    106 CB        -0.9774  -22.1349  -55.9425 C.3       19 UNK        -0.1800 
    107 C         -3.4175  -21.7712  -56.6032 C.2       19 UNK         0.5000 
    108 O         -3.0954  -20.7679  -57.2420 O.2       19 UNK        -0.5000 
    109 N         -4.6701  -22.0064  -56.1824 N.am      20 UNK        -0.5000 
    110 CA        -5.8397  -21.1346  -56.3677 C.3       20 UNK         0.1400 
    111 CB        -6.2651  -21.1120  -57.8508 C.3       20 UNK        -0.1800 
    112 C         -5.6403  -19.7192  -55.7763 C.2       20 UNK         0.5000 
    113 O         -6.0620  -18.7309  -56.3789 O.2       20 UNK        -0.5000 
    114 N         -4.9776  -19.6633  -54.6108 N.am      21 UNK        -0.5000 
    115 CA        -4.5452  -18.4685  -53.8790 C.3       21 UNK         0.1400 
    116 CB        -5.7597  -17.6982  -53.3213 C.3       21 UNK        -0.1800 
    117 C         -3.5830  -17.5884  -54.7064 C.2       21 UNK         0.5000 
    118 O         -3.7648  -16.3720  -54.7844 O.2       21 UNK        -0.5000 
    119 N         -2.5770  -18.2379  -55.3087 N.am      22 UNK        -0.5000 
    120 CA        -1.5896  -17.6551  -56.2349 C.3       22 UNK         0.1400 
    121 C         -2.2282  -17.2263  -57.5889 C.2       22 UNK         0.5000 
    122 N         -3.0083  -18.0946  -58.2188 N.am      22 UNK        -0.7600 
    123 O         -2.0191  -16.1196  -58.0805 O.2       22 UNK        -0.5000 
    124 C124       -0.6940  -16.5507  -55.6003 C.3       23 UNK        -0.0398 
    125 S125        0.2662  -17.1484  -54.1682 S.3       23 UNK        -0.2404 
    126 C126       -0.4415  -16.1482  -52.8231 C.3       23 UNK        -0.0205 
    127 H127       -2.5445  -17.5782  -45.2425 H         1 UNK         0.0600 
    128 H128       -4.0404  -17.3925  -46.1567 H         1 UNK         0.0600 
    129 H129       -2.8029  -18.5275  -46.7085 H         1 UNK         0.0600 
    130 H130       -1.0142  -15.9764  -45.6252 H         1 UNK         0.3000 
    131 H131       -0.6244  -14.8974  -48.3277 H         1 UNK         0.0600 
    132 H132        1.0409  -14.1635  -45.8663 H         1 UNK         0.0800 
    133 H133        1.2963  -15.6798  -46.6522 H         1 UNK         0.0800 
    134 H134        3.2816  -15.9007  -48.2184 H         1 UNK         0.0800 
    135 H135        3.4212  -14.9452  -49.6705 H         1 UNK         0.0800 
    136 H136        1.4656  -14.8642  -51.3236 H         1 UNK         0.1150 
    137 H137       -1.0649  -18.3217  -51.3406 H         1 UNK         0.1150 
    138 H138        1.6297  -17.6604  -48.0767 H         1 UNK         0.1150 
    139 H139       -0.3534  -19.2288  -47.8914 H         1 UNK         0.0800 
    140 H140       -1.2864  -19.6226  -49.2930 H         1 UNK         0.0800 
    141 H141        1.3942  -20.4429  -47.0191 H         1 UNK         0.0800 
    142 H142        2.3688  -21.6571  -47.7696 H         1 UNK         0.0800 
    143 H143        0.4003  -23.2380  -47.7952 H         1 UNK         0.0600 
    144 H144        1.8692  -22.4527  -45.4376 H         1 UNK         0.3000 
    145 H145        0.9059  -25.2144  -43.4495 H         1 UNK         0.0600 
    146 H146        3.3156  -25.7962  -43.4449 H         1 UNK         0.0600 
    147 H147        2.5748  -26.3224  -44.9477 H         1 UNK         0.0600 
    148 H148        3.5716  -24.8722  -44.9260 H         1 UNK         0.0600 
    149 H149        2.9698  -23.2961  -43.1025 H         1 UNK         0.3000 
    150 H150        1.1121  -21.1527  -41.1094 H         1 UNK         0.0600 
    151 H151        3.2635  -22.4269  -40.8729 H         1 UNK         0.0600 
    152 H152        3.5176  -20.6914  -40.9049 H         1 UNK         0.0600 
    153 H153        3.8886  -21.6519  -42.3283 H         1 UNK         0.0600 
    154 H154        1.0838  -19.3681  -42.4075 H         1 UNK         0.3000 
    155 H155        2.5923  -18.4766  -45.5316 H         1 UNK         0.0600 
    156 H156       -0.1961  -18.0158  -44.4378 H         1 UNK         0.0600 
    157 H157        0.0656  -19.3387  -45.5508 H         1 UNK         0.0600 
    158 H158        0.4538  -17.7107  -46.0419 H         1 UNK         0.0600 
    159 H159        1.4083  -16.9675  -43.3658 H         1 UNK         0.3000 
    160 H160        4.4301  -16.1015  -41.7379 H         1 UNK         0.0600 
    161 H161        3.5542  -13.8071  -42.1826 H         1 UNK         0.0600 
    162 H162        2.5713  -14.4216  -43.5104 H         1 UNK         0.0600 
    163 H163        4.3235  -14.4761  -43.6123 H         1 UNK         0.0600 
    164 H164        1.6055  -15.4664  -41.4661 H         1 UNK         0.3000 
    165 H165        0.8128  -18.1134  -39.2690 H         1 UNK         0.0600 
    166 H166        0.2414  -16.3146  -37.6543 H         1 UNK         0.0600 
    167 H167        1.9783  -16.5712  -37.6834 H         1 UNK         0.0600 
    168 H168        1.2873  -15.1787  -38.5077 H         1 UNK         0.0600 
    169 H169       -0.5925  -15.7388  -40.0068 H         1 UNK         0.3000 
    170 H170       -1.8757  -16.8487  -43.1198 H         1 UNK         0.0600 
    171 H171       -3.3764  -17.9858  -41.4908 H         1 UNK         0.0600 
    172 H172       -3.3019  -16.5907  -40.4203 H         1 UNK         0.0600 
    173 H173       -4.0547  -16.4511  -42.0096 H         1 UNK         0.0600 
    174 H174       -2.3098  -14.5539  -41.4164 H         1 UNK         0.3000 
    175 H175       -1.5448  -12.4635  -42.2509 H         1 UNK         0.0600 
    176 H176        1.2374  -13.2177  -41.1422 H         1 UNK         0.0600 
    177 H177        0.2874  -11.8128  -40.6744 H         1 UNK         0.0600 
    178 H178       -0.2623  -13.4119  -40.2427 H         1 UNK         0.0600 
    179 H179        0.4053  -12.8833  -44.2007 H         1 UNK         0.3000 
    180 H180        1.2935   -9.4177  -44.7503 H         1 UNK         0.0600 
    181 H181        2.5965  -12.1898  -44.9572 H         1 UNK         0.0600 
    182 H182        3.1807  -10.8706  -43.9509 H         1 UNK         0.0600 
    183 H183        3.1731  -10.7002  -45.6989 H         1 UNK         0.0600 
    184 H184        0.8618  -11.5893  -46.5737 H         1 UNK         0.3000 
    185 H185       -2.4839  -10.9577  -47.4187 H         1 UNK         0.0600 
    186 H186       -1.4045   -9.1348  -48.7459 H         1 UNK         0.0600 
    187 H187       -0.0324  -10.1802  -49.0933 H         1 UNK         0.0600 
    188 H188       -1.6322  -10.5763  -49.7228 H         1 UNK         0.0600 
    189 H189       -0.4052  -12.5554  -48.5936 H         1 UNK         0.3000 
    190 H190       -0.5234  -21.7592  -44.7246 H         1 UNK         0.3000 
    191 H191       -3.1032  -20.7669  -45.7414 H         1 UNK         0.0600 
    192 H192       -2.0595  -20.9591  -42.8661 H         1 UNK         0.0600 
    193 H193       -3.4957  -20.1106  -43.4108 H         1 UNK         0.0600 
    194 H194       -1.9101  -19.5454  -43.9009 H         1 UNK         0.0600 
    195 H195       -1.7349  -23.5911  -44.1000 H         1 UNK         0.3000 
    196 H196       -4.2361  -24.8836  -43.4899 H         1 UNK         0.0600 
    197 H197       -1.4295  -26.0757  -43.7995 H         1 UNK         0.0600 
    198 H198       -2.8069  -26.8446  -43.0264 H         1 UNK         0.0600 
    199 H199       -2.0942  -25.4068  -42.3097 H         1 UNK         0.0600 
    200 H200       -2.0445  -24.9155  -46.2968 H         1 UNK         0.3000 
    201 H201       -3.2702  -26.9990  -47.7870 H         1 UNK         0.0600 
    202 H202       -2.0328  -25.9618  -49.7014 H         1 UNK         0.0600 
    203 H203       -1.0043  -26.1157  -48.2843 H         1 UNK         0.0600 
    204 H204       -1.6798  -24.5472  -48.7180 H         1 UNK         0.0600 
    205 H205       -5.0772  -27.0717  -49.0022 H         1 UNK         0.3000 
    206 H206       -7.1176  -25.1353  -48.8683 H         1 UNK         0.0600 
    207 H207       -7.5523  -27.5461  -49.1781 H         1 UNK         0.0600 
    208 H208       -8.2606  -26.6445  -50.5087 H         1 UNK         0.0600 
    209 H209       -6.7584  -27.5269  -50.7529 H         1 UNK         0.0600 
    210 H210       -7.0402  -23.1895  -49.7653 H         1 UNK         0.3000 
    211 H211       -6.6630  -21.4310  -51.0600 H         1 UNK         0.0600 
    212 H212       -7.0902  -23.3296  -53.4295 H         1 UNK         0.0600 
    213 H213       -7.2795  -21.5790  -53.4340 H         1 UNK         0.0600 
    214 H214       -8.3811  -22.5727  -52.4973 H         1 UNK         0.0600 
    215 H215       -4.3547  -22.6063  -50.0829 H         1 UNK         0.3000 
    216 H216       -2.1441  -22.4835  -50.1505 H         1 UNK         0.0600 
    217 H217       -2.3216  -20.9098  -52.7819 H         1 UNK         0.0600 
    218 H218       -1.0009  -20.9116  -51.6377 H         1 UNK         0.0600 
    219 H219       -2.5411  -20.1865  -51.1919 H         1 UNK         0.0600 
    220 H220       -3.8272  -24.3912  -52.1169 H         1 UNK         0.3000 
    221 H221       -3.6109  -25.9848  -53.5940 H         1 UNK         0.0600 
    222 H222       -0.6285  -26.1400  -52.9063 H         1 UNK         0.0600 
    223 H223       -1.9164  -26.9694  -52.0328 H         1 UNK         0.0600 
    224 H224       -1.5853  -27.3775  -53.7067 H         1 UNK         0.0600 
    225 H225       -3.2647  -23.1433  -54.3508 H         1 UNK         0.3000 
    226 H226       -2.2307  -23.4498  -57.0982 H         1 UNK         0.0600 
    227 H227       -0.2088  -22.8772  -55.7269 H         1 UNK         0.0600 
    228 H228       -0.6307  -21.5568  -56.8000 H         1 UNK         0.0600 
    229 H229       -1.0347  -21.4590  -55.0884 H         1 UNK         0.0600 
    230 H230       -4.8353  -22.8432  -55.6414 H         1 UNK         0.3000 
    231 H231       -6.6534  -21.5884  -55.8012 H         1 UNK         0.0600 
    232 H232       -6.4124  -22.1217  -58.2338 H         1 UNK         0.0600 
    233 H233       -5.5213  -20.6204  -58.4786 H         1 UNK         0.0600 
    234 H234       -7.2066  -20.5770  -57.9798 H         1 UNK         0.0600 
    235 H235       -4.7165  -20.5518  -54.1866 H         1 UNK         0.3000 
    236 H236       -3.9689  -18.8264  -53.0248 H         1 UNK         0.0600 
    237 H237       -5.4386  -16.8786  -52.6774 H         1 UNK         0.0600 
    238 H238       -6.3694  -17.2691  -54.1168 H         1 UNK         0.0600 
    239 H239       -6.3974  -18.3495  -52.7236 H         1 UNK         0.0600 
    240 H240       -2.5483  -19.2430  -55.2290 H         1 UNK         0.3000 
    241 H241       -0.9220  -18.4762  -56.4993 H         1 UNK         0.0600 
    242 H242       -3.1458  -19.0320  -57.8447 H         1 UNK         0.3800 
    243 H243       -3.4357  -17.8378  -59.0937 H         1 UNK         0.3800 
    244 H244        0.0282  -16.1902  -56.3345 H         1 UNK         0.0800 
    245 H245       -1.2882  -15.6803  -55.3200 H         1 UNK         0.0800 
    246 H246       -0.2540  -15.0914  -53.0191 H         1 UNK         0.0800 
    247 H247       -1.5250  -16.2740  -52.8033 H         1 UNK         0.0800 
@<TRIPOS>BOND
     1    1    2 1    
     2    1  127 1    
     3    1  128 1    
     4    1  129 1    
     5    2    3 2    
     6    2    4 am   BACKBONE|DICT|INTERRES
     7    4    5 1    
     8    4  130 1    
     9    5    6 1    
    10    5   65 1    
    11    5  131 1    
    12    6    7 1    
    13    6  132 1    
    14    6  133 1    
    15    7    8 1    
    16    8    9 1    
    17    8  134 1    
    18    8  135 1    
    19    9   10 ar   
    20    9   14 ar   
    21   10   11 ar   
    22   10  136 1    
    23   11   12 ar   
    24   11  126 1    
    25   12   13 ar   
    26   12  137 1    
    27   13   14 ar   
    28   13   15 1    
    29   14  138 1    
    30   15   16 1    
    31   15  139 1    
    32   15  140 1    
    33   16   17 1    
    34   17   18 1    
    35   17  141 1    
    36   17  142 1    
    37   18   19 1    
    38   18   67 1    
    39   18  143 1    
    40   19   20 am   BACKBONE|DICT|INTERRES
    41   19  144 1    
    42   20   21 2    
    43   20   22 1    
    44   22   23 1    
    45   22   24 1    
    46   22  145 1    
    47   23  146 1    
    48   23  147 1    
    49   23  148 1    
    50   24   25 am   BACKBONE|DICT|INTERRES
    51   24  149 1    
    52   25   26 2    
    53   25   27 1    
    54   27   28 1    
    55   27   29 1    
    56   27  150 1    
    57   28  151 1    
    58   28  152 1    
    59   28  153 1    
    60   29   30 am   BACKBONE|DICT|INTERRES
    61   29  154 1    
    62   30   31 2    
    63   30   32 1    
    64   32   33 1    
    65   32   34 1    
    66   32  155 1    
    67   33  156 1    
    68   33  157 1    
    69   33  158 1    
    70   34   35 am   BACKBONE|DICT|INTERRES
    71   34  159 1    
    72   35   36 2    
    73   35   37 1    
    74   37   38 1    
    75   37   39 1    
    76   37  160 1    
    77   38  161 1    
    78   38  162 1    
    79   38  163 1    
    80   39   40 am   BACKBONE|DICT|INTERRES
    81   39  164 1    
    82   40   41 2    
    83   40   42 1    
    84   42   43 1    
    85   42   44 1    
    86   42  165 1    
    87   43  166 1    
    88   43  167 1    
    89   43  168 1    
    90   44   45 am   BACKBONE|DICT|INTERRES
    91   44  169 1    
    92   45   46 2    
    93   45   47 1    
    94   47   48 1    
    95   47   49 1    
    96   47  170 1    
    97   48  171 1    
    98   48  172 1    
    99   48  173 1    
   100   49   50 am   BACKBONE|DICT|INTERRES
   101   49  174 1    
   102   50   51 2    
   103   50   52 1    
   104   52   53 1    
   105   52   54 1    
   106   52  175 1    
   107   53  176 1    
   108   53  177 1    
   109   53  178 1    
   110   54   55 am   BACKBONE|DICT|INTERRES
   111   54  179 1    
   112   55   56 2    
   113   55   57 1    
   114   57   58 1    
   115   57   59 1    
   116   57  180 1    
   117   58  181 1    
   118   58  182 1    
   119   58  183 1    
   120   59   60 am   BACKBONE|DICT|INTERRES
   121   59  184 1    
   122   60   61 2    
   123   60   62 1    
   124   62   63 1    
   125   62   64 1    
   126   62  185 1    
   127   63  186 1    
   128   63  187 1    
   129   63  188 1    
   130   64   65 am   BACKBONE|DICT|INTERRES
   131   64  189 1    
   132   65   66 2    
   133   67   68 2    
   134   67   69 am   BACKBONE|DICT|INTERRES
   135   69   70 1    
   136   69  190 1    
   137   70   71 1    
   138   70   72 1    
   139   70  191 1    
   140   71  192 1    
   141   71  193 1    
   142   71  194 1    
   143   72   73 2    
   144   72   74 am   BACKBONE|DICT|INTERRES
   145   74   75 1    
   146   74  195 1    
   147   75   76 1    
   148   75   77 1    
   149   75  196 1    
   150   76  197 1    
   151   76  198 1    
   152   76  199 1    
   153   77   78 2    
   154   77   79 am   BACKBONE|DICT|INTERRES
   155   79   80 1    
   156   79  200 1    
   157   80   81 1    
   158   80   82 1    
   159   80  201 1    
   160   81  202 1    
   161   81  203 1    
   162   81  204 1    
   163   82   83 2    
   164   82   84 am   BACKBONE|DICT|INTERRES
   165   84   85 1    
   166   84  205 1    
   167   85   86 1    
   168   85   87 1    
   169   85  206 1    
   170   86  207 1    
   171   86  208 1    
   172   86  209 1    
   173   87   88 2    
   174   87   89 am   BACKBONE|DICT|INTERRES
   175   89   90 1    
   176   89  210 1    
   177   90   91 1    
   178   90   92 1    
   179   90  211 1    
   180   91  212 1    
   181   91  213 1    
   182   91  214 1    
   183   92   93 2    
   184   92   94 am   BACKBONE|DICT|INTERRES
   185   94   95 1    
   186   94  215 1    
   187   95   96 1    
   188   95   97 1    
   189   95  216 1    
   190   96  217 1    
   191   96  218 1    
   192   96  219 1    
   193   97   98 2    
   194   97   99 am   BACKBONE|DICT|INTERRES
   195   99  100 1    
   196   99  220 1    
   197  100  101 1    
   198  100  102 1    
   199  100  221 1    
   200  101  222 1    
   201  101  223 1    
   202  101  224 1    
   203  102  103 2    
   204  102  104 am   BACKBONE|DICT|INTERRES
   205  104  105 1    
   206  104  225 1    
   207  105  106 1    
   208  105  107 1    
   209  105  226 1    
   210  106  227 1    
   211  106  228 1    
   212  106  229 1    
   213  107  108 2    
   214  107  109 am   BACKBONE|DICT|INTERRES
   215  109  110 1    
   216  109  230 1    
   217  110  111 1    
   218  110  112 1    
   219  110  231 1    
   220  111  232 1    
   221  111  233 1    
   222  111  234 1    
   223  112  113 2    
   224  112  114 am   BACKBONE|DICT|INTERRES
   225  114  115 1    
   226  114  235 1    
   227  115  116 1    
   228  115  117 1    
   229  115  236 1    
   230  116  237 1    
   231  116  238 1    
   232  116  239 1    
   233  117  118 2    
   234  117  119 am   BACKBONE|DICT|INTERRES
   235  119  120 1    
   236  119  240 1    
   237  120  121 1    
   238  120  124 1    
   239  120  241 1    
   240  121  122 am   BACKBONE|DICT|INTERRES
   241  121  123 2    
   242  122  242 1    
   243  122  243 1    
   244  124  125 1    
   245  124  244 1    
   246  124  245 1    
   247  125  126 1    
   248  126  246 1    
   249  126  247 1    
@<TRIPOS>SUBSTRUCTURE
     1 UNK         1 GROUP             0       ****    0 ROOT    
