@<TRIPOS>MOLECULE
3R540
247   249    1
SMALL
USER_CHARGES


@<TRIPOS>ATOM
      1 CA          0.3835  -14.4165  -48.7305 C.3       0 UNK        -0.1800 
      2 C           0.1387  -14.2459  -47.2391 C.2       0 UNK         0.5000 
      3 O           1.0920  -14.1163  -46.4728 O.2       0 UNK        -0.5000 
      4 N          -1.1339  -14.2204  -46.8199 N.am      1 UNK        -0.5000 
      5 CA         -1.5428  -14.1230  -45.4106 C.3       1 UNK         0.1400 
      6 C6         -3.0389  -14.4714  -45.1989 C.3       23 UNK        -0.0398 
      7 S7         -3.4380  -16.1861  -45.6893 S.3       23 UNK        -0.2404 
      8 C8         -4.3935  -15.9475  -47.2224 C.3       23 UNK        -0.0205 
      9 C9         -4.0377  -16.9838  -48.2797 C.ar      23 UNK        -0.0193 
     10 C10        -5.0112  -17.8379  -48.8097 C.ar      23 UNK        -0.1150 
     11 C11        -4.6881  -18.7438  -49.8314 C.ar      23 UNK        -0.0193 
     12 C12        -3.3750  -18.7838  -50.3122 C.ar      23 UNK        -0.1150 
     13 C13        -2.3946  -17.9383  -49.7880 C.ar      23 UNK        -0.0193 
     14 C14        -2.7334  -17.0442  -48.7732 C.ar      23 UNK        -0.1150 
     15 C15        -0.9778  -17.9531  -50.3400 C.3       23 UNK        -0.0205 
     16 S16        -0.0768  -19.4742  -49.9229 S.3       23 UNK        -0.2404 
     17 C17        -0.0244  -19.4140  -48.0988 C.3       23 UNK        -0.0398 
     18 CA         -0.4245  -20.7705  -47.4717 C.3       11 UNK         0.1400 
     19 N           0.2456  -21.0002  -46.1897 N.am      11 UNK        -0.5000 
     20 C           0.4388  -22.2142  -45.6569 C.2       10 UNK         0.5000 
     21 O          -0.0753  -23.2403  -46.1011 O.2       10 UNK        -0.5000 
     22 CA          1.3807  -22.3013  -44.4428 C.3       10 UNK         0.1400 
     23 CB          2.8201  -21.9233  -44.8282 C.3       10 UNK        -0.1800 
     24 N           0.9359  -21.4588  -43.3390 N.am      10 UNK        -0.5000 
     25 C          -0.1288  -21.7243  -42.5713 C.2       9 UNK         0.5000 
     26 O          -0.8035  -22.7500  -42.6625 O.2       9 UNK        -0.5000 
     27 CA         -0.5233  -20.6495  -41.5415 C.3       9 UNK         0.1400 
     28 CB          0.2641  -20.8371  -40.2361 C.3       9 UNK        -0.1800 
     29 N          -0.3436  -19.2789  -42.0253 N.am      9 UNK        -0.5000 
     30 C          -0.9323  -18.7696  -43.1171 C.2       8 UNK         0.5000 
     31 O          -1.6697  -19.4097  -43.8622 O.2       8 UNK        -0.5000 
     32 CA         -0.5967  -17.3147  -43.4702 C.3       8 UNK         0.1400 
     33 CB         -1.2375  -16.3457  -42.4611 C.3       8 UNK        -0.1800 
     34 N           0.8433  -17.0851  -43.5505 N.am      8 UNK        -0.5000 
     35 C           1.6715  -17.7116  -44.3997 C.2       7 UNK         0.5000 
     36 O           1.3044  -18.5159  -45.2560 O.2       7 UNK        -0.5000 
     37 CA          3.1741  -17.4476  -44.2138 C.3       7 UNK         0.1400 
     38 CB          3.5947  -16.1366  -44.8958 C.3       7 UNK        -0.1800 
     39 N           3.5457  -17.4210  -42.7987 N.am      7 UNK        -0.5000 
     40 C           3.4969  -18.4856  -41.9832 C.2       6 UNK         0.5000 
     41 O           3.1868  -19.6189  -42.3513 O.2       6 UNK        -0.5000 
     42 CA          3.8039  -18.2252  -40.4974 C.3       6 UNK         0.1400 
     43 CB          5.3198  -18.2055  -40.2509 C.3       6 UNK        -0.1800 
     44 N           3.2175  -16.9705  -40.0226 N.am      6 UNK        -0.5000 
     45 C           1.9007  -16.7535  -39.8918 C.2       5 UNK         0.5000 
     46 O           1.0445  -17.6111  -40.1036 O.2       5 UNK        -0.5000 
     47 CA          1.4680  -15.3253  -39.5073 C.3       5 UNK         0.1400 
     48 CB          1.4433  -15.1602  -37.9807 C.3       5 UNK        -0.1800 
     49 N           2.3268  -14.2933  -40.0968 N.am      5 UNK        -0.5000 
     50 C           2.4289  -14.0622  -41.4116 C.2       4 UNK         0.5000 
     51 O           1.7849  -14.6757  -42.2658 O.2       4 UNK        -0.5000 
     52 CA          3.4753  -13.0305  -41.8471 C.3       4 UNK         0.1400 
     53 CB          4.8780  -13.6742  -41.8315 C.3       4 UNK        -0.1800 
     54 N           3.1391  -12.5610  -43.1880 N.am      4 UNK        -0.5000 
     55 C           3.7281  -11.5518  -43.8390 C.2       3 UNK         0.5000 
     56 O           4.6281  -10.8580  -43.3635 O.2       3 UNK        -0.5000 
     57 CA          3.2213  -11.2603  -45.2617 C.3       3 UNK         0.1400 
     58 CB          3.8292  -12.2495  -46.2684 C.3       3 UNK        -0.1800 
     59 N           1.7601  -11.2828  -45.3627 N.am      3 UNK        -0.5000 
     60 C           0.9656  -10.3109  -44.8848 C.2       2 UNK         0.5000 
     61 O           1.3904   -9.3361  -44.2629 O.2       2 UNK        -0.5000 
     62 CA         -0.5482  -10.4022  -45.1687 C.3       2 UNK         0.1400 
     63 CB         -0.9498   -9.3909  -46.2543 C.3       2 UNK        -0.1800 
     64 N          -0.9806  -11.7323  -45.5921 N.am      2 UNK        -0.5000 
     65 C          -1.1955  -12.7630  -44.7647 C.2       1 UNK         0.5000 
     66 O          -1.1126  -12.6765  -43.5397 O.2       1 UNK        -0.5000 
     67 C          -1.9519  -20.9792  -47.4071 C.2       11 UNK         0.5000 
     68 O          -2.5204  -21.5358  -48.3471 O.2       11 UNK        -0.5000 
     69 N          -2.5908  -20.6244  -46.2811 N.am      12 UNK        -0.5000 
     70 CA         -4.0229  -20.8549  -46.0553 C.3       12 UNK         0.1400 
     71 CB         -4.5146  -20.0204  -44.8639 C.3       12 UNK        -0.1800 
     72 C          -4.3807  -22.3424  -45.8536 C.2       12 UNK         0.5000 
     73 O          -5.5614  -22.6827  -45.8886 O.2       12 UNK        -0.5000 
     74 N          -3.3712  -23.1994  -45.6569 N.am      13 UNK        -0.5000 
     75 CA         -3.4970  -24.6546  -45.6079 C.3       13 UNK         0.1400 
     76 CB         -2.6529  -25.1740  -44.4317 C.3       13 UNK        -0.1800 
     77 C          -3.0651  -25.3155  -46.9345 C.2       13 UNK         0.5000 
     78 O          -3.0384  -26.5454  -47.0047 O.2       13 UNK        -0.5000 
     79 N          -2.7224  -24.5143  -47.9526 N.am      14 UNK        -0.5000 
     80 CA         -2.1992  -24.9591  -49.2393 C.3       14 UNK         0.1400 
     81 CB         -0.6629  -24.8139  -49.2336 C.3       14 UNK        -0.1800 
     82 C          -2.9094  -24.1948  -50.3708 C.2       14 UNK         0.5000 
     83 O          -4.1432  -24.1629  -50.3953 O.2       14 UNK        -0.5000 
     84 N          -2.1374  -23.6186  -51.2962 N.am      15 UNK        -0.5000 
     85 CA         -2.5969  -22.8615  -52.4520 C.3       15 UNK         0.1400 
     86 CB         -2.8086  -23.8266  -53.6336 C.3       15 UNK        -0.1800 
     87 C          -1.5355  -21.8090  -52.7919 C.2       15 UNK         0.5000 
     88 O          -0.3640  -21.9854  -52.4436 O.2       15 UNK        -0.5000 
     89 N          -1.9479  -20.7582  -53.5061 N.am      16 UNK        -0.5000 
     90 CA         -1.0956  -19.6732  -53.9855 C.3       16 UNK         0.1400 
     91 CB         -1.9738  -18.4333  -54.2357 C.3       16 UNK        -0.1800 
     92 C          -0.3095  -20.1096  -55.2387 C.2       16 UNK         0.5000 
     93 O          -0.6209  -19.6790  -56.3501 O.2       16 UNK        -0.5000 
     94 N           0.6859  -20.9816  -55.0245 N.am      17 UNK        -0.5000 
     95 CA          1.5677  -21.5920  -56.0261 C.3       17 UNK         0.1400 
     96 CB          2.4323  -20.5269  -56.7342 C.3       17 UNK        -0.1800 
     97 C           0.7944  -22.5036  -57.0013 C.2       17 UNK         0.5000 
     98 O           0.8715  -22.3286  -58.2186 O.2       17 UNK        -0.5000 
     99 N           0.0594  -23.4658  -56.4227 N.am      18 UNK        -0.5000 
    100 CA        -0.7336  -24.5078  -57.0925 C.3       18 UNK         0.1400 
    101 CB         0.1656  -25.4323  -57.9409 C.3       18 UNK        -0.1800 
    102 C         -1.9556  -23.9777  -57.8757 C.2       18 UNK         0.5000 
    103 O         -2.4550  -24.6597  -58.7724 O.2       18 UNK        -0.5000 
    104 N         -2.4420  -22.7929  -57.4980 N.am      19 UNK        -0.5000 
    105 CA        -3.6755  -22.1756  -57.9696 C.3       19 UNK         0.1400 
    106 CB        -3.3540  -21.1827  -59.0977 C.3       19 UNK        -0.1800 
    107 C         -4.3154  -21.4641  -56.7715 C.2       19 UNK         0.5000 
    108 O         -3.5889  -21.0617  -55.8620 O.2       19 UNK        -0.5000 
    109 N         -5.6492  -21.3268  -56.7815 N.am      20 UNK        -0.5000 
    110 CA        -6.4665  -20.7280  -55.7160 C.3       20 UNK         0.1400 
    111 CB        -6.2399  -19.2026  -55.6512 C.3       20 UNK        -0.1800 
    112 C         -6.2309  -21.4235  -54.3585 C.2       20 UNK         0.5000 
    113 O         -5.6254  -20.8443  -53.4559 O.2       20 UNK        -0.5000 
    114 N         -6.6483  -22.6925  -54.2752 N.am      21 UNK        -0.5000 
    115 CA        -6.4818  -23.5368  -53.0943 C.3       21 UNK         0.1400 
    116 CB        -6.8066  -24.9925  -53.4606 C.3       21 UNK        -0.1800 
    117 C         -7.3347  -23.0659  -51.9039 C.2       21 UNK         0.5000 
    118 O         -8.5164  -22.7593  -52.0802 O.2       21 UNK        -0.5000 
    119 N         -6.7182  -23.0639  -50.7202 N.am      22 UNK        -0.5000 
    120 CA        -7.3538  -22.8154  -49.4191 C.3       22 UNK         0.1400 
    121 C         -7.2801  -24.0630  -48.4939 C.2       22 UNK         0.5000 
    122 N         -6.3331  -24.9777  -48.6767 N.am      22 UNK        -0.7600 
    123 O         -8.1246  -24.2248  -47.6174 O.2       22 UNK        -0.5000 
    124 C124       -6.7508  -21.5722  -48.7163 C.3       23 UNK        -0.0398 
    125 S125       -7.2233  -20.0115  -49.5307 S.3       23 UNK        -0.2404 
    126 C126       -5.7329  -19.6283  -50.5118 C.3       23 UNK        -0.0205 
    127 H127        0.9765  -15.3131  -48.9097 H         1 UNK         0.0600 
    128 H128        0.9348  -13.5602  -49.1188 H         1 UNK         0.0600 
    129 H129       -0.5484  -14.5035  -49.2894 H         1 UNK         0.0600 
    130 H130       -1.8834  -14.3064  -47.4900 H         1 UNK         0.3000 
    131 H131       -0.9469  -14.8583  -44.8727 H         1 UNK         0.0600 
    132 H132       -3.3006  -14.3787  -44.1432 H         1 UNK         0.0800 
    133 H133       -3.6816  -13.7655  -45.7270 H         1 UNK         0.0800 
    134 H134       -4.2056  -14.9584  -47.6408 H         1 UNK         0.0800 
    135 H135       -5.4570  -15.9832  -46.9818 H         1 UNK         0.0800 
    136 H136       -6.0257  -17.7693  -48.4455 H         1 UNK         0.1150 
    137 H137       -3.1150  -19.4651  -51.1102 H         1 UNK         0.1150 
    138 H138       -1.9806  -16.3844  -48.3701 H         1 UNK         0.1150 
    139 H139       -1.0162  -17.8499  -51.4239 H         1 UNK         0.0800 
    140 H140       -0.4086  -17.0970  -49.9769 H         1 UNK         0.0800 
    141 H141       -0.6285  -18.5981  -47.7003 H         1 UNK         0.0800 
    142 H142        1.0060  -19.1703  -47.8376 H         1 UNK         0.0800 
    143 H143       -0.0454  -21.5493  -48.1375 H         1 UNK         0.0600 
    144 H144        0.6635  -20.1834  -45.7482 H         1 UNK         0.3000 
    145 H145        1.3891  -23.3389  -44.1021 H         1 UNK         0.0600 
    146 H146        3.5032  -22.0819  -43.9935 H         1 UNK         0.0600 
    147 H147        3.1754  -22.5324  -45.6602 H         1 UNK         0.0600 
    148 H148        2.9005  -20.8775  -45.1267 H         1 UNK         0.0600 
    149 H149        1.4638  -20.6110  -43.1661 H         1 UNK         0.3000 
    150 H150       -1.5848  -20.7808  -41.3222 H         1 UNK         0.0600 
    151 H151        0.1398  -21.8476  -39.8449 H         1 UNK         0.0600 
    152 H152       -0.0791  -20.1459  -39.4661 H         1 UNK         0.0600 
    153 H153        1.3315  -20.6695  -40.3844 H         1 UNK         0.0600 
    154 H154        0.2418  -18.6728  -41.4558 H         1 UNK         0.3000 
    155 H155       -1.0057  -17.1156  -44.4606 H         1 UNK         0.0600 
    156 H156       -0.9762  -16.5921  -41.4330 H         1 UNK         0.0600 
    157 H157       -2.3249  -16.3794  -42.5348 H         1 UNK         0.0600 
    158 H158       -0.9293  -15.3156  -42.6333 H         1 UNK         0.0600 
    159 H159        1.2296  -16.3882  -42.9203 H         1 UNK         0.3000 
    160 H160        3.7180  -18.2663  -44.6898 H         1 UNK         0.0600 
    161 H161        3.0768  -15.2746  -44.4769 H         1 UNK         0.0600 
    162 H162        3.3632  -16.1627  -45.9614 H         1 UNK         0.0600 
    163 H163        4.6667  -15.9648  -44.7996 H         1 UNK         0.0600 
    164 H164        3.7687  -16.5207  -42.4047 H         1 UNK         0.3000 
    165 H165        3.3736  -19.0452  -39.9184 H         1 UNK         0.0600 
    166 H166        5.5448  -18.0947  -39.1900 H         1 UNK         0.0600 
    167 H167        5.7806  -19.1364  -40.5842 H         1 UNK         0.0600 
    168 H168        5.8065  -17.3883  -40.7848 H         1 UNK         0.0600 
    169 H169        3.8542  -16.2159  -39.8156 H         1 UNK         0.3000 
    170 H170        0.4538  -15.1746  -39.8831 H         1 UNK         0.0600 
    171 H171        0.7942  -15.9054  -37.5187 H         1 UNK         0.0600 
    172 H172        2.4368  -15.2750  -37.5455 H         1 UNK         0.0600 
    173 H173        1.0628  -14.1790  -37.6964 H         1 UNK         0.0600 
    174 H174        2.8902  -13.7538  -39.4551 H         1 UNK         0.3000 
    175 H175        3.4434  -12.1851  -41.1570 H         1 UNK         0.0600 
    176 H176        4.9576  -14.4806  -42.5613 H         1 UNK         0.0600 
    177 H177        5.6574  -12.9467  -42.0562 H         1 UNK         0.0600 
    178 H178        5.1123  -14.0923  -40.8519 H         1 UNK         0.0600 
    179 H179        2.3826  -13.0713  -43.6282 H         1 UNK         0.3000 
    180 H180        3.5635  -10.2602  -45.5369 H         1 UNK         0.0600 
    181 H181        3.5667  -13.2809  -46.0330 H         1 UNK         0.0600 
    182 H182        4.9179  -12.1837  -46.2679 H         1 UNK         0.0600 
    183 H183        3.4906  -12.0407  -47.2833 H         1 UNK         0.0600 
    184 H184        1.3490  -12.0839  -45.8271 H         1 UNK         0.3000 
    185 H185       -1.0712  -10.1360  -44.2476 H         1 UNK         0.0600 
    186 H186       -0.6782   -8.3752  -45.9636 H         1 UNK         0.0600 
    187 H187       -0.4575   -9.6029  -47.2043 H         1 UNK         0.0600 
    188 H188       -2.0267   -9.4006  -46.4238 H         1 UNK         0.0600 
    189 H189       -1.0665  -11.8885  -46.5858 H         1 UNK         0.3000 
    190 H190       -2.0782  -20.1994  -45.5105 H         1 UNK         0.3000 
    191 H191       -4.5550  -20.5025  -46.9406 H         1 UNK         0.0600 
    192 H192       -4.0963  -20.3774  -43.9224 H         1 UNK         0.0600 
    193 H193       -5.6005  -20.0705  -44.7767 H         1 UNK         0.0600 
    194 H194       -4.2476  -18.9705  -44.9779 H         1 UNK         0.0600 
    195 H195       -2.4261  -22.8389  -45.6387 H         1 UNK         0.3000 
    196 H196       -4.5355  -24.9407  -45.4305 H         1 UNK         0.0600 
    197 H197       -2.7587  -26.2532  -44.3158 H         1 UNK         0.0600 
    198 H198       -2.9627  -24.7158  -43.4923 H         1 UNK         0.0600 
    199 H199       -1.5927  -24.9602  -44.5719 H         1 UNK         0.0600 
    200 H200       -2.8172  -23.5094  -47.8520 H         1 UNK         0.3000 
    201 H201       -2.4395  -26.0119  -49.3984 H         1 UNK         0.0600 
    202 H202       -0.2231  -25.3748  -48.4085 H         1 UNK         0.0600 
    203 H203       -0.3557  -23.7737  -49.1200 H         1 UNK         0.0600 
    204 H204       -0.2207  -25.2010  -50.1523 H         1 UNK         0.0600 
    205 H205       -1.1319  -23.6160  -51.1787 H         1 UNK         0.3000 
    206 H206       -3.5261  -22.3435  -52.2068 H         1 UNK         0.0600 
    207 H207       -1.8679  -24.2701  -53.9608 H         1 UNK         0.0600 
    208 H208       -3.4791  -24.6440  -53.3692 H         1 UNK         0.0600 
    209 H209       -3.2473  -23.3125  -54.4878 H         1 UNK         0.0600 
    210 H210       -2.8912  -20.7583  -53.8811 H         1 UNK         0.3000 
    211 H211       -0.3715  -19.4186  -53.2090 H         1 UNK         0.0600 
    212 H212       -2.7156  -18.6138  -55.0145 H         1 UNK         0.0600 
    213 H213       -1.3672  -17.5835  -54.5501 H         1 UNK         0.0600 
    214 H214       -2.5093  -18.1371  -53.3339 H         1 UNK         0.0600 
    215 H215        0.8028  -21.3129  -54.0725 H         1 UNK         0.3000 
    216 H216        2.2486  -22.2434  -55.4761 H         1 UNK         0.0600 
    217 H217        3.1675  -20.9970  -57.3883 H         1 UNK         0.0600 
    218 H218        2.9808  -19.9215  -56.0127 H         1 UNK         0.0600 
    219 H219        1.8339  -19.8549  -57.3498 H         1 UNK         0.0600 
    220 H220        0.0612  -23.5071  -55.4135 H         1 UNK         0.3000 
    221 H221       -1.1499  -25.1191  -56.2908 H         1 UNK         0.0600 
    222 H222        0.5596  -24.9214  -58.8197 H         1 UNK         0.0600 
    223 H223        1.0103  -25.8031  -57.3604 H         1 UNK         0.0600 
    224 H224       -0.3891  -26.3026  -58.2933 H         1 UNK         0.0600 
    225 H225       -2.0002  -22.2927  -56.7370 H         1 UNK         0.3000 
    226 H226       -4.3659  -22.9397  -58.3329 H         1 UNK         0.0600 
    227 H227       -2.8895  -21.6872  -59.9451 H         1 UNK         0.0600 
    228 H228       -4.2594  -20.6965  -59.4625 H         1 UNK         0.0600 
    229 H229       -2.6720  -20.4012  -58.7591 H         1 UNK         0.0600 
    230 H230       -6.1641  -21.6967  -57.5684 H         1 UNK         0.3000 
    231 H231       -7.5115  -20.8939  -55.9824 H         1 UNK         0.0600 
    232 H232       -6.4621  -18.7308  -56.6082 H         1 UNK         0.0600 
    233 H233       -5.2125  -18.9517  -55.3860 H         1 UNK         0.0600 
    234 H234       -6.8890  -18.7456  -54.9035 H         1 UNK         0.0600 
    235 H235       -7.1390  -23.1005  -55.0570 H         1 UNK         0.3000 
    236 H236       -5.4354  -23.4930  -52.7996 H         1 UNK         0.0600 
    237 H237       -7.8399  -25.1036  -53.7914 H         1 UNK         0.0600 
    238 H238       -6.1558  -25.3536  -54.2572 H         1 UNK         0.0600 
    239 H239       -6.6633  -25.6502  -52.6021 H         1 UNK         0.0600 
    240 H240       -5.7474  -23.3652  -50.6741 H         1 UNK         0.3000 
    241 H241       -8.4194  -22.6282  -49.5651 H         1 UNK         0.0600 
    242 H242       -6.3201  -25.7934  -48.0866 H         1 UNK         0.3800 
    243 H243       -5.5972  -24.8396  -49.3609 H         1 UNK         0.3800 
    244 H244       -7.1086  -21.5029  -47.6878 H         1 UNK         0.0800 
    245 H245       -5.6641  -21.6531  -48.6617 H         1 UNK         0.0800 
    246 H246       -6.0544  -19.1180  -51.4202 H         1 UNK         0.0800 
    247 H247       -5.2724  -20.5630  -50.8348 H         1 UNK         0.0800 
@<TRIPOS>BOND
     1    1    2 1    
     2    1  127 1    
     3    1  128 1    
     4    1  129 1    
     5    2    3 2    
     6    2    4 am   BACKBONE|DICT|INTERRES
     7    4    5 1    
     8    4  130 1    
     9    5    6 1    
    10    5   65 1    
    11    5  131 1    
    12    6    7 1    
    13    6  132 1    
    14    6  133 1    
    15    7    8 1    
    16    8    9 1    
    17    8  134 1    
    18    8  135 1    
    19    9   10 ar   
    20    9   14 ar   
    21   10   11 ar   
    22   10  136 1    
    23   11   12 ar   
    24   11  126 1    
    25   12   13 ar   
    26   12  137 1    
    27   13   14 ar   
    28   13   15 1    
    29   14  138 1    
    30   15   16 1    
    31   15  139 1    
    32   15  140 1    
    33   16   17 1    
    34   17   18 1    
    35   17  141 1    
    36   17  142 1    
    37   18   19 1    
    38   18   67 1    
    39   18  143 1    
    40   19   20 am   BACKBONE|DICT|INTERRES
    41   19  144 1    
    42   20   21 2    
    43   20   22 1    
    44   22   23 1    
    45   22   24 1    
    46   22  145 1    
    47   23  146 1    
    48   23  147 1    
    49   23  148 1    
    50   24   25 am   BACKBONE|DICT|INTERRES
    51   24  149 1    
    52   25   26 2    
    53   25   27 1    
    54   27   28 1    
    55   27   29 1    
    56   27  150 1    
    57   28  151 1    
    58   28  152 1    
    59   28  153 1    
    60   29   30 am   BACKBONE|DICT|INTERRES
    61   29  154 1    
    62   30   31 2    
    63   30   32 1    
    64   32   33 1    
    65   32   34 1    
    66   32  155 1    
    67   33  156 1    
    68   33  157 1    
    69   33  158 1    
    70   34   35 am   BACKBONE|DICT|INTERRES
    71   34  159 1    
    72   35   36 2    
    73   35   37 1    
    74   37   38 1    
    75   37   39 1    
    76   37  160 1    
    77   38  161 1    
    78   38  162 1    
    79   38  163 1    
    80   39   40 am   BACKBONE|DICT|INTERRES
    81   39  164 1    
    82   40   41 2    
    83   40   42 1    
    84   42   43 1    
    85   42   44 1    
    86   42  165 1    
    87   43  166 1    
    88   43  167 1    
    89   43  168 1    
    90   44   45 am   BACKBONE|DICT|INTERRES
    91   44  169 1    
    92   45   46 2    
    93   45   47 1    
    94   47   48 1    
    95   47   49 1    
    96   47  170 1    
    97   48  171 1    
    98   48  172 1    
    99   48  173 1    
   100   49   50 am   BACKBONE|DICT|INTERRES
   101   49  174 1    
   102   50   51 2    
   103   50   52 1    
   104   52   53 1    
   105   52   54 1    
   106   52  175 1    
   107   53  176 1    
   108   53  177 1    
   109   53  178 1    
   110   54   55 am   BACKBONE|DICT|INTERRES
   111   54  179 1    
   112   55   56 2    
   113   55   57 1    
   114   57   58 1    
   115   57   59 1    
   116   57  180 1    
   117   58  181 1    
   118   58  182 1    
   119   58  183 1    
   120   59   60 am   BACKBONE|DICT|INTERRES
   121   59  184 1    
   122   60   61 2    
   123   60   62 1    
   124   62   63 1    
   125   62   64 1    
   126   62  185 1    
   127   63  186 1    
   128   63  187 1    
   129   63  188 1    
   130   64   65 am   BACKBONE|DICT|INTERRES
   131   64  189 1    
   132   65   66 2    
   133   67   68 2    
   134   67   69 am   BACKBONE|DICT|INTERRES
   135   69   70 1    
   136   69  190 1    
   137   70   71 1    
   138   70   72 1    
   139   70  191 1    
   140   71  192 1    
   141   71  193 1    
   142   71  194 1    
   143   72   73 2    
   144   72   74 am   BACKBONE|DICT|INTERRES
   145   74   75 1    
   146   74  195 1    
   147   75   76 1    
   148   75   77 1    
   149   75  196 1    
   150   76  197 1    
   151   76  198 1    
   152   76  199 1    
   153   77   78 2    
   154   77   79 am   BACKBONE|DICT|INTERRES
   155   79   80 1    
   156   79  200 1    
   157   80   81 1    
   158   80   82 1    
   159   80  201 1    
   160   81  202 1    
   161   81  203 1    
   162   81  204 1    
   163   82   83 2    
   164   82   84 am   BACKBONE|DICT|INTERRES
   165   84   85 1    
   166   84  205 1    
   167   85   86 1    
   168   85   87 1    
   169   85  206 1    
   170   86  207 1    
   171   86  208 1    
   172   86  209 1    
   173   87   88 2    
   174   87   89 am   BACKBONE|DICT|INTERRES
   175   89   90 1    
   176   89  210 1    
   177   90   91 1    
   178   90   92 1    
   179   90  211 1    
   180   91  212 1    
   181   91  213 1    
   182   91  214 1    
   183   92   93 2    
   184   92   94 am   BACKBONE|DICT|INTERRES
   185   94   95 1    
   186   94  215 1    
   187   95   96 1    
   188   95   97 1    
   189   95  216 1    
   190   96  217 1    
   191   96  218 1    
   192   96  219 1    
   193   97   98 2    
   194   97   99 am   BACKBONE|DICT|INTERRES
   195   99  100 1    
   196   99  220 1    
   197  100  101 1    
   198  100  102 1    
   199  100  221 1    
   200  101  222 1    
   201  101  223 1    
   202  101  224 1    
   203  102  103 2    
   204  102  104 am   BACKBONE|DICT|INTERRES
   205  104  105 1    
   206  104  225 1    
   207  105  106 1    
   208  105  107 1    
   209  105  226 1    
   210  106  227 1    
   211  106  228 1    
   212  106  229 1    
   213  107  108 2    
   214  107  109 am   BACKBONE|DICT|INTERRES
   215  109  110 1    
   216  109  230 1    
   217  110  111 1    
   218  110  112 1    
   219  110  231 1    
   220  111  232 1    
   221  111  233 1    
   222  111  234 1    
   223  112  113 2    
   224  112  114 am   BACKBONE|DICT|INTERRES
   225  114  115 1    
   226  114  235 1    
   227  115  116 1    
   228  115  117 1    
   229  115  236 1    
   230  116  237 1    
   231  116  238 1    
   232  116  239 1    
   233  117  118 2    
   234  117  119 am   BACKBONE|DICT|INTERRES
   235  119  120 1    
   236  119  240 1    
   237  120  121 1    
   238  120  124 1    
   239  120  241 1    
   240  121  122 am   BACKBONE|DICT|INTERRES
   241  121  123 2    
   242  122  242 1    
   243  122  243 1    
   244  124  125 1    
   245  124  244 1    
   246  124  245 1    
   247  125  126 1    
   248  126  246 1    
   249  126  247 1    
@<TRIPOS>SUBSTRUCTURE
     1 UNK         1 GROUP             0       ****    0 ROOT    
