@<TRIPOS>MOLECULE
3R540
247   249    1
SMALL
USER_CHARGES


@<TRIPOS>ATOM
      1 CA          8.8263  -12.3507  -47.1652 C.3       0 UNK        -0.1800 
      2 C           8.2397  -13.7126  -47.5090 C.2       0 UNK         0.5000 
      3 O           8.6086  -14.7114  -46.8914 O.2       0 UNK        -0.5000 
      4 N           7.3284  -13.7544  -48.4906 N.am      1 UNK        -0.5000 
      5 CA          6.6208  -14.9613  -48.9396 C.3       1 UNK         0.1400 
      6 C6          5.8731  -14.6918  -50.2721 C.3       23 UNK        -0.0398 
      7 S7          5.2891  -16.2007  -51.1184 S.3       23 UNK        -0.2404 
      8 C8          3.5291  -16.1754  -50.6485 C.3       23 UNK        -0.0205 
      9 C9          2.8177  -17.4720  -51.0006 C.ar      23 UNK        -0.0193 
     10 C10         1.7501  -17.4694  -51.9011 C.ar      23 UNK        -0.1150 
     11 C11         1.0463  -18.6467  -52.1722 C.ar      23 UNK        -0.0193 
     12 C12         1.4334  -19.8381  -51.5518 C.ar      23 UNK        -0.1150 
     13 C13         2.5106  -19.8588  -50.6602 C.ar      23 UNK        -0.0193 
     14 C14         3.1969  -18.6701  -50.3894 C.ar      23 UNK        -0.1150 
     15 C15         2.9319  -21.1721  -50.0101 C.3       23 UNK        -0.0205 
     16 S16         3.2141  -21.0496  -48.2109 S.3       23 UNK        -0.2404 
     17 C17         1.5909  -20.4900  -47.5940 C.3       23 UNK        -0.0398 
     18 CA          0.7150  -21.6581  -47.0810 C.3       11 UNK         0.1400 
     19 N          -0.1890  -21.2453  -46.0058 N.am      11 UNK        -0.5000 
     20 C          -0.9309  -22.0807  -45.2655 C.2       10 UNK         0.5000 
     21 O          -0.8874  -23.3058  -45.3679 O.2       10 UNK        -0.5000 
     22 CA         -1.9288  -21.4417  -44.2833 C.3       10 UNK         0.1400 
     23 CB         -1.2384  -21.0608  -42.9657 C.3       10 UNK        -0.1800 
     24 N          -2.5984  -20.2723  -44.8546 N.am      10 UNK        -0.5000 
     25 C          -3.4239  -20.3215  -45.9106 C.2       9 UNK         0.5000 
     26 O          -3.7621  -21.3702  -46.4601 O.2       9 UNK        -0.5000 
     27 CA         -3.9258  -18.9766  -46.4674 C.3       9 UNK         0.1400 
     28 CB         -5.1087  -18.4586  -45.6364 C.3       9 UNK        -0.1800 
     29 N          -2.8783  -17.9554  -46.5130 N.am      9 UNK        -0.5000 
     30 C          -1.7696  -18.0294  -47.2637 C.2       8 UNK         0.5000 
     31 O          -1.5250  -18.9575  -48.0337 O.2       8 UNK        -0.5000 
     32 CA         -0.7230  -16.9163  -47.0663 C.3       8 UNK         0.1400 
     33 CB         -1.1120  -15.6357  -47.8183 C.3       8 UNK        -0.1800 
     34 N          -0.5084  -16.6013  -45.6543 N.am      8 UNK        -0.5000 
     35 C          -0.0073  -17.4563  -44.7523 C.2       7 UNK         0.5000 
     36 O           0.3597  -18.5974  -45.0245 O.2       7 UNK        -0.5000 
     37 CA          0.0472  -16.9746  -43.2932 C.3       7 UNK         0.1400 
     38 CB          1.2903  -16.1097  -43.0367 C.3       7 UNK        -0.1800 
     39 N          -1.1575  -16.2363  -42.9181 N.am      7 UNK        -0.5000 
     40 C          -2.3728  -16.7893  -42.7971 C.2       6 UNK         0.5000 
     41 O          -2.5972  -17.9902  -42.9458 O.2       6 UNK        -0.5000 
     42 CA         -3.5382  -15.8269  -42.5076 C.3       6 UNK         0.1400 
     43 CB         -3.6244  -15.5133  -41.0066 C.3       6 UNK        -0.1800 
     44 N          -3.4265  -14.5768  -43.2612 N.am      6 UNK        -0.5000 
     45 C          -3.5205  -14.4892  -44.5957 C.2       5 UNK         0.5000 
     46 O          -3.7452  -15.4505  -45.3292 O.2       5 UNK        -0.5000 
     47 CA         -3.2734  -13.1024  -45.2154 C.3       5 UNK         0.1400 
     48 CB         -4.5667  -12.2741  -45.2218 C.3       5 UNK        -0.1800 
     49 N          -2.2146  -12.3517  -44.5340 N.am      5 UNK        -0.5000 
     50 C          -0.9277  -12.7194  -44.5077 C.2       4 UNK         0.5000 
     51 O          -0.4961  -13.7496  -45.0324 O.2       4 UNK        -0.5000 
     52 CA          0.0339  -11.8068  -43.7402 C.3       4 UNK         0.1400 
     53 CB          0.1526  -12.2525  -42.2713 C.3       4 UNK        -0.1800 
     54 N           1.3327  -11.8660  -44.3993 N.am      4 UNK        -0.5000 
     55 C           2.3177  -10.9691  -44.2805 C.2       3 UNK         0.5000 
     56 O           2.2451   -9.9828  -43.5453 O.2       3 UNK        -0.5000 
     57 CA          3.5766  -11.1744  -45.1548 C.3       3 UNK         0.1400 
     58 CB          4.8772  -10.7945  -44.4151 C.3       3 UNK        -0.1800 
     59 N           3.6932  -12.5043  -45.7725 N.am      3 UNK        -0.5000 
     60 C           3.8866  -13.6792  -45.1505 C.2       2 UNK         0.5000 
     61 O           3.9588  -13.8169  -43.9302 O.2       2 UNK        -0.5000 
     62 CA          4.0539  -14.9011  -46.0616 C.3       2 UNK         0.1400 
     63 CB          2.7032  -15.3446  -46.6535 C.3       2 UNK        -0.1800 
     64 N           5.0081  -14.6001  -47.1264 N.am      2 UNK        -0.5000 
     65 C           5.6698  -15.5106  -47.8504 C.2       1 UNK         0.5000 
     66 O           5.5604  -16.7264  -47.6864 O.2       1 UNK        -0.5000 
     67 C          -0.0442  -22.3470  -48.2330 C.2       11 UNK         0.5000 
     68 O           0.3909  -23.4015  -48.6927 O.2       11 UNK        -0.5000 
     69 N          -1.1859  -21.7747  -48.6439 N.am      12 UNK        -0.5000 
     70 CA         -2.0877  -22.3453  -49.6472 C.3       12 UNK         0.1400 
     71 CB         -3.2362  -21.3661  -49.9320 C.3       12 UNK        -0.1800 
     72 C          -2.6346  -23.7227  -49.2293 C.2       12 UNK         0.5000 
     73 O          -2.6085  -24.6561  -50.0319 O.2       12 UNK        -0.5000 
     74 N          -3.0637  -23.8403  -47.9647 N.am      13 UNK        -0.5000 
     75 CA         -3.5168  -25.0924  -47.3603 C.3       13 UNK         0.1400 
     76 CB         -4.1134  -24.8107  -45.9734 C.3       13 UNK        -0.1800 
     77 C          -2.4024  -26.1542  -47.2832 C.2       13 UNK         0.5000 
     78 O          -2.6443  -27.3078  -47.6385 O.2       13 UNK        -0.5000 
     79 N          -1.1937  -25.7448  -46.8700 N.am      14 UNK        -0.5000 
     80 CA          0.0032  -26.5907  -46.8121 C.3       14 UNK         0.1400 
     81 CB          1.1331  -25.8356  -46.0962 C.3       14 UNK        -0.1800 
     82 C           0.4689  -27.0802  -48.1976 C.2       14 UNK         0.5000 
     83 O           0.9208  -28.2190  -48.3206 O.2       14 UNK        -0.5000 
     84 N           0.3103  -26.2292  -49.2196 N.am      15 UNK        -0.5000 
     85 CA          0.5579  -26.5353  -50.6304 C.3       15 UNK         0.1400 
     86 CB          0.7159  -25.2136  -51.4011 C.3       15 UNK        -0.1800 
     87 C          -0.5345  -27.4162  -51.2766 C.2       15 UNK         0.5000 
     88 O          -0.3727  -27.8119  -52.4318 O.2       15 UNK        -0.5000 
     89 N          -1.6178  -27.7007  -50.5374 N.am      16 UNK        -0.5000 
     90 CA         -2.7992  -28.4729  -50.9334 C.3       16 UNK         0.1400 
     91 CB         -2.4295  -29.9343  -51.2649 C.3       16 UNK        -0.1800 
     92 C          -3.6344  -27.7881  -52.0354 C.2       16 UNK         0.5000 
     93 O          -4.2869  -28.4694  -52.8295 O.2       16 UNK        -0.5000 
     94 N          -3.6210  -26.4498  -52.0480 N.am      17 UNK        -0.5000 
     95 CA         -4.5003  -25.6111  -52.8568 C.3       17 UNK         0.1400 
     96 CB         -3.7579  -24.3033  -53.1891 C.3       17 UNK        -0.1800 
     97 C          -5.8206  -25.3429  -52.1045 C.2       17 UNK         0.5000 
     98 O          -6.0361  -25.8639  -51.0054 O.2       17 UNK        -0.5000 
     99 N          -6.6910  -24.5276  -52.7127 N.am      18 UNK        -0.5000 
    100 CA        -7.9296  -24.0357  -52.1061 C.3       18 UNK         0.1400 
    101 CB        -8.7347  -23.2789  -53.1745 C.3       18 UNK        -0.1800 
    102 C         -7.6633  -23.1277  -50.8874 C.2       18 UNK         0.5000 
    103 O         -6.5999  -22.5094  -50.7991 O.2       18 UNK        -0.5000 
    104 N         -8.6463  -23.0547  -49.9811 N.am      19 UNK        -0.5000 
    105 CA        -8.6211  -22.1966  -48.7953 C.3       19 UNK         0.1400 
    106 CB        -9.8210  -22.5477  -47.9017 C.3       19 UNK        -0.1800 
    107 C         -8.6343  -20.6980  -49.1565 C.2       19 UNK         0.5000 
    108 O         -9.1950  -20.3198  -50.1890 O.2       19 UNK        -0.5000 
    109 N         -8.0351  -19.8824  -48.2780 N.am      20 UNK        -0.5000 
    110 CA        -7.7743  -18.4496  -48.4533 C.3       20 UNK         0.1400 
    111 CB        -9.0919  -17.6416  -48.5055 C.3       20 UNK        -0.1800 
    112 C         -6.8128  -18.1966  -49.6366 C.2       20 UNK         0.5000 
    113 O         -5.8605  -18.9613  -49.8007 O.2       20 UNK        -0.5000 
    114 N         -7.0661  -17.1368  -50.4192 N.am      21 UNK        -0.5000 
    115 CA        -6.2879  -16.6904  -51.5816 C.3       21 UNK         0.1400 
    116 CB        -6.3805  -17.7316  -52.7209 C.3       21 UNK        -0.1800 
    117 C         -4.8330  -16.3037  -51.2251 C.2       21 UNK         0.5000 
    118 O         -4.5429  -16.0049  -50.0641 O.2       21 UNK        -0.5000 
    119 N         -3.9565  -16.2743  -52.2390 N.am      22 UNK        -0.5000 
    120 CA        -2.5094  -16.0034  -52.1341 C.3       22 UNK         0.1400 
    121 C         -2.1241  -14.5668  -51.6572 C.2       22 UNK         0.5000 
    122 N         -3.0353  -13.6017  -51.6502 N.am      22 UNK        -0.7600 
    123 O         -0.9693  -14.3046  -51.3335 O.2       22 UNK        -0.5000 
    124 C124       -1.7563  -17.1229  -51.3604 C.3       23 UNK        -0.0398 
    125 S125       -1.7375  -18.7042  -52.2729 S.3       23 UNK        -0.2404 
    126 C126       -0.1330  -18.6293  -53.1348 C.3       23 UNK        -0.0205 
    127 H127        8.4218  -11.5620  -47.8001 H         1 UNK         0.0600 
    128 H128        9.9090  -12.3658  -47.2903 H         1 UNK         0.0600 
    129 H129        8.6051  -12.0985  -46.1280 H         1 UNK         0.0600 
    130 H130        7.0875  -12.8980  -48.9695 H         1 UNK         0.3000 
    131 H131        7.3775  -15.7266  -49.1265 H         1 UNK         0.0600 
    132 H132        6.5474  -14.1916  -50.9688 H         1 UNK         0.0800 
    133 H133        5.0413  -14.0008  -50.1233 H         1 UNK         0.0800 
    134 H134        3.4313  -16.0160  -49.5750 H         1 UNK         0.0800 
    135 H135        3.0456  -15.3242  -51.1306 H         1 UNK         0.0800 
    136 H136        1.4489  -16.5445  -52.3731 H         1 UNK         0.1150 
    137 H137        0.8896  -20.7482  -51.7635 H         1 UNK         0.1150 
    138 H138        4.0255  -18.6719  -49.6944 H         1 UNK         0.1150 
    139 H139        2.1928  -21.9517  -50.1987 H         1 UNK         0.0800 
    140 H140        3.8551  -21.5090  -50.4829 H         1 UNK         0.0800 
    141 H141        1.0716  -19.8841  -48.3383 H         1 UNK         0.0800 
    142 H142        1.8151  -19.8080  -46.7743 H         1 UNK         0.0800 
    143 H143        1.3752  -22.4068  -46.6379 H         1 UNK         0.0600 
    144 H144       -0.2393  -20.2492  -45.8120 H         1 UNK         0.3000 
    145 H145       -2.6947  -22.1868  -44.0585 H         1 UNK         0.0600 
    146 H146       -1.9560  -20.6713  -42.2435 H         1 UNK         0.0600 
    147 H147       -0.7590  -21.9292  -42.5122 H         1 UNK         0.0600 
    148 H148       -0.4699  -20.3030  -43.1151 H         1 UNK         0.0600 
    149 H149       -2.4125  -19.3776  -44.4133 H         1 UNK         0.3000 
    150 H150       -4.2698  -19.1451  -47.4899 H         1 UNK         0.0600 
    151 H151       -5.9247  -19.1818  -45.6234 H         1 UNK         0.0600 
    152 H152       -5.4991  -17.5270  -46.0457 H         1 UNK         0.0600 
    153 H153       -4.8214  -18.2693  -44.6018 H         1 UNK         0.0600 
    154 H154       -3.0275  -17.1277  -45.9424 H         1 UNK         0.3000 
    155 H155        0.2250  -17.2732  -47.4746 H         1 UNK         0.0600 
    156 H156       -2.0799  -15.2531  -47.4950 H         1 UNK         0.0600 
    157 H157       -1.1739  -15.8165  -48.8894 H         1 UNK         0.0600 
    158 H158       -0.3731  -14.8484  -47.6684 H         1 UNK         0.0600 
    159 H159       -0.7385  -15.6573  -45.3589 H         1 UNK         0.3000 
    160 H160        0.1162  -17.8586  -42.6556 H         1 UNK         0.0600 
    161 H161        1.2618  -15.1768  -43.5988 H         1 UNK         0.0600 
    162 H162        2.2004  -16.6370  -43.3256 H         1 UNK         0.0600 
    163 H163        1.3832  -15.8581  -41.9803 H         1 UNK         0.0600 
    164 H164       -1.0685  -15.2366  -42.8221 H         1 UNK         0.3000 
    165 H165       -4.4633  -16.3239  -42.8074 H         1 UNK         0.0600 
    166 H166       -4.4923  -14.8925  -40.7831 H         1 UNK         0.0600 
    167 H167       -3.7224  -16.4292  -40.4223 H         1 UNK         0.0600 
    168 H168       -2.7362  -14.9899  -40.6505 H         1 UNK         0.0600 
    169 H169       -3.2425  -13.7367  -42.7333 H         1 UNK         0.3000 
    170 H170       -2.9630  -13.2550  -46.2512 H         1 UNK         0.0600 
    171 H171       -5.3665  -12.8045  -45.7404 H         1 UNK         0.0600 
    172 H172       -4.9156  -12.0611  -44.2106 H         1 UNK         0.0600 
    173 H173       -4.4233  -11.3232  -45.7354 H         1 UNK         0.0600 
    174 H174       -2.4925  -11.4960  -44.0749 H         1 UNK         0.3000 
    175 H175       -0.3434  -10.7830  -43.7846 H         1 UNK         0.0600 
    176 H176       -0.8214  -12.2550  -41.7808 H         1 UNK         0.0600 
    177 H177        0.5675  -13.2571  -42.1876 H         1 UNK         0.0600 
    178 H178        0.7965  -11.5802  -41.7043 H         1 UNK         0.0600 
    179 H179        1.4394  -12.6442  -45.0366 H         1 UNK         0.3000 
    180 H180        3.4662  -10.4758  -45.9854 H         1 UNK         0.0600 
    181 H181        5.0234  -11.3942  -43.5165 H         1 UNK         0.0600 
    182 H182        4.8622   -9.7483  -44.1076 H         1 UNK         0.0600 
    183 H183        5.7494  -10.9292  -45.0549 H         1 UNK         0.0600 
    184 H184        3.5812  -12.5131  -46.7763 H         1 UNK         0.3000 
    185 H185        4.4512  -15.7121  -45.4471 H         1 UNK         0.0600 
    186 H186        1.9468  -15.4230  -45.8753 H         1 UNK         0.0600 
    187 H187        2.3324  -14.6383  -47.3968 H         1 UNK         0.0600 
    188 H188        2.7796  -16.3226  -47.1289 H         1 UNK         0.0600 
    189 H189        5.2315  -13.6247  -47.2628 H         1 UNK         0.3000 
    190 H190       -1.4505  -20.8738  -48.2541 H         1 UNK         0.3000 
    191 H191       -1.5137  -22.4734  -50.5670 H         1 UNK         0.0600 
    192 H192       -3.9127  -21.2683  -49.0835 H         1 UNK         0.0600 
    193 H193       -3.8326  -21.7003  -50.7813 H         1 UNK         0.0600 
    194 H194       -2.8631  -20.3704  -50.1668 H         1 UNK         0.0600 
    195 H195       -3.0876  -23.0108  -47.3790 H         1 UNK         0.3000 
    196 H196       -4.3111  -25.4932  -47.9939 H         1 UNK         0.0600 
    197 H197       -4.4921  -25.7267  -45.5185 H         1 UNK         0.0600 
    198 H198       -4.9462  -24.1101  -46.0385 H         1 UNK         0.0600 
    199 H199       -3.3744  -24.3874  -45.2933 H         1 UNK         0.0600 
    200 H200       -1.0857  -24.7862  -46.5481 H         1 UNK         0.3000 
    201 H201       -0.2440  -27.4726  -46.2178 H         1 UNK         0.0600 
    202 H202        0.8391  -25.5515  -45.0857 H         1 UNK         0.0600 
    203 H203        1.4121  -24.9277  -46.6312 H         1 UNK         0.0600 
    204 H204        2.0265  -26.4557  -46.0131 H         1 UNK         0.0600 
    205 H205        0.0065  -25.2810  -49.0151 H         1 UNK         0.3000 
    206 H206        1.4988  -27.0841  -50.7026 H         1 UNK         0.0600 
    207 H207        1.5246  -24.6103  -50.9882 H         1 UNK         0.0600 
    208 H208        0.9507  -25.3944  -52.4507 H         1 UNK         0.0600 
    209 H209       -0.1966  -24.6178  -51.3670 H         1 UNK         0.0600 
    210 H210       -1.6616  -27.3099  -49.6042 H         1 UNK         0.3000 
    211 H211       -3.4425  -28.4963  -50.0530 H         1 UNK         0.0600 
    212 H212       -1.8542  -30.0099  -52.1878 H         1 UNK         0.0600 
    213 H213       -3.3249  -30.5443  -51.3895 H         1 UNK         0.0600 
    214 H214       -1.8419  -30.3834  -50.4641 H         1 UNK         0.0600 
    215 H215       -3.1140  -25.9619  -51.3131 H         1 UNK         0.3000 
    216 H216       -4.7377  -26.1214  -53.7924 H         1 UNK         0.0600 
    217 H217       -3.6211  -23.6807  -52.3050 H         1 UNK         0.0600 
    218 H218       -4.3054  -23.7111  -53.9227 H         1 UNK         0.0600 
    219 H219       -2.7728  -24.5044  -53.6108 H         1 UNK         0.0600 
    220 H220       -6.4380  -24.1197  -53.6002 H         1 UNK         0.3000 
    221 H221       -8.5106  -24.8993  -51.7753 H         1 UNK         0.0600 
    222 H222       -8.9668  -23.9210  -54.0245 H         1 UNK         0.0600 
    223 H223       -8.1898  -22.4102  -53.5467 H         1 UNK         0.0600 
    224 H224       -9.6827  -22.9208  -52.7709 H         1 UNK         0.0600 
    225 H225       -9.5021  -23.5640  -50.1451 H         1 UNK         0.3000 
    226 H226       -7.7019  -22.4133  -48.2463 H         1 UNK         0.0600 
    227 H227       -9.7970  -23.5953  -47.6007 H         1 UNK         0.0600 
    228 H228       -9.8191  -21.9493  -46.9897 H         1 UNK         0.0600 
    229 H229      -10.7682  -22.3651  -48.4110 H         1 UNK         0.0600 
    230 H230       -7.5969  -20.3002  -47.4700 H         1 UNK         0.3000 
    231 H231       -7.2389  -18.1292  -47.5607 H         1 UNK         0.0600 
    232 H232       -9.6507  -17.8217  -49.4244 H         1 UNK         0.0600 
    233 H233       -8.9009  -16.5702  -48.4370 H         1 UNK         0.0600 
    234 H234       -9.7409  -17.9008  -47.6689 H         1 UNK         0.0600 
    235 H235       -7.8558  -16.5552  -50.1794 H         1 UNK         0.3000 
    236 H236       -6.7686  -15.7751  -51.9291 H         1 UNK         0.0600 
    237 H237       -6.0199  -17.3250  -53.6659 H         1 UNK         0.0600 
    238 H238       -5.7957  -18.6258  -52.5006 H         1 UNK         0.0600 
    239 H239       -7.4122  -18.0436  -52.8846 H         1 UNK         0.0600 
    240 H240       -4.2847  -16.5132  -53.1632 H         1 UNK         0.3000 
    241 H241       -2.1428  -16.0271  -53.1608 H         1 UNK         0.0600 
    242 H242       -3.9867  -13.7918  -51.9195 H         1 UNK         0.3800 
    243 H243       -2.7713  -12.6745  -51.3572 H         1 UNK         0.3800 
    244 H244       -2.2244  -17.3030  -50.3924 H         1 UNK         0.0800 
    245 H245       -0.7324  -16.8341  -51.1331 H         1 UNK         0.0800 
    246 H246       -0.1042  -17.7396  -53.7657 H         1 UNK         0.0800 
    247 H247       -0.0575  -19.4826  -53.8101 H         1 UNK         0.0800 
@<TRIPOS>BOND
     1    1    2 1    
     2    1  127 1    
     3    1  128 1    
     4    1  129 1    
     5    2    3 2    
     6    2    4 am   BACKBONE|DICT|INTERRES
     7    4    5 1    
     8    4  130 1    
     9    5    6 1    
    10    5   65 1    
    11    5  131 1    
    12    6    7 1    
    13    6  132 1    
    14    6  133 1    
    15    7    8 1    
    16    8    9 1    
    17    8  134 1    
    18    8  135 1    
    19    9   10 ar   
    20    9   14 ar   
    21   10   11 ar   
    22   10  136 1    
    23   11   12 ar   
    24   11  126 1    
    25   12   13 ar   
    26   12  137 1    
    27   13   14 ar   
    28   13   15 1    
    29   14  138 1    
    30   15   16 1    
    31   15  139 1    
    32   15  140 1    
    33   16   17 1    
    34   17   18 1    
    35   17  141 1    
    36   17  142 1    
    37   18   19 1    
    38   18   67 1    
    39   18  143 1    
    40   19   20 am   BACKBONE|DICT|INTERRES
    41   19  144 1    
    42   20   21 2    
    43   20   22 1    
    44   22   23 1    
    45   22   24 1    
    46   22  145 1    
    47   23  146 1    
    48   23  147 1    
    49   23  148 1    
    50   24   25 am   BACKBONE|DICT|INTERRES
    51   24  149 1    
    52   25   26 2    
    53   25   27 1    
    54   27   28 1    
    55   27   29 1    
    56   27  150 1    
    57   28  151 1    
    58   28  152 1    
    59   28  153 1    
    60   29   30 am   BACKBONE|DICT|INTERRES
    61   29  154 1    
    62   30   31 2    
    63   30   32 1    
    64   32   33 1    
    65   32   34 1    
    66   32  155 1    
    67   33  156 1    
    68   33  157 1    
    69   33  158 1    
    70   34   35 am   BACKBONE|DICT|INTERRES
    71   34  159 1    
    72   35   36 2    
    73   35   37 1    
    74   37   38 1    
    75   37   39 1    
    76   37  160 1    
    77   38  161 1    
    78   38  162 1    
    79   38  163 1    
    80   39   40 am   BACKBONE|DICT|INTERRES
    81   39  164 1    
    82   40   41 2    
    83   40   42 1    
    84   42   43 1    
    85   42   44 1    
    86   42  165 1    
    87   43  166 1    
    88   43  167 1    
    89   43  168 1    
    90   44   45 am   BACKBONE|DICT|INTERRES
    91   44  169 1    
    92   45   46 2    
    93   45   47 1    
    94   47   48 1    
    95   47   49 1    
    96   47  170 1    
    97   48  171 1    
    98   48  172 1    
    99   48  173 1    
   100   49   50 am   BACKBONE|DICT|INTERRES
   101   49  174 1    
   102   50   51 2    
   103   50   52 1    
   104   52   53 1    
   105   52   54 1    
   106   52  175 1    
   107   53  176 1    
   108   53  177 1    
   109   53  178 1    
   110   54   55 am   BACKBONE|DICT|INTERRES
   111   54  179 1    
   112   55   56 2    
   113   55   57 1    
   114   57   58 1    
   115   57   59 1    
   116   57  180 1    
   117   58  181 1    
   118   58  182 1    
   119   58  183 1    
   120   59   60 am   BACKBONE|DICT|INTERRES
   121   59  184 1    
   122   60   61 2    
   123   60   62 1    
   124   62   63 1    
   125   62   64 1    
   126   62  185 1    
   127   63  186 1    
   128   63  187 1    
   129   63  188 1    
   130   64   65 am   BACKBONE|DICT|INTERRES
   131   64  189 1    
   132   65   66 2    
   133   67   68 2    
   134   67   69 am   BACKBONE|DICT|INTERRES
   135   69   70 1    
   136   69  190 1    
   137   70   71 1    
   138   70   72 1    
   139   70  191 1    
   140   71  192 1    
   141   71  193 1    
   142   71  194 1    
   143   72   73 2    
   144   72   74 am   BACKBONE|DICT|INTERRES
   145   74   75 1    
   146   74  195 1    
   147   75   76 1    
   148   75   77 1    
   149   75  196 1    
   150   76  197 1    
   151   76  198 1    
   152   76  199 1    
   153   77   78 2    
   154   77   79 am   BACKBONE|DICT|INTERRES
   155   79   80 1    
   156   79  200 1    
   157   80   81 1    
   158   80   82 1    
   159   80  201 1    
   160   81  202 1    
   161   81  203 1    
   162   81  204 1    
   163   82   83 2    
   164   82   84 am   BACKBONE|DICT|INTERRES
   165   84   85 1    
   166   84  205 1    
   167   85   86 1    
   168   85   87 1    
   169   85  206 1    
   170   86  207 1    
   171   86  208 1    
   172   86  209 1    
   173   87   88 2    
   174   87   89 am   BACKBONE|DICT|INTERRES
   175   89   90 1    
   176   89  210 1    
   177   90   91 1    
   178   90   92 1    
   179   90  211 1    
   180   91  212 1    
   181   91  213 1    
   182   91  214 1    
   183   92   93 2    
   184   92   94 am   BACKBONE|DICT|INTERRES
   185   94   95 1    
   186   94  215 1    
   187   95   96 1    
   188   95   97 1    
   189   95  216 1    
   190   96  217 1    
   191   96  218 1    
   192   96  219 1    
   193   97   98 2    
   194   97   99 am   BACKBONE|DICT|INTERRES
   195   99  100 1    
   196   99  220 1    
   197  100  101 1    
   198  100  102 1    
   199  100  221 1    
   200  101  222 1    
   201  101  223 1    
   202  101  224 1    
   203  102  103 2    
   204  102  104 am   BACKBONE|DICT|INTERRES
   205  104  105 1    
   206  104  225 1    
   207  105  106 1    
   208  105  107 1    
   209  105  226 1    
   210  106  227 1    
   211  106  228 1    
   212  106  229 1    
   213  107  108 2    
   214  107  109 am   BACKBONE|DICT|INTERRES
   215  109  110 1    
   216  109  230 1    
   217  110  111 1    
   218  110  112 1    
   219  110  231 1    
   220  111  232 1    
   221  111  233 1    
   222  111  234 1    
   223  112  113 2    
   224  112  114 am   BACKBONE|DICT|INTERRES
   225  114  115 1    
   226  114  235 1    
   227  115  116 1    
   228  115  117 1    
   229  115  236 1    
   230  116  237 1    
   231  116  238 1    
   232  116  239 1    
   233  117  118 2    
   234  117  119 am   BACKBONE|DICT|INTERRES
   235  119  120 1    
   236  119  240 1    
   237  120  121 1    
   238  120  124 1    
   239  120  241 1    
   240  121  122 am   BACKBONE|DICT|INTERRES
   241  121  123 2    
   242  122  242 1    
   243  122  243 1    
   244  124  125 1    
   245  124  244 1    
   246  124  245 1    
   247  125  126 1    
   248  126  246 1    
   249  126  247 1    
@<TRIPOS>SUBSTRUCTURE
     1 UNK         1 GROUP             0       ****    0 ROOT    
