@<TRIPOS>MOLECULE
3R540
247   249    1
SMALL
USER_CHARGES


@<TRIPOS>ATOM
      1 CA         -4.2289  -10.8361  -49.8619 C.3       0 UNK        -0.1800 
      2 C          -2.8507  -11.1480  -49.2954 C.2       0 UNK         0.5000 
      3 O          -2.0875  -10.2281  -48.9989 O.2       0 UNK        -0.5000 
      4 N          -2.5277  -12.4391  -49.1539 N.am      1 UNK        -0.5000 
      5 CA         -1.2702  -12.9398  -48.5874 C.3       1 UNK         0.1400 
      6 C6         -1.0708  -14.4525  -48.8604 C.3       23 UNK        -0.0398 
      7 S7         -1.1805  -14.8711  -50.6327 S.3       23 UNK        -0.2404 
      8 C8          0.5709  -15.0906  -51.0747 C.3       23 UNK        -0.0205 
      9 C9          1.0724  -16.4975  -50.7802 C.ar      23 UNK        -0.0193 
     10 C10         0.5984  -17.5734  -51.5361 C.ar      23 UNK        -0.1150 
     11 C11         1.1014  -18.8605  -51.3334 C.ar      23 UNK        -0.0193 
     12 C12         2.0903  -19.0676  -50.3698 C.ar      23 UNK        -0.1150 
     13 C13         2.5610  -18.0067  -49.5923 C.ar      23 UNK        -0.0193 
     14 C14         2.0423  -16.7227  -49.7973 C.ar      23 UNK        -0.1150 
     15 C15         3.6589  -18.2387  -48.5639 C.3       23 UNK        -0.0205 
     16 S16         3.0318  -19.0172  -47.0427 S.3       23 UNK        -0.2404 
     17 C17         3.2694  -20.8005  -47.3625 C.3       23 UNK        -0.0398 
     18 CA          2.0404  -21.6844  -47.0350 C.3       11 UNK         0.1400 
     19 N           1.6161  -21.5704  -45.6345 N.am      11 UNK        -0.5000 
     20 C           0.7460  -22.3993  -45.0390 C.2       10 UNK         0.5000 
     21 O           0.1425  -23.2868  -45.6412 O.2       10 UNK        -0.5000 
     22 CA          0.4863  -22.1979  -43.5349 C.3       10 UNK         0.1400 
     23 CB          0.0994  -23.5059  -42.8149 C.3       10 UNK        -0.1800 
     24 N           1.5702  -21.5094  -42.8333 N.am      10 UNK        -0.5000 
     25 C           2.8222  -21.9299  -42.5986 C.2       9 UNK         0.5000 
     26 O           3.2821  -22.9961  -43.0073 O.2       9 UNK        -0.5000 
     27 CA          3.7069  -20.9960  -41.7471 C.3       9 UNK         0.1400 
     28 CB          4.8273  -20.3688  -42.5941 C.3       9 UNK        -0.1800 
     29 N           2.9077  -19.9367  -41.1180 N.am      9 UNK        -0.5000 
     30 C           2.3604  -20.0393  -39.8977 C.2       8 UNK         0.5000 
     31 O           2.5991  -20.9609  -39.1164 O.2       8 UNK        -0.5000 
     32 CA          1.3442  -18.9561  -39.4915 C.3       8 UNK         0.1400 
     33 CB          2.0569  -17.6880  -39.0069 C.3       8 UNK        -0.1800 
     34 N           0.4023  -18.6143  -40.5610 N.am      8 UNK        -0.5000 
     35 C          -0.5759  -19.4282  -40.9865 C.2       7 UNK         0.5000 
     36 O          -0.7339  -20.5757  -40.5721 O.2       7 UNK        -0.5000 
     37 CA         -1.5353  -18.8883  -42.0576 C.3       7 UNK         0.1400 
     38 CB         -2.6299  -18.0231  -41.4138 C.3       7 UNK        -0.1800 
     39 N          -0.8292  -18.0955  -43.0591 N.am      7 UNK        -0.5000 
     40 C          -0.6797  -18.4361  -44.3454 C.2       6 UNK         0.5000 
     41 O          -1.0900  -19.4827  -44.8527 O.2       6 UNK        -0.5000 
     42 CA          0.0745  -17.4337  -45.2294 C.3       6 UNK         0.1400 
     43 CB         -0.8897  -16.3569  -45.7433 C.3       6 UNK        -0.1800 
     44 N           1.2154  -16.7725  -44.5943 N.am      6 UNK        -0.5000 
     45 C           2.2541  -17.3701  -43.9934 C.2       5 UNK         0.5000 
     46 O           2.2825  -18.5633  -43.6924 O.2       5 UNK        -0.5000 
     47 CA          3.4513  -16.4716  -43.6520 C.3       5 UNK         0.1400 
     48 CB          4.1336  -15.9424  -44.9241 C.3       5 UNK        -0.1800 
     49 N           2.9912  -15.3500  -42.8429 N.am      5 UNK        -0.5000 
     50 C           3.3676  -15.1162  -41.5809 C.2       4 UNK         0.5000 
     51 O           4.3113  -15.6867  -41.0331 O.2       4 UNK        -0.5000 
     52 CA          2.5402  -14.0938  -40.7721 C.3       4 UNK         0.1400 
     53 CB          3.3234  -12.7824  -40.6057 C.3       4 UNK        -0.1800 
     54 N           1.2247  -13.7832  -41.3395 N.am      4 UNK        -0.5000 
     55 C           0.2260  -14.6481  -41.5700 C.2       3 UNK         0.5000 
     56 O           0.2735  -15.8526  -41.3132 O.2       3 UNK        -0.5000 
     57 CA         -1.0123  -14.0804  -42.2861 C.3       3 UNK         0.1400 
     58 CB         -2.0467  -13.5989  -41.2590 C.3       3 UNK        -0.1800 
     59 N          -0.7281  -12.9949  -43.2355 N.am      3 UNK        -0.5000 
     60 C           0.1286  -13.0474  -44.2665 C.2       2 UNK         0.5000 
     61 O           0.8792  -13.9989  -44.4953 O.2       2 UNK        -0.5000 
     62 CA          0.1788  -11.8178  -45.1882 C.3       2 UNK         0.1400 
     63 CB          1.5382  -11.1121  -45.0653 C.3       2 UNK        -0.1800 
     64 N          -0.0507  -12.1816  -46.5878 N.am      2 UNK        -0.5000 
     65 C          -1.2120  -12.6417  -47.0730 C.2       1 UNK         0.5000 
     66 O          -2.2160  -12.8274  -46.3800 O.2       1 UNK        -0.5000 
     67 C           0.8889  -21.4957  -48.0455 C.2       11 UNK         0.5000 
     68 O           0.9081  -22.1350  -49.0975 O.2       11 UNK        -0.5000 
     69 N          -0.0989  -20.6615  -47.6946 N.am      12 UNK        -0.5000 
     70 CA         -1.3197  -20.4660  -48.4720 C.3       12 UNK         0.1400 
     71 CB         -1.6956  -18.9782  -48.4574 C.3       12 UNK        -0.1800 
     72 C          -2.4675  -21.3188  -47.9064 C.2       12 UNK         0.5000 
     73 O          -3.2205  -21.9144  -48.6797 O.2       12 UNK        -0.5000 
     74 N          -2.5760  -21.3760  -46.5689 N.am      13 UNK        -0.5000 
     75 CA         -3.6376  -22.0697  -45.8327 C.3       13 UNK         0.1400 
     76 CB         -3.5282  -21.7244  -44.3407 C.3       13 UNK        -0.1800 
     77 C          -3.6761  -23.5974  -46.0334 C.2       13 UNK         0.5000 
     78 O          -4.7345  -24.1970  -45.8450 O.2       13 UNK        -0.5000 
     79 N          -2.5485  -24.2032  -46.4313 N.am      14 UNK        -0.5000 
     80 CA         -2.4613  -25.6118  -46.8241 C.3       14 UNK         0.1400 
     81 CB         -0.9858  -26.0004  -47.0023 C.3       14 UNK        -0.1800 
     82 C          -3.2619  -25.9414  -48.1013 C.2       14 UNK         0.5000 
     83 O          -3.7028  -27.0814  -48.2542 O.2       14 UNK        -0.5000 
     84 N          -3.4408  -24.9482  -48.9830 N.am      15 UNK        -0.5000 
     85 CA         -4.2656  -25.0432  -50.1838 C.3       15 UNK         0.1400 
     86 CB         -3.5627  -24.3242  -51.3458 C.3       15 UNK        -0.1800 
     87 C          -5.6546  -24.4465  -49.9129 C.2       15 UNK         0.5000 
     88 O          -6.6526  -25.1556  -50.0399 O.2       15 UNK        -0.5000 
     89 N          -5.6836  -23.1567  -49.5377 N.am      16 UNK        -0.5000 
     90 CA         -6.8581  -22.3496  -49.1723 C.3       16 UNK         0.1400 
     91 CB         -7.4435  -22.8373  -47.8314 C.3       16 UNK        -0.1800 
     92 C          -7.9497  -22.2165  -50.2628 C.2       16 UNK         0.5000 
     93 O          -9.0703  -21.8087  -49.9516 O.2       16 UNK        -0.5000 
     94 N          -7.6190  -22.5377  -51.5178 N.am      17 UNK        -0.5000 
     95 CA         -8.5115  -22.5139  -52.6725 C.3       17 UNK         0.1400 
     96 CB         -9.3826  -23.7835  -52.6861 C.3       17 UNK        -0.1800 
     97 C          -7.6645  -22.4158  -53.9475 C.2       17 UNK         0.5000 
     98 O          -6.4659  -22.7057  -53.9014 O.2       17 UNK        -0.5000 
     99 N          -8.3009  -22.0020  -55.0537 N.am      18 UNK        -0.5000 
    100 CA        -7.7210  -21.8323  -56.3944 C.3       18 UNK         0.1400 
    101 CB        -7.3615  -23.2045  -57.0030 C.3       18 UNK        -0.1800 
    102 C         -6.5348  -20.8453  -56.3974 C.2       18 UNK         0.5000 
    103 O         -5.4411  -21.1892  -56.8484 O.2       18 UNK        -0.5000 
    104 N         -6.7650  -19.6555  -55.8177 N.am      19 UNK        -0.5000 
    105 CA        -5.7767  -18.5955  -55.5586 C.3       19 UNK         0.1400 
    106 CB        -5.2779  -17.9732  -56.8796 C.3       19 UNK        -0.1800 
    107 C         -4.6247  -19.0744  -54.6468 C.2       19 UNK         0.5000 
    108 O         -3.4684  -18.6967  -54.8477 O.2       19 UNK        -0.5000 
    109 N         -4.9728  -19.9531  -53.6934 N.am      20 UNK        -0.5000 
    110 CA        -4.0886  -20.6936  -52.7877 C.3       20 UNK         0.1400 
    111 CB        -3.4520  -19.7403  -51.7586 C.3       20 UNK        -0.1800 
    112 C         -3.0464  -21.5632  -53.5257 C.2       20 UNK         0.5000 
    113 O         -1.9598  -21.7906  -52.9981 O.2       20 UNK        -0.5000 
    114 N         -3.3741  -21.9970  -54.7512 N.am      21 UNK        -0.5000 
    115 CA        -2.5433  -22.6989  -55.7373 C.3       21 UNK         0.1400 
    116 CB        -2.0028  -24.0311  -55.1822 C.3       21 UNK        -0.1800 
    117 C         -1.4152  -21.8402  -56.3517 C.2       21 UNK         0.5000 
    118 O         -1.0718  -22.0564  -57.5149 O.2       21 UNK        -0.5000 
    119 N         -0.8645  -20.8877  -55.5889 N.am      22 UNK        -0.5000 
    120 CA         0.1684  -19.9354  -56.0267 C.3       22 UNK         0.1400 
    121 C         -0.3321  -18.8965  -57.0694 C.2       22 UNK         0.5000 
    122 N         -1.5853  -18.4620  -57.0179 N.am      22 UNK        -0.7600 
    123 O          0.4292  -18.4796  -57.9382 O.2       22 UNK        -0.5000 
    124 C124        0.8401  -19.2056  -54.8352 C.3       23 UNK        -0.0398 
    125 S125        1.5845  -20.3516  -53.6236 S.3       23 UNK        -0.2404 
    126 C126        0.5741  -20.0319  -52.1435 C.3       23 UNK        -0.0205 
    127 H127       -4.8072  -10.2556  -49.1431 H         1 UNK         0.0600 
    128 H128       -4.1352  -10.2518  -50.7773 H         1 UNK         0.0600 
    129 H129       -4.7871  -11.7437  -50.0937 H         1 UNK         0.0600 
    130 H130       -3.1988  -13.1487  -49.4097 H         1 UNK         0.3000 
    131 H131       -0.4541  -12.4014  -49.0747 H         1 UNK         0.0600 
    132 H132       -1.8265  -15.0400  -48.3359 H         1 UNK         0.0800 
    133 H133       -0.1032  -14.7840  -48.4814 H         1 UNK         0.0800 
    134 H134        1.1794  -14.3392  -50.5691 H         1 UNK         0.0800 
    135 H135        0.6835  -14.8989  -52.1427 H         1 UNK         0.0800 
    136 H136       -0.1596  -17.4023  -52.2872 H         1 UNK         0.1150 
    137 H137        2.4907  -20.0605  -50.2284 H         1 UNK         0.1150 
    138 H138        2.4146  -15.8943  -49.2111 H         1 UNK         0.1150 
    139 H139        4.4587  -18.8405  -48.9974 H         1 UNK         0.0800 
    140 H140        4.1183  -17.2872  -48.2919 H         1 UNK         0.0800 
    141 H141        4.1135  -21.1266  -46.7535 H         1 UNK         0.0800 
    142 H142        3.5843  -20.9611  -48.3941 H         1 UNK         0.0800 
    143 H143        2.3687  -22.7188  -47.1607 H         1 UNK         0.0600 
    144 H144        2.0475  -20.8378  -45.0869 H         1 UNK         0.3000 
    145 H145       -0.3721  -21.5330  -43.4653 H         1 UNK         0.0600 
    146 H146       -0.0965  -23.3286  -41.7573 H         1 UNK         0.0600 
    147 H147       -0.8069  -23.9363  -43.2429 H         1 UNK         0.0600 
    148 H148        0.8845  -24.2585  -42.8914 H         1 UNK         0.0600 
    149 H149        1.3365  -20.5938  -42.4786 H         1 UNK         0.3000 
    150 H150        4.1812  -21.6080  -40.9772 H         1 UNK         0.0600 
    151 H151        5.5167  -21.1365  -42.9472 H         1 UNK         0.0600 
    152 H152        5.4091  -19.6527  -42.0136 H         1 UNK         0.0600 
    153 H153        4.4441  -19.8557  -43.4751 H         1 UNK         0.0600 
    154 H154        2.6530  -19.1606  -41.7178 H         1 UNK         0.3000 
    155 H155        0.7645  -19.3477  -38.6526 H         1 UNK         0.0600 
    156 H156        2.6776  -17.2643  -39.7923 H         1 UNK         0.0600 
    157 H157        2.7051  -17.9038  -38.1568 H         1 UNK         0.0600 
    158 H158        1.3439  -16.9260  -38.6914 H         1 UNK         0.0600 
    159 H159        0.4380  -17.6585  -40.9060 H         1 UNK         0.3000 
    160 H160       -2.0190  -19.7479  -42.5248 H         1 UNK         0.0600 
    161 H161       -3.3468  -17.6795  -42.1597 H         1 UNK         0.0600 
    162 H162       -2.2143  -17.1440  -40.9200 H         1 UNK         0.0600 
    163 H163       -3.1856  -18.5894  -40.6653 H         1 UNK         0.0600 
    164 H164       -0.3995  -17.2385  -42.7334 H         1 UNK         0.3000 
    165 H165        0.4574  -17.9812  -46.0913 H         1 UNK         0.0600 
    166 H166       -0.3707  -15.6616  -46.3983 H         1 UNK         0.0600 
    167 H167       -1.7188  -16.7841  -46.3042 H         1 UNK         0.0600 
    168 H168       -1.3226  -15.7782  -44.9295 H         1 UNK         0.0600 
    169 H169        1.2508  -15.7648  -44.7265 H         1 UNK         0.3000 
    170 H170        4.1738  -17.0817  -43.1059 H         1 UNK         0.0600 
    171 H171        4.4812  -16.7642  -45.5507 H         1 UNK         0.0600 
    172 H172        5.0035  -15.3344  -44.6755 H         1 UNK         0.0600 
    173 H173        3.4608  -15.3294  -45.5253 H         1 UNK         0.0600 
    174 H174        2.2123  -14.8195  -43.2176 H         1 UNK         0.3000 
    175 H175        2.3762  -14.5255  -39.7829 H         1 UNK         0.0600 
    176 H176        2.7925  -12.0841  -39.9584 H         1 UNK         0.0600 
    177 H177        4.2995  -12.9630  -40.1534 H         1 UNK         0.0600 
    178 H178        3.4919  -12.2916  -41.5652 H         1 UNK         0.0600 
    179 H179        1.0774  -12.8227  -41.6121 H         1 UNK         0.3000 
    180 H180       -1.4611  -14.8998  -42.8480 H         1 UNK         0.0600 
    181 H181       -1.6783  -12.7479  -40.6847 H         1 UNK         0.0600 
    182 H182       -2.2936  -14.3913  -40.5508 H         1 UNK         0.0600 
    183 H183       -2.9759  -13.3002  -41.7448 H         1 UNK         0.0600 
    184 H184       -1.2961  -12.1662  -43.1315 H         1 UNK         0.3000 
    185 H185       -0.6004  -11.1136  -44.8887 H         1 UNK         0.0600 
    186 H186        2.3587  -11.7589  -45.3794 H         1 UNK         0.0600 
    187 H187        1.5707  -10.2087  -45.6747 H         1 UNK         0.0600 
    188 H188        1.7324  -10.8144  -44.0341 H         1 UNK         0.0600 
    189 H189        0.7378  -12.0754  -47.2091 H         1 UNK         0.3000 
    190 H190       -0.0477  -20.2068  -46.7936 H         1 UNK         0.3000 
    191 H191       -1.1539  -20.7611  -49.5098 H         1 UNK         0.0600 
    192 H192       -0.8698  -18.3547  -48.8022 H         1 UNK         0.0600 
    193 H193       -1.9732  -18.6535  -47.4567 H         1 UNK         0.0600 
    194 H194       -2.5473  -18.7811  -49.1084 H         1 UNK         0.0600 
    195 H195       -1.9401  -20.8228  -46.0039 H         1 UNK         0.3000 
    196 H196       -4.5890  -21.6781  -46.1981 H         1 UNK         0.0600 
    197 H197       -4.3388  -22.1823  -43.7723 H         1 UNK         0.0600 
    198 H198       -3.5896  -20.6480  -44.1805 H         1 UNK         0.0600 
    199 H199       -2.5904  -22.0789  -43.9152 H         1 UNK         0.0600 
    200 H200       -1.6877  -23.6671  -46.4688 H         1 UNK         0.3000 
    201 H201       -2.8760  -26.2143  -46.0134 H         1 UNK         0.0600 
    202 H202       -0.4381  -25.9029  -46.0649 H         1 UNK         0.0600 
    203 H203       -0.4924  -25.3737  -47.7465 H         1 UNK         0.0600 
    204 H204       -0.8880  -27.0375  -47.3260 H         1 UNK         0.0600 
    205 H205       -3.0875  -24.0272  -48.7520 H         1 UNK         0.3000 
    206 H206       -4.3996  -26.0873  -50.4746 H         1 UNK         0.0600 
    207 H207       -2.6361  -24.8302  -51.6168 H         1 UNK         0.0600 
    208 H208       -4.1926  -24.3016  -52.2364 H         1 UNK         0.0600 
    209 H209       -3.3104  -23.2954  -51.0898 H         1 UNK         0.0600 
    210 H210       -4.7922  -22.6805  -49.4219 H         1 UNK         0.3000 
    211 H211       -6.4806  -21.3385  -49.0132 H         1 UNK         0.0600 
    212 H212       -7.8570  -23.8429  -47.9129 H         1 UNK         0.0600 
    213 H213       -8.2423  -22.1814  -47.4838 H         1 UNK         0.0600 
    214 H214       -6.6832  -22.8500  -47.0523 H         1 UNK         0.0600 
    215 H215       -6.6781  -22.8444  -51.7262 H         1 UNK         0.3000 
    216 H216       -9.1496  -21.6293  -52.6173 H         1 UNK         0.0600 
    217 H217      -10.0461  -23.7994  -53.5514 H         1 UNK         0.0600 
    218 H218      -10.0109  -23.8431  -51.7973 H         1 UNK         0.0600 
    219 H219       -8.7709  -24.6861  -52.7224 H         1 UNK         0.0600 
    220 H220       -9.2850  -21.7820  -54.9813 H         1 UNK         0.3000 
    221 H221       -8.4955  -21.3865  -57.0204 H         1 UNK         0.0600 
    222 H222       -6.5667  -23.7018  -56.4459 H         1 UNK         0.0600 
    223 H223       -8.2262  -23.8679  -57.0159 H         1 UNK         0.0600 
    224 H224       -7.0199  -23.0970  -58.0332 H         1 UNK         0.0600 
    225 H225       -7.6964  -19.4760  -55.4685 H         1 UNK         0.3000 
    226 H226       -6.2975  -17.8145  -55.0029 H         1 UNK         0.0600 
    227 H227       -6.1114  -17.6379  -57.4965 H         1 UNK         0.0600 
    228 H228       -4.6473  -17.1042  -56.6884 H         1 UNK         0.0600 
    229 H229       -4.6899  -18.6799  -57.4660 H         1 UNK         0.0600 
    230 H230       -5.9436  -20.2263  -53.6570 H         1 UNK         0.3000 
    231 H231       -4.7222  -21.3900  -52.2377 H         1 UNK         0.0600 
    232 H232       -4.2129  -19.1784  -51.2173 H         1 UNK         0.0600 
    233 H233       -2.7758  -19.0251  -52.2275 H         1 UNK         0.0600 
    234 H234       -2.8793  -20.3001  -51.0212 H         1 UNK         0.0600 
    235 H235       -4.2865  -21.7312  -55.1044 H         1 UNK         0.3000 
    236 H236       -3.2218  -22.9418  -56.5566 H         1 UNK         0.0600 
    237 H237       -1.5202  -24.6100  -55.9704 H         1 UNK         0.0600 
    238 H238       -1.2631  -23.8780  -54.3961 H         1 UNK         0.0600 
    239 H239       -2.8066  -24.6435  -54.7734 H         1 UNK         0.0600 
    240 H240       -1.1632  -20.8257  -54.6237 H         1 UNK         0.3000 
    241 H241        0.9441  -20.5207  -56.5246 H         1 UNK         0.0600 
    242 H242       -1.9002  -17.7918  -57.7001 H         1 UNK         0.3800 
    243 H243       -2.2074  -18.7353  -56.2611 H         1 UNK         0.3800 
    244 H244        1.6368  -18.5511  -55.1933 H         1 UNK         0.0800 
    245 H245        0.1184  -18.5552  -54.3398 H         1 UNK         0.0800 
    246 H246        0.5586  -20.9316  -51.5270 H         1 UNK         0.0800 
    247 H247       -0.4598  -19.8449  -52.4286 H         1 UNK         0.0800 
@<TRIPOS>BOND
     1    1    2 1    
     2    1  127 1    
     3    1  128 1    
     4    1  129 1    
     5    2    3 2    
     6    2    4 am   BACKBONE|DICT|INTERRES
     7    4    5 1    
     8    4  130 1    
     9    5    6 1    
    10    5   65 1    
    11    5  131 1    
    12    6    7 1    
    13    6  132 1    
    14    6  133 1    
    15    7    8 1    
    16    8    9 1    
    17    8  134 1    
    18    8  135 1    
    19    9   10 ar   
    20    9   14 ar   
    21   10   11 ar   
    22   10  136 1    
    23   11   12 ar   
    24   11  126 1    
    25   12   13 ar   
    26   12  137 1    
    27   13   14 ar   
    28   13   15 1    
    29   14  138 1    
    30   15   16 1    
    31   15  139 1    
    32   15  140 1    
    33   16   17 1    
    34   17   18 1    
    35   17  141 1    
    36   17  142 1    
    37   18   19 1    
    38   18   67 1    
    39   18  143 1    
    40   19   20 am   BACKBONE|DICT|INTERRES
    41   19  144 1    
    42   20   21 2    
    43   20   22 1    
    44   22   23 1    
    45   22   24 1    
    46   22  145 1    
    47   23  146 1    
    48   23  147 1    
    49   23  148 1    
    50   24   25 am   BACKBONE|DICT|INTERRES
    51   24  149 1    
    52   25   26 2    
    53   25   27 1    
    54   27   28 1    
    55   27   29 1    
    56   27  150 1    
    57   28  151 1    
    58   28  152 1    
    59   28  153 1    
    60   29   30 am   BACKBONE|DICT|INTERRES
    61   29  154 1    
    62   30   31 2    
    63   30   32 1    
    64   32   33 1    
    65   32   34 1    
    66   32  155 1    
    67   33  156 1    
    68   33  157 1    
    69   33  158 1    
    70   34   35 am   BACKBONE|DICT|INTERRES
    71   34  159 1    
    72   35   36 2    
    73   35   37 1    
    74   37   38 1    
    75   37   39 1    
    76   37  160 1    
    77   38  161 1    
    78   38  162 1    
    79   38  163 1    
    80   39   40 am   BACKBONE|DICT|INTERRES
    81   39  164 1    
    82   40   41 2    
    83   40   42 1    
    84   42   43 1    
    85   42   44 1    
    86   42  165 1    
    87   43  166 1    
    88   43  167 1    
    89   43  168 1    
    90   44   45 am   BACKBONE|DICT|INTERRES
    91   44  169 1    
    92   45   46 2    
    93   45   47 1    
    94   47   48 1    
    95   47   49 1    
    96   47  170 1    
    97   48  171 1    
    98   48  172 1    
    99   48  173 1    
   100   49   50 am   BACKBONE|DICT|INTERRES
   101   49  174 1    
   102   50   51 2    
   103   50   52 1    
   104   52   53 1    
   105   52   54 1    
   106   52  175 1    
   107   53  176 1    
   108   53  177 1    
   109   53  178 1    
   110   54   55 am   BACKBONE|DICT|INTERRES
   111   54  179 1    
   112   55   56 2    
   113   55   57 1    
   114   57   58 1    
   115   57   59 1    
   116   57  180 1    
   117   58  181 1    
   118   58  182 1    
   119   58  183 1    
   120   59   60 am   BACKBONE|DICT|INTERRES
   121   59  184 1    
   122   60   61 2    
   123   60   62 1    
   124   62   63 1    
   125   62   64 1    
   126   62  185 1    
   127   63  186 1    
   128   63  187 1    
   129   63  188 1    
   130   64   65 am   BACKBONE|DICT|INTERRES
   131   64  189 1    
   132   65   66 2    
   133   67   68 2    
   134   67   69 am   BACKBONE|DICT|INTERRES
   135   69   70 1    
   136   69  190 1    
   137   70   71 1    
   138   70   72 1    
   139   70  191 1    
   140   71  192 1    
   141   71  193 1    
   142   71  194 1    
   143   72   73 2    
   144   72   74 am   BACKBONE|DICT|INTERRES
   145   74   75 1    
   146   74  195 1    
   147   75   76 1    
   148   75   77 1    
   149   75  196 1    
   150   76  197 1    
   151   76  198 1    
   152   76  199 1    
   153   77   78 2    
   154   77   79 am   BACKBONE|DICT|INTERRES
   155   79   80 1    
   156   79  200 1    
   157   80   81 1    
   158   80   82 1    
   159   80  201 1    
   160   81  202 1    
   161   81  203 1    
   162   81  204 1    
   163   82   83 2    
   164   82   84 am   BACKBONE|DICT|INTERRES
   165   84   85 1    
   166   84  205 1    
   167   85   86 1    
   168   85   87 1    
   169   85  206 1    
   170   86  207 1    
   171   86  208 1    
   172   86  209 1    
   173   87   88 2    
   174   87   89 am   BACKBONE|DICT|INTERRES
   175   89   90 1    
   176   89  210 1    
   177   90   91 1    
   178   90   92 1    
   179   90  211 1    
   180   91  212 1    
   181   91  213 1    
   182   91  214 1    
   183   92   93 2    
   184   92   94 am   BACKBONE|DICT|INTERRES
   185   94   95 1    
   186   94  215 1    
   187   95   96 1    
   188   95   97 1    
   189   95  216 1    
   190   96  217 1    
   191   96  218 1    
   192   96  219 1    
   193   97   98 2    
   194   97   99 am   BACKBONE|DICT|INTERRES
   195   99  100 1    
   196   99  220 1    
   197  100  101 1    
   198  100  102 1    
   199  100  221 1    
   200  101  222 1    
   201  101  223 1    
   202  101  224 1    
   203  102  103 2    
   204  102  104 am   BACKBONE|DICT|INTERRES
   205  104  105 1    
   206  104  225 1    
   207  105  106 1    
   208  105  107 1    
   209  105  226 1    
   210  106  227 1    
   211  106  228 1    
   212  106  229 1    
   213  107  108 2    
   214  107  109 am   BACKBONE|DICT|INTERRES
   215  109  110 1    
   216  109  230 1    
   217  110  111 1    
   218  110  112 1    
   219  110  231 1    
   220  111  232 1    
   221  111  233 1    
   222  111  234 1    
   223  112  113 2    
   224  112  114 am   BACKBONE|DICT|INTERRES
   225  114  115 1    
   226  114  235 1    
   227  115  116 1    
   228  115  117 1    
   229  115  236 1    
   230  116  237 1    
   231  116  238 1    
   232  116  239 1    
   233  117  118 2    
   234  117  119 am   BACKBONE|DICT|INTERRES
   235  119  120 1    
   236  119  240 1    
   237  120  121 1    
   238  120  124 1    
   239  120  241 1    
   240  121  122 am   BACKBONE|DICT|INTERRES
   241  121  123 2    
   242  122  242 1    
   243  122  243 1    
   244  124  125 1    
   245  124  244 1    
   246  124  245 1    
   247  125  126 1    
   248  126  246 1    
   249  126  247 1    
@<TRIPOS>SUBSTRUCTURE
     1 UNK         1 GROUP             0       ****    0 ROOT    
