@<TRIPOS>MOLECULE
3R540
247   249    1
SMALL
USER_CHARGES


@<TRIPOS>ATOM
      1 CA          0.1825  -14.7520  -48.5490 C.3       0 UNK        -0.1800 
      2 C          -0.1455  -14.4353  -47.0980 C.2       0 UNK         0.5000 
      3 O           0.7601  -14.1694  -46.3094 O.2       0 UNK        -0.5000 
      4 N          -1.4373  -14.4375  -46.7411 N.am      1 UNK        -0.5000 
      5 CA         -1.9192  -14.2355  -45.3669 C.3       1 UNK         0.1400 
      6 C6         -3.4061  -14.6368  -45.1880 C.3       23 UNK        -0.0398 
      7 S7         -3.7112  -16.3973  -45.5739 S.3       23 UNK        -0.2404 
      8 C8         -4.6669  -16.3021  -47.1215 C.3       23 UNK        -0.0205 
      9 C9         -4.2504  -17.4008  -48.0862 C.ar      23 UNK        -0.0193 
     10 C10        -5.0513  -18.5303  -48.2875 C.ar      23 UNK        -0.1150 
     11 C11        -4.6538  -19.5357  -49.1826 C.ar      23 UNK        -0.0193 
     12 C12        -3.4457  -19.3922  -49.8683 C.ar      23 UNK        -0.1150 
     13 C13        -2.6272  -18.2834  -49.6542 C.ar      23 UNK        -0.0193 
     14 C14        -3.0422  -17.2844  -48.7747 C.ar      23 UNK        -0.1150 
     15 C15        -1.2816  -18.1754  -50.3496 C.3       23 UNK        -0.0205 
     16 S16        -0.1423  -19.5232  -49.8918 S.3       23 UNK        -0.2404 
     17 C17        -0.0965  -19.4526  -48.0650 C.3       23 UNK        -0.0398 
     18 CA         -0.2850  -20.8552  -47.4303 C.3       11 UNK         0.1400 
     19 N           0.4483  -20.9956  -46.1700 N.am      11 UNK        -0.5000 
     20 C           0.8527  -22.1737  -45.6747 C.2       10 UNK         0.5000 
     21 O           0.5411  -23.2610  -46.1614 O.2       10 UNK        -0.5000 
     22 CA          1.7803  -22.1357  -44.4470 C.3       10 UNK         0.1400 
     23 CB          3.1721  -21.6046  -44.8256 C.3       10 UNK        -0.1800 
     24 N           1.2338  -21.3371  -43.3552 N.am      10 UNK        -0.5000 
     25 C           0.1703  -21.6906  -42.6214 C.2       9 UNK         0.5000 
     26 O          -0.4300  -22.7583  -42.7507 O.2       9 UNK        -0.5000 
     27 CA         -0.3221  -20.6669  -41.5814 C.3       9 UNK         0.1400 
     28 CB          0.4688  -20.8019  -40.2715 C.3       9 UNK        -0.1800 
     29 N          -0.2563  -19.2801  -42.0469 N.am      9 UNK        -0.5000 
     30 C          -0.8812  -18.8096  -43.1359 C.2       8 UNK         0.5000 
     31 O          -1.5567  -19.5006  -43.8934 O.2       8 UNK        -0.5000 
     32 CA         -0.6662  -17.3287  -43.4728 C.3       8 UNK         0.1400 
     33 CB         -1.3646  -16.4265  -42.4383 C.3       8 UNK        -0.1800 
     34 N           0.7520  -16.9926  -43.5702 N.am      8 UNK        -0.5000 
     35 C           1.6175  -17.5587  -44.4252 C.2       7 UNK         0.5000 
     36 O           1.3023  -18.3864  -45.2800 O.2       7 UNK        -0.5000 
     37 CA          3.1001  -17.1931  -44.2463 C.3       7 UNK         0.1400 
     38 CB          3.4333  -15.8655  -44.9427 C.3       7 UNK        -0.1800 
     39 N           3.4748  -17.1244  -42.8335 N.am      7 UNK        -0.5000 
     40 C           3.5051  -18.1794  -42.0054 C.2       6 UNK         0.5000 
     41 O           3.2721  -19.3358  -42.3574 O.2       6 UNK        -0.5000 
     42 CA          3.8009  -17.8789  -40.5251 C.3       6 UNK         0.1400 
     43 CB          5.3120  -17.7346  -40.2904 C.3       6 UNK        -0.1800 
     44 N           3.1183  -16.6698  -40.0612 N.am      6 UNK        -0.5000 
     45 C           1.7891  -16.5593  -39.9237 C.2       5 UNK         0.5000 
     46 O           1.0054  -17.4886  -40.1144 O.2       5 UNK        -0.5000 
     47 CA          1.2436  -15.1649  -39.5577 C.3       5 UNK         0.1400 
     48 CB          1.2061  -14.9825  -38.0333 C.3       5 UNK        -0.1800 
     49 N           2.0160  -14.0739  -40.1613 N.am      5 UNK        -0.5000 
     50 C           2.0943  -13.8485  -41.4789 C.2       4 UNK         0.5000 
     51 O           1.4979  -14.5203  -42.3229 O.2       4 UNK        -0.5000 
     52 CA          3.0511  -12.7398  -41.9318 C.3       4 UNK         0.1400 
     53 CB          4.5041  -13.2592  -41.8923 C.3       4 UNK        -0.1800 
     54 N           2.6877  -12.3318  -43.2864 N.am      4 UNK        -0.5000 
     55 C           3.1949  -11.2914  -43.9568 C.2       3 UNK         0.5000 
     56 O           4.0233  -10.5091  -43.4885 O.2       3 UNK        -0.5000 
     57 CA          2.6866  -11.0819  -45.3930 C.3       3 UNK         0.1400 
     58 CB          3.3699  -12.0584  -46.3633 C.3       3 UNK        -0.1800 
     59 N           1.2316  -11.2067  -45.5039 N.am      3 UNK        -0.5000 
     60 C           0.3718  -10.2573  -45.1007 C.2       2 UNK         0.5000 
     61 O           0.7259   -9.2197  -44.5391 O.2       2 UNK        -0.5000 
     62 CA         -1.1281  -10.4604  -45.3983 C.3       2 UNK         0.1400 
     63 CB         -1.5675   -9.5593  -46.5635 C.3       2 UNK        -0.1800 
     64 N          -1.4725  -11.8422  -45.7261 N.am      2 UNK        -0.5000 
     65 C          -1.6601  -12.8134  -44.8238 C.2       1 UNK         0.5000 
     66 O          -1.6193  -12.6276  -43.6074 O.2       1 UNK        -0.5000 
     67 C          -1.7663  -21.2716  -47.3090 C.2       11 UNK         0.5000 
     68 O          -2.2683  -21.9508  -48.2057 O.2       11 UNK        -0.5000 
     69 N          -2.4299  -20.9285  -46.1911 N.am      12 UNK        -0.5000 
     70 CA         -3.8499  -21.2198  -45.9405 C.3       12 UNK         0.1400 
     71 CB         -4.3191  -20.5262  -44.6538 C.3       12 UNK        -0.1800 
     72 C          -4.1942  -22.7196  -45.8931 C.2       12 UNK         0.5000 
     73 O          -5.3502  -23.0852  -46.1078 O.2       12 UNK        -0.5000 
     74 N          -3.1863  -23.5598  -45.6308 N.am      13 UNK        -0.5000 
     75 CA         -3.2888  -25.0150  -45.6383 C.3       13 UNK         0.1400 
     76 CB         -2.0655  -25.5931  -44.9096 C.3       13 UNK        -0.1800 
     77 C          -3.4125  -25.6231  -47.0512 C.2       13 UNK         0.5000 
     78 O          -3.7919  -26.7910  -47.1535 O.2       13 UNK        -0.5000 
     79 N          -3.0805  -24.8636  -48.1065 N.am      14 UNK        -0.5000 
     80 CA         -3.0476  -25.3531  -49.4811 C.3       14 UNK         0.1400 
     81 CB         -1.7395  -26.1398  -49.7258 C.3       14 UNK        -0.1800 
     82 C          -3.2824  -24.2047  -50.4770 C.2       14 UNK         0.5000 
     83 O          -4.4280  -23.7851  -50.6609 O.2       14 UNK        -0.5000 
     84 N          -2.2093  -23.7630  -51.1415 N.am      15 UNK        -0.5000 
     85 CA         -2.1986  -22.8343  -52.2640 C.3       15 UNK         0.1400 
     86 CB         -2.6227  -23.5935  -53.5354 C.3       15 UNK        -0.1800 
     87 C          -0.7709  -22.2945  -52.4371 C.2       15 UNK         0.5000 
     88 O           0.1775  -22.8996  -51.9280 O.2       15 UNK        -0.5000 
     89 N          -0.6287  -21.2165  -53.2145 N.am      16 UNK        -0.5000 
     90 CA          0.6523  -20.6588  -53.6430 C.3       16 UNK         0.1400 
     91 CB          0.5239  -19.1292  -53.7654 C.3       16 UNK        -0.1800 
     92 C           1.0597  -21.3150  -54.9733 C.2       16 UNK         0.5000 
     93 O           0.9498  -20.6890  -56.0277 O.2       16 UNK        -0.5000 
     94 N           1.4688  -22.5909  -54.9063 N.am      17 UNK        -0.5000 
     95 CA          1.8194  -23.4552  -56.0430 C.3       17 UNK         0.1400 
     96 CB          3.1157  -22.9694  -56.7252 C.3       17 UNK        -0.1800 
     97 C           0.6373  -23.6173  -57.0238 C.2       17 UNK         0.5000 
     98 O           0.7676  -23.3473  -58.2183 O.2       17 UNK        -0.5000 
     99 N          -0.5108  -24.0153  -56.4581 N.am      18 UNK        -0.5000 
    100 CA        -1.8300  -24.2118  -57.0757 C.3       18 UNK         0.1400 
    101 CB        -1.7638  -25.1395  -58.3060 C.3       18 UNK        -0.1800 
    102 C         -2.6097  -22.9145  -57.3768 C.2       18 UNK         0.5000 
    103 O         -3.8114  -22.9997  -57.6337 O.2       18 UNK        -0.5000 
    104 N         -1.9636  -21.7425  -57.3059 N.am      19 UNK        -0.5000 
    105 CA        -2.6294  -20.4433  -57.4011 C.3       19 UNK         0.1400 
    106 CB        -1.6234  -19.3793  -57.8640 C.3       19 UNK        -0.1800 
    107 C         -3.2356  -20.0590  -56.0413 C.2       19 UNK         0.5000 
    108 O         -2.6179  -20.3194  -55.0058 O.2       19 UNK        -0.5000 
    109 N         -4.4230  -19.4363  -56.0726 N.am      20 UNK        -0.5000 
    110 CA        -5.1882  -18.9529  -54.9134 C.3       20 UNK         0.1400 
    111 CB        -4.4807  -17.7365  -54.2774 C.3       20 UNK        -0.1800 
    112 C         -5.5024  -20.0629  -53.8849 C.2       20 UNK         0.5000 
    113 O         -5.4124  -19.8307  -52.6803 O.2       20 UNK        -0.5000 
    114 N         -5.8238  -21.2631  -54.3866 N.am      21 UNK        -0.5000 
    115 CA        -6.0367  -22.4697  -53.5909 C.3       21 UNK         0.1400 
    116 CB        -6.1308  -23.6785  -54.5353 C.3       21 UNK        -0.1800 
    117 C         -7.2766  -22.3926  -52.6841 C.2       21 UNK         0.5000 
    118 O         -8.3308  -21.9269  -53.1241 O.2       21 UNK        -0.5000 
    119 N         -7.1247  -22.8909  -51.4532 N.am      22 UNK        -0.5000 
    120 CA        -8.1823  -22.9654  -50.4313 C.3       22 UNK         0.1400 
    121 C         -8.8608  -24.3646  -50.3493 C.2       22 UNK         0.5000 
    122 N         -8.4479  -25.3575  -51.1286 N.am      22 UNK        -0.7600 
    123 O         -9.7960  -24.5514  -49.5756 O.2       22 UNK        -0.5000 
    124 C124       -7.6564  -22.5159  -49.0431 C.3       23 UNK        -0.0398 
    125 S125       -7.2156  -20.7446  -48.9919 S.3       23 UNK        -0.2404 
    126 C126       -5.4391  -20.8298  -49.3890 C.3       23 UNK        -0.0205 
    127 H127        0.6546  -15.7321  -48.6177 H         1 UNK         0.0600 
    128 H128        0.8752  -14.0104  -48.9470 H         1 UNK         0.0600 
    129 H129       -0.7087  -14.7525  -49.1763 H         1 UNK         0.0600 
    130 H130       -2.1470  -14.6406  -47.4283 H         1 UNK         0.3000 
    131 H131       -1.3183  -14.8920  -44.7426 H         1 UNK         0.0600 
    132 H132       -3.7136  -14.4844  -44.1517 H         1 UNK         0.0800 
    133 H133       -4.0556  -13.9977  -45.7878 H         1 UNK         0.0800 
    134 H134       -4.5207  -15.3367  -47.6072 H         1 UNK         0.0800 
    135 H135       -5.7308  -16.3713  -46.8899 H         1 UNK         0.0800 
    136 H136       -5.9709  -18.6286  -47.7297 H         1 UNK         0.1150 
    137 H137       -3.1167  -20.1711  -50.5411 H         1 UNK         0.1150 
    138 H138       -2.4131  -16.4242  -48.6065 H         1 UNK         0.1150 
    139 H139       -1.4486  -18.1986  -51.4267 H         1 UNK         0.0800 
    140 H140       -0.8027  -17.2203  -50.1323 H         1 UNK         0.0800 
    141 H141       -0.8122  -18.7329  -47.6656 H         1 UNK         0.0800 
    142 H142        0.8871  -19.0569  -47.8099 H         1 UNK         0.0800 
    143 H143        0.1714  -21.5738  -48.1157 H         1 UNK         0.0600 
    144 H144        0.7313  -20.1323  -45.7114 H         1 UNK         0.3000 
    145 H145        1.9007  -23.1607  -44.0897 H         1 UNK         0.0600 
    146 H146        3.8593  -21.6687  -43.9817 H         1 UNK         0.0600 
    147 H147        3.6038  -22.1848  -45.6419 H         1 UNK         0.0600 
    148 H148        3.1352  -20.5626  -45.1451 H         1 UNK         0.0600 
    149 H149        1.6998  -20.4597  -43.1509 H         1 UNK         0.3000 
    150 H150       -1.3701  -20.8908  -41.3722 H         1 UNK         0.0600 
    151 H151        0.4261  -21.8232  -39.8912 H         1 UNK         0.0600 
    152 H152        0.0640  -20.1492  -39.4979 H         1 UNK         0.0600 
    153 H153        1.5196  -20.5446  -40.4093 H         1 UNK         0.0600 
    154 H154        0.2776  -18.6344  -41.4710 H         1 UNK         0.3000 
    155 H155       -1.1044  -17.1471  -44.4546 H         1 UNK         0.0600 
    156 H156       -1.1036  -16.6936  -41.4155 H         1 UNK         0.0600 
    157 H157       -2.4480  -16.5135  -42.5258 H         1 UNK         0.0600 
    158 H158       -1.1093  -15.3759  -42.5696 H         1 UNK         0.0600 
    159 H159        1.0908  -16.2642  -42.9483 H         1 UNK         0.3000 
    160 H160        3.6956  -17.9793  -44.7151 H         1 UNK         0.0600 
    161 H161        2.8685  -15.0344  -44.5223 H         1 UNK         0.0600 
    162 H162        3.1919  -15.9136  -46.0054 H         1 UNK         0.0600 
    163 H163        4.4938  -15.6280  -44.8596 H         1 UNK         0.0600 
    164 H164        3.6372  -16.2060  -42.4518 H         1 UNK         0.3000 
    165 H165        3.4418  -18.7240  -39.9338 H         1 UNK         0.0600 
    166 H166        5.5344  -17.5937  -39.2325 H         1 UNK         0.0600 
    167 H167        5.8439  -18.6293  -40.6169 H         1 UNK         0.0600 
    168 H168        5.7280  -16.8873  -40.8370 H         1 UNK         0.0600 
    169 H169        3.6926  -15.8624  -39.8709 H         1 UNK         0.3000 
    170 H170        0.2203  -15.1015  -39.9337 H         1 UNK         0.0600 
    171 H171        0.6193  -15.7715  -37.5607 H         1 UNK         0.0600 
    172 H172        2.2057  -15.0112  -37.5980 H         1 UNK         0.0600 
    173 H173        0.7477  -14.0315  -37.7612 H         1 UNK         0.0600 
    174 H174        2.5365  -13.4844  -39.5274 H         1 UNK         0.3000 
    175 H175        2.9400  -11.8851  -41.2617 H         1 UNK         0.0600 
    176 H176        4.6588  -14.0728  -42.6017 H         1 UNK         0.0600 
    177 H177        5.2195  -12.4725  -42.1302 H         1 UNK         0.0600 
    178 H178        4.7662  -13.6318  -40.9014 H         1 UNK         0.0600 
    179 H179        1.9859  -12.9188  -43.7219 H         1 UNK         0.3000 
    180 H180        2.9655  -10.0709  -45.6982 H         1 UNK         0.0600 
    181 H181        3.1665  -13.0972  -46.1052 H         1 UNK         0.0600 
    182 H182        4.4524  -11.9263  -46.3486 H         1 UNK         0.0600 
    183 H183        3.0359  -11.8965  -47.3882 H         1 UNK         0.0600 
    184 H184        0.8779  -12.0647  -45.9102 H         1 UNK         0.3000 
    185 H185       -1.6834  -10.1569  -44.5081 H         1 UNK         0.0600 
    186 H186       -1.3616   -8.5102  -46.3468 H         1 UNK         0.0600 
    187 H187       -1.0454   -9.8120  -47.4872 H         1 UNK         0.0600 
    188 H188       -2.6385   -9.6463  -46.7476 H         1 UNK         0.0600 
    189 H189       -1.5179  -12.0810  -46.7059 H         1 UNK         0.3000 
    190 H190       -1.9518  -20.4038  -45.4605 H         1 UNK         0.3000 
    191 H191       -4.4196  -20.7878  -46.7585 H         1 UNK         0.0600 
    192 H192       -3.7984  -20.9119  -43.7768 H         1 UNK         0.0600 
    193 H193       -5.3870  -20.6801  -44.4944 H         1 UNK         0.0600 
    194 H194       -4.1537  -19.4498  -44.7037 H         1 UNK         0.0600 
    195 H195       -2.2667  -23.1700  -45.4778 H         1 UNK         0.3000 
    196 H196       -4.1834  -25.2987  -45.0800 H         1 UNK         0.0600 
    197 H197       -2.1286  -26.6796  -44.8384 H         1 UNK         0.0600 
    198 H198       -1.9895  -25.2049  -43.8935 H         1 UNK         0.0600 
    199 H199       -1.1379  -25.3518  -45.4300 H         1 UNK         0.0600 
    200 H200       -2.8203  -23.8899  -47.9741 H         1 UNK         0.3000 
    201 H201       -3.8827  -26.0406  -49.6320 H         1 UNK         0.0600 
    202 H202       -1.7010  -27.0377  -49.1090 H         1 UNK         0.0600 
    203 H203       -0.8563  -25.5442  -49.4917 H         1 UNK         0.0600 
    204 H204       -1.6615  -26.4661  -50.7639 H         1 UNK         0.0600 
    205 H205       -1.2893  -24.1039  -50.8912 H         1 UNK         0.3000 
    206 H206       -2.8811  -22.0060  -52.0639 H         1 UNK         0.0600 
    207 H207       -2.7881  -22.9060  -54.3638 H         1 UNK         0.0600 
    208 H208       -1.8622  -24.3123  -53.8411 H         1 UNK         0.0600 
    209 H209       -3.5435  -24.1547  -53.3873 H         1 UNK         0.0600 
    210 H210       -1.4449  -20.8364  -53.6926 H         1 UNK         0.3000 
    211 H211        1.4292  -20.8711  -52.9056 H         1 UNK         0.0600 
    212 H212       -0.3021  -18.8408  -54.4167 H         1 UNK         0.0600 
    213 H213        1.4351  -18.6918  -54.1751 H         1 UNK         0.0600 
    214 H214        0.3618  -18.6700  -52.7926 H         1 UNK         0.0600 
    215 H215        1.4969  -23.0267  -53.9932 H         1 UNK         0.3000 
    216 H216        2.0185  -24.4463  -55.6325 H         1 UNK         0.0600 
    217 H217        3.4302  -23.6664  -57.5027 H         1 UNK         0.0600 
    218 H218        3.9330  -22.8933  -56.0081 H         1 UNK         0.0600 
    219 H219        2.9905  -21.9933  -57.1947 H         1 UNK         0.0600 
    220 H220       -0.4864  -24.1795  -55.4625 H         1 UNK         0.3000 
    221 H221       -2.4199  -24.7356  -56.3223 H         1 UNK         0.0600 
    222 H222       -1.2734  -24.6615  -59.1541 H         1 UNK         0.0600 
    223 H223       -1.2272  -26.0608  -58.0796 H         1 UNK         0.0600 
    224 H224       -2.7657  -25.4204  -58.6327 H         1 UNK         0.0600 
    225 H225       -0.9836  -21.7298  -57.0568 H         1 UNK         0.3000 
    226 H226       -3.4244  -20.5029  -58.1476 H         1 UNK         0.0600 
    227 H227       -1.1256  -19.6778  -58.7867 H         1 UNK         0.0600 
    228 H228       -2.1254  -18.4304  -58.0562 H         1 UNK         0.0600 
    229 H229       -0.8563  -19.1914  -57.1131 H         1 UNK         0.0600 
    230 H230       -4.8545  -19.2740  -56.9719 H         1 UNK         0.3000 
    231 H231       -6.1512  -18.6122  -55.2960 H         1 UNK         0.0600 
    232 H232       -4.2850  -16.9615  -55.0183 H         1 UNK         0.0600 
    233 H233       -3.5289  -18.0141  -53.8227 H         1 UNK         0.0600 
    234 H234       -5.0966  -17.2893  -53.4962 H         1 UNK         0.0600 
    235 H235       -5.8886  -21.3652  -55.3883 H         1 UNK         0.3000 
    236 H236       -5.1613  -22.5881  -52.9535 H         1 UNK         0.0600 
    237 H237       -7.0034  -23.6118  -55.1863 H         1 UNK         0.0600 
    238 H238       -5.2478  -23.7580  -55.1698 H         1 UNK         0.0600 
    239 H239       -6.2107  -24.6089  -53.9720 H         1 UNK         0.0600 
    240 H240       -6.2152  -23.2511  -51.1730 H         1 UNK         0.3000 
    241 H241       -8.9869  -22.2804  -50.7044 H         1 UNK         0.0600 
    242 H242       -8.9021  -26.2556  -51.0707 H         1 UNK         0.3800 
    243 H243       -7.6889  -25.2195  -51.7754 H         1 UNK         0.3800 
    244 H244       -8.4187  -22.6658  -48.2767 H         1 UNK         0.0800 
    245 H245       -6.8033  -23.1239  -48.7363 H         1 UNK         0.0800 
    246 H246       -5.3388  -21.1403  -50.4280 H         1 UNK         0.0800 
    247 H247       -4.9717  -21.6175  -48.7987 H         1 UNK         0.0800 
@<TRIPOS>BOND
     1    1    2 1    
     2    1  127 1    
     3    1  128 1    
     4    1  129 1    
     5    2    3 2    
     6    2    4 am   BACKBONE|DICT|INTERRES
     7    4    5 1    
     8    4  130 1    
     9    5    6 1    
    10    5   65 1    
    11    5  131 1    
    12    6    7 1    
    13    6  132 1    
    14    6  133 1    
    15    7    8 1    
    16    8    9 1    
    17    8  134 1    
    18    8  135 1    
    19    9   10 ar   
    20    9   14 ar   
    21   10   11 ar   
    22   10  136 1    
    23   11   12 ar   
    24   11  126 1    
    25   12   13 ar   
    26   12  137 1    
    27   13   14 ar   
    28   13   15 1    
    29   14  138 1    
    30   15   16 1    
    31   15  139 1    
    32   15  140 1    
    33   16   17 1    
    34   17   18 1    
    35   17  141 1    
    36   17  142 1    
    37   18   19 1    
    38   18   67 1    
    39   18  143 1    
    40   19   20 am   BACKBONE|DICT|INTERRES
    41   19  144 1    
    42   20   21 2    
    43   20   22 1    
    44   22   23 1    
    45   22   24 1    
    46   22  145 1    
    47   23  146 1    
    48   23  147 1    
    49   23  148 1    
    50   24   25 am   BACKBONE|DICT|INTERRES
    51   24  149 1    
    52   25   26 2    
    53   25   27 1    
    54   27   28 1    
    55   27   29 1    
    56   27  150 1    
    57   28  151 1    
    58   28  152 1    
    59   28  153 1    
    60   29   30 am   BACKBONE|DICT|INTERRES
    61   29  154 1    
    62   30   31 2    
    63   30   32 1    
    64   32   33 1    
    65   32   34 1    
    66   32  155 1    
    67   33  156 1    
    68   33  157 1    
    69   33  158 1    
    70   34   35 am   BACKBONE|DICT|INTERRES
    71   34  159 1    
    72   35   36 2    
    73   35   37 1    
    74   37   38 1    
    75   37   39 1    
    76   37  160 1    
    77   38  161 1    
    78   38  162 1    
    79   38  163 1    
    80   39   40 am   BACKBONE|DICT|INTERRES
    81   39  164 1    
    82   40   41 2    
    83   40   42 1    
    84   42   43 1    
    85   42   44 1    
    86   42  165 1    
    87   43  166 1    
    88   43  167 1    
    89   43  168 1    
    90   44   45 am   BACKBONE|DICT|INTERRES
    91   44  169 1    
    92   45   46 2    
    93   45   47 1    
    94   47   48 1    
    95   47   49 1    
    96   47  170 1    
    97   48  171 1    
    98   48  172 1    
    99   48  173 1    
   100   49   50 am   BACKBONE|DICT|INTERRES
   101   49  174 1    
   102   50   51 2    
   103   50   52 1    
   104   52   53 1    
   105   52   54 1    
   106   52  175 1    
   107   53  176 1    
   108   53  177 1    
   109   53  178 1    
   110   54   55 am   BACKBONE|DICT|INTERRES
   111   54  179 1    
   112   55   56 2    
   113   55   57 1    
   114   57   58 1    
   115   57   59 1    
   116   57  180 1    
   117   58  181 1    
   118   58  182 1    
   119   58  183 1    
   120   59   60 am   BACKBONE|DICT|INTERRES
   121   59  184 1    
   122   60   61 2    
   123   60   62 1    
   124   62   63 1    
   125   62   64 1    
   126   62  185 1    
   127   63  186 1    
   128   63  187 1    
   129   63  188 1    
   130   64   65 am   BACKBONE|DICT|INTERRES
   131   64  189 1    
   132   65   66 2    
   133   67   68 2    
   134   67   69 am   BACKBONE|DICT|INTERRES
   135   69   70 1    
   136   69  190 1    
   137   70   71 1    
   138   70   72 1    
   139   70  191 1    
   140   71  192 1    
   141   71  193 1    
   142   71  194 1    
   143   72   73 2    
   144   72   74 am   BACKBONE|DICT|INTERRES
   145   74   75 1    
   146   74  195 1    
   147   75   76 1    
   148   75   77 1    
   149   75  196 1    
   150   76  197 1    
   151   76  198 1    
   152   76  199 1    
   153   77   78 2    
   154   77   79 am   BACKBONE|DICT|INTERRES
   155   79   80 1    
   156   79  200 1    
   157   80   81 1    
   158   80   82 1    
   159   80  201 1    
   160   81  202 1    
   161   81  203 1    
   162   81  204 1    
   163   82   83 2    
   164   82   84 am   BACKBONE|DICT|INTERRES
   165   84   85 1    
   166   84  205 1    
   167   85   86 1    
   168   85   87 1    
   169   85  206 1    
   170   86  207 1    
   171   86  208 1    
   172   86  209 1    
   173   87   88 2    
   174   87   89 am   BACKBONE|DICT|INTERRES
   175   89   90 1    
   176   89  210 1    
   177   90   91 1    
   178   90   92 1    
   179   90  211 1    
   180   91  212 1    
   181   91  213 1    
   182   91  214 1    
   183   92   93 2    
   184   92   94 am   BACKBONE|DICT|INTERRES
   185   94   95 1    
   186   94  215 1    
   187   95   96 1    
   188   95   97 1    
   189   95  216 1    
   190   96  217 1    
   191   96  218 1    
   192   96  219 1    
   193   97   98 2    
   194   97   99 am   BACKBONE|DICT|INTERRES
   195   99  100 1    
   196   99  220 1    
   197  100  101 1    
   198  100  102 1    
   199  100  221 1    
   200  101  222 1    
   201  101  223 1    
   202  101  224 1    
   203  102  103 2    
   204  102  104 am   BACKBONE|DICT|INTERRES
   205  104  105 1    
   206  104  225 1    
   207  105  106 1    
   208  105  107 1    
   209  105  226 1    
   210  106  227 1    
   211  106  228 1    
   212  106  229 1    
   213  107  108 2    
   214  107  109 am   BACKBONE|DICT|INTERRES
   215  109  110 1    
   216  109  230 1    
   217  110  111 1    
   218  110  112 1    
   219  110  231 1    
   220  111  232 1    
   221  111  233 1    
   222  111  234 1    
   223  112  113 2    
   224  112  114 am   BACKBONE|DICT|INTERRES
   225  114  115 1    
   226  114  235 1    
   227  115  116 1    
   228  115  117 1    
   229  115  236 1    
   230  116  237 1    
   231  116  238 1    
   232  116  239 1    
   233  117  118 2    
   234  117  119 am   BACKBONE|DICT|INTERRES
   235  119  120 1    
   236  119  240 1    
   237  120  121 1    
   238  120  124 1    
   239  120  241 1    
   240  121  122 am   BACKBONE|DICT|INTERRES
   241  121  123 2    
   242  122  242 1    
   243  122  243 1    
   244  124  125 1    
   245  124  244 1    
   246  124  245 1    
   247  125  126 1    
   248  126  246 1    
   249  126  247 1    
@<TRIPOS>SUBSTRUCTURE
     1 UNK         1 GROUP             0       ****    0 ROOT    
