@<TRIPOS>MOLECULE
3R540
247   249    1
SMALL
USER_CHARGES


@<TRIPOS>ATOM
      1 CA          6.3930  -10.7639  -46.3690 C.3       0 UNK        -0.1800 
      2 C           5.1199  -11.5933  -46.4385 C.2       0 UNK         0.5000 
      3 O           4.1501  -11.2819  -45.7493 O.2       0 UNK        -0.5000 
      4 N           5.1078  -12.6334  -47.2830 N.am      1 UNK        -0.5000 
      5 CA          4.0015  -13.5856  -47.4734 C.3       1 UNK         0.1400 
      6 C6          4.4301  -14.7233  -48.4344 C.3       23 UNK        -0.0398 
      7 S7          3.4150  -16.2316  -48.2836 S.3       23 UNK        -0.2404 
      8 C8          3.0556  -16.5706  -50.0349 C.3       23 UNK        -0.0205 
      9 C9          2.1422  -17.7756  -50.1761 C.ar      23 UNK        -0.0193 
     10 C10         0.7635  -17.5971  -50.3123 C.ar      23 UNK        -0.1150 
     11 C11        -0.0905  -18.7002  -50.3859 C.ar      23 UNK        -0.0193 
     12 C12         0.4473  -19.9894  -50.3305 C.ar      23 UNK        -0.1150 
     13 C13         1.8272  -20.1821  -50.2172 C.ar      23 UNK        -0.0193 
     14 C14         2.6710  -19.0694  -50.1482 C.ar      23 UNK        -0.1150 
     15 C15         2.3955  -21.5942  -50.1470 C.3       23 UNK        -0.0205 
     16 S16         3.3007  -21.9337  -48.5973 S.3       23 UNK        -0.2404 
     17 C17         2.1038  -21.4351  -47.3106 C.3       23 UNK        -0.0398 
     18 CA          1.2966  -22.6000  -46.6937 C.3       11 UNK         0.1400 
     19 N           0.6052  -22.1675  -45.4784 N.am      11 UNK        -0.5000 
     20 C          -0.0614  -22.9638  -44.6331 C.2       10 UNK         0.5000 
     21 O          -0.1239  -24.1872  -44.7497 O.2       10 UNK        -0.5000 
     22 CA         -0.8244  -22.2681  -43.4903 C.3       10 UNK         0.1400 
     23 CB          0.1229  -21.9136  -42.3347 C.3       10 UNK        -0.1800 
     24 N          -1.5318  -21.0656  -43.9366 N.am      10 UNK        -0.5000 
     25 C          -2.5407  -21.0706  -44.8203 C.2       9 UNK         0.5000 
     26 O          -3.0112  -22.0961  -45.3116 O.2       9 UNK        -0.5000 
     27 CA         -3.0903  -19.7041  -45.2672 C.3       9 UNK         0.1400 
     28 CB         -4.0685  -19.1389  -44.2276 C.3       9 UNK        -0.1800 
     29 N          -2.0377  -18.7262  -45.5436 N.am      9 UNK        -0.5000 
     30 C          -1.1095  -18.8643  -46.5013 C.2       8 UNK         0.5000 
     31 O          -1.0650  -19.8237  -47.2691 O.2       8 UNK        -0.5000 
     32 CA         -0.0154  -17.7830  -46.5744 C.3       8 UNK         0.1400 
     33 CB         -0.5506  -16.5017  -47.2286 C.3       8 UNK        -0.1800 
     34 N           0.5409  -17.4653  -45.2589 N.am      8 UNK        -0.5000 
     35 C           1.1586  -18.3461  -44.4592 C.2       7 UNK         0.5000 
     36 O           1.3893  -19.5131  -44.7705 O.2       7 UNK        -0.5000 
     37 CA          1.5218  -17.8610  -43.0476 C.3       7 UNK         0.1400 
     38 CB          2.8426  -17.0766  -43.0557 C.3       7 UNK        -0.1800 
     39 N           0.4519  -17.0461  -42.4715 N.am      7 UNK        -0.5000 
     40 C          -0.7312  -17.5350  -42.0712 C.2       6 UNK         0.5000 
     41 O          -1.0238  -18.7304  -42.1091 O.2       6 UNK        -0.5000 
     42 CA         -1.7749  -16.5135  -41.5816 C.3       6 UNK         0.1400 
     43 CB         -1.5381  -16.1624  -40.1054 C.3       6 UNK        -0.1800 
     44 N          -1.7792  -15.2854  -42.3780 N.am      6 UNK        -0.5000 
     45 C          -2.1603  -15.2190  -43.6614 C.2       5 UNK         0.5000 
     46 O          -2.5979  -16.1808  -44.2909 O.2       5 UNK        -0.5000 
     47 CA         -1.9821  -13.8647  -44.3754 C.3       5 UNK         0.1400 
     48 CB         -3.2403  -12.9998  -44.2120 C.3       5 UNK        -0.1800 
     49 N          -0.8133  -13.1027  -43.9285 N.am      5 UNK        -0.5000 
     50 C           0.4556  -13.5289  -43.9600 C.2       4 UNK         0.5000 
     51 O           0.7857  -14.6514  -44.3464 O.2       4 UNK        -0.5000 
     52 CA          1.5174  -12.5290  -43.4626 C.3       4 UNK         0.1400 
     53 CB          2.8920  -13.1861  -43.2471 C.3       4 UNK        -0.1800 
     54 N           1.6719  -11.4076  -44.3859 N.am      4 UNK        -0.5000 
     55 C           0.8318  -10.3723  -44.5142 C.2       3 UNK         0.5000 
     56 O          -0.1939  -10.2395  -43.8441 O.2       3 UNK        -0.5000 
     57 CA          1.1916   -9.3182  -45.5735 C.3       3 UNK         0.1400 
     58 CB          2.2499   -8.3449  -45.0307 C.3       3 UNK        -0.1800 
     59 N           1.6957   -9.9472  -46.7942 N.am      3 UNK        -0.5000 
     60 C           0.9441  -10.2428  -47.8638 C.2       2 UNK         0.5000 
     61 O          -0.2534   -9.9693  -47.9536 O.2       2 UNK        -0.5000 
     62 CA          1.6405  -10.9590  -49.0402 C.3       2 UNK         0.1400 
     63 CB          2.1166   -9.9372  -50.0841 C.3       2 UNK        -0.1800 
     64 N           2.7784  -11.7841  -48.6307 N.am      2 UNK        -0.5000 
     65 C           2.6779  -12.9158  -47.9183 C.2       1 UNK         0.5000 
     66 O           1.6007  -13.4039  -47.5797 O.2       1 UNK        -0.5000 
     67 C           0.3189  -23.2364  -47.7036 C.2       11 UNK         0.5000 
     68 O           0.5945  -24.3264  -48.2052 O.2       11 UNK        -0.5000 
     69 N          -0.8247  -22.5783  -47.9459 N.am      12 UNK        -0.5000 
     70 CA         -1.9055  -23.0857  -48.7911 C.3       12 UNK         0.1400 
     71 CB         -2.9945  -22.0181  -48.9560 C.3       12 UNK        -0.1800 
     72 C          -2.5015  -24.3999  -48.2619 C.2       12 UNK         0.5000 
     73 O          -2.6660  -25.3368  -49.0404 O.2       12 UNK        -0.5000 
     74 N          -2.7583  -24.4708  -46.9479 N.am      13 UNK        -0.5000 
     75 CA         -3.2448  -25.6704  -46.2649 C.3       13 UNK         0.1400 
     76 CB         -3.5669  -25.3420  -44.7996 C.3       13 UNK        -0.1800 
     77 C          -2.2659  -26.8555  -46.3622 C.2       13 UNK         0.5000 
     78 O          -2.7008  -27.9739  -46.6372 O.2       13 UNK        -0.5000 
     79 N          -0.9639  -26.5862  -46.1871 N.am      14 UNK        -0.5000 
     80 CA          0.1178  -27.5617  -46.3463 C.3       14 UNK         0.1400 
     81 CB          1.4353  -26.9538  -45.8420 C.3       14 UNK        -0.1800 
     82 C           0.2668  -28.0644  -47.7959 C.2       14 UNK         0.5000 
     83 O           0.5292  -29.2494  -48.0046 O.2       14 UNK        -0.5000 
     84 N           0.0652  -27.1655  -48.7684 N.am      15 UNK        -0.5000 
     85 CA          0.0543  -27.4628  -50.2028 C.3       15 UNK         0.1400 
     86 CB          0.2739  -26.1526  -50.9774 C.3       15 UNK        -0.1800 
     87 C          -1.2373  -28.1602  -50.6831 C.2       15 UNK         0.5000 
     88 O          -1.2698  -28.6347  -51.8193 O.2       15 UNK        -0.5000 
     89 N          -2.2720  -28.1924  -49.8293 N.am      16 UNK        -0.5000 
     90 CA         -3.6379  -28.6619  -50.0856 C.3       16 UNK         0.1400 
     91 CB         -3.6625  -30.1788  -50.3672 C.3       16 UNK        -0.1800 
     92 C          -4.3578  -27.8237  -51.1655 C.2       16 UNK         0.5000 
     93 O          -5.0946  -28.3679  -51.9906 O.2       16 UNK        -0.5000 
     94 N          -4.1223  -26.5082  -51.1345 N.am      17 UNK        -0.5000 
     95 CA         -4.6989  -25.5040  -52.0207 C.3       17 UNK         0.1400 
     96 CB         -3.5460  -24.6816  -52.6212 C.3       17 UNK        -0.1800 
     97 C          -5.6448  -24.5854  -51.2301 C.2       17 UNK         0.5000 
     98 O          -5.5760  -24.5260  -49.9999 O.2       17 UNK        -0.5000 
     99 N          -6.4961  -23.8525  -51.9557 N.am      18 UNK        -0.5000 
    100 CA        -7.3066  -22.7700  -51.4038 C.3       18 UNK         0.1400 
    101 CB        -8.5204  -22.5279  -52.3152 C.3       18 UNK        -0.1800 
    102 C         -6.4505  -21.4985  -51.2999 C.2       18 UNK         0.5000 
    103 O         -5.8223  -21.1148  -52.2882 O.2       18 UNK        -0.5000 
    104 N         -6.4655  -20.8436  -50.1314 N.am      19 UNK        -0.5000 
    105 CA        -5.7107  -19.6122  -49.8673 C.3       19 UNK         0.1400 
    106 CB        -5.8094  -19.2652  -48.3749 C.3       19 UNK        -0.1800 
    107 C         -6.1558  -18.4202  -50.7378 C.2       19 UNK         0.5000 
    108 O         -5.3453  -17.5437  -51.0356 O.2       19 UNK        -0.5000 
    109 N         -7.4202  -18.4341  -51.1814 N.am      20 UNK        -0.5000 
    110 CA        -8.0077  -17.4573  -52.1010 C.3       20 UNK         0.1400 
    111 CB        -9.5140  -17.7367  -52.2183 C.3       20 UNK        -0.1800 
    112 C         -7.3547  -17.4333  -53.4999 C.2       20 UNK         0.5000 
    113 O         -7.4828  -16.4301  -54.2026 O.2       20 UNK        -0.5000 
    114 N         -6.6642  -18.5182  -53.8806 N.am      21 UNK        -0.5000 
    115 CA        -5.9379  -18.6346  -55.1455 C.3       21 UNK         0.1400 
    116 CB        -5.8159  -20.1231  -55.5107 C.3       21 UNK        -0.1800 
    117 C         -4.5448  -17.9717  -55.1145 C.2       21 UNK         0.5000 
    118 O         -3.9277  -17.8453  -56.1735 O.2       21 UNK        -0.5000 
    119 N         -4.0611  -17.5813  -53.9281 N.am      22 UNK        -0.5000 
    120 CA        -2.7018  -17.0605  -53.7063 C.3       22 UNK         0.1400 
    121 C         -2.6228  -15.8286  -52.7628 C.2       22 UNK         0.5000 
    122 N         -3.5973  -15.5692  -51.9014 N.am      22 UNK        -0.7600 
    123 O         -1.6590  -15.0710  -52.8310 O.2       22 UNK        -0.5000 
    124 C124       -1.7062  -18.1799  -53.2958 C.3       23 UNK        -0.0398 
    125 S125       -2.3146  -19.2738  -51.9614 S.3       23 UNK        -0.2404 
    126 C126       -1.5956  -18.4969  -50.4814 C.3       23 UNK        -0.0205 
    127 H127        7.1615  -11.1417  -47.0437 H         1 UNK         0.0600 
    128 H128        6.7925  -10.7780  -45.3550 H         1 UNK         0.0600 
    129 H129        6.1807   -9.7294  -46.6384 H         1 UNK         0.0600 
    130 H130        5.9380  -12.8196  -47.8276 H         1 UNK         0.3000 
    131 H131        3.8123  -14.0284  -46.4935 H         1 UNK         0.0600 
    132 H132        5.4546  -15.0269  -48.2144 H         1 UNK         0.0800 
    133 H133        4.4432  -14.3709  -49.4674 H         1 UNK         0.0800 
    134 H134        2.5934  -15.6925  -50.4891 H         1 UNK         0.0800 
    135 H135        3.9886  -16.7468  -50.5724 H         1 UNK         0.0800 
    136 H136        0.3541  -16.5968  -50.3359 H         1 UNK         0.1150 
    137 H137       -0.2156  -20.8420  -50.3692 H         1 UNK         0.1150 
    138 H138        3.7373  -19.2115  -50.0412 H         1 UNK         0.1150 
    139 H139        1.6037  -22.3359  -50.2619 H         1 UNK         0.0800 
    140 H140        3.0734  -21.7429  -50.9884 H         1 UNK         0.0800 
    141 H141        1.4398  -20.6515  -47.6726 H         1 UNK         0.0800 
    142 H142        2.6981  -20.9629  -46.5280 H         1 UNK         0.0800 
    143 H143        2.0036  -23.3759  -46.3927 H         1 UNK         0.0600 
    144 H144        0.6450  -21.1719  -45.2745 H         1 UNK         0.3000 
    145 H145       -1.5690  -22.9718  -43.1128 H         1 UNK         0.0600 
    146 H146       -0.4248  -21.4899  -41.4928 H         1 UNK         0.0600 
    147 H147        0.6441  -22.8002  -41.9713 H         1 UNK         0.0600 
    148 H148        0.8787  -21.1896  -42.6393 H         1 UNK         0.0600 
    149 H149       -1.2269  -20.1821  -43.5416 H         1 UNK         0.3000 
    150 H150       -3.6401  -19.8618  -46.1962 H         1 UNK         0.0600 
    151 H151       -4.8668  -19.8507  -44.0141 H         1 UNK         0.0600 
    152 H152       -4.5376  -18.2228  -44.5869 H         1 UNK         0.0600 
    153 H153       -3.5686  -18.9114  -43.2857 H         1 UNK         0.0600 
    154 H154       -2.0440  -17.8801  -44.9806 H         1 UNK         0.3000 
    155 H155        0.7951  -18.1696  -47.1961 H         1 UNK         0.0600 
    156 H156        0.2474  -15.7739  -47.3753 H         1 UNK         0.0600 
    157 H157       -0.9864  -16.7103  -48.2046 H         1 UNK         0.0600 
    158 H158       -1.3260  -16.0330  -46.6258 H         1 UNK         0.0600 
    159 H159        0.4402  -16.5078  -44.9350 H         1 UNK         0.3000 
    160 H160        1.6578  -18.7399  -42.4138 H         1 UNK         0.0600 
    161 H161        2.8036  -16.2188  -43.7266 H         1 UNK         0.0600 
    162 H162        3.6644  -17.7105  -43.3906 H         1 UNK         0.0600 
    163 H163        3.0957  -16.7151  -42.0590 H         1 UNK         0.0600 
    164 H164        0.5859  -16.0454  -42.4918 H         1 UNK         0.3000 
    165 H165       -2.7598  -16.9777  -41.6677 H         1 UNK         0.0600 
    166 H166       -2.3173  -15.5000  -39.7279 H         1 UNK         0.0600 
    167 H167       -1.5473  -17.0598  -39.4852 H         1 UNK         0.0600 
    168 H168       -0.5764  -15.6699  -39.9560 H         1 UNK         0.0600 
    169 H169       -1.4352  -14.4470  -41.9338 H         1 UNK         0.3000 
    170 H170       -1.8470  -14.0681  -45.4388 H         1 UNK         0.0600 
    171 H171       -4.1272  -13.5299  -44.5622 H         1 UNK         0.0600 
    172 H172       -3.4092  -12.7281  -43.1693 H         1 UNK         0.0600 
    173 H173       -3.1635  -12.0791  -44.7908 H         1 UNK         0.0600 
    174 H174       -0.9735  -12.1401  -43.6515 H         1 UNK         0.3000 
    175 H175        1.1817  -12.1438  -42.4976 H         1 UNK         0.0600 
    176 H176        2.8283  -13.9945  -42.5183 H         1 UNK         0.0600 
    177 H177        3.2893  -13.6045  -44.1721 H         1 UNK         0.0600 
    178 H178        3.6180  -12.4658  -42.8698 H         1 UNK         0.0600 
    179 H179        2.5100  -11.4229  -44.9624 H         1 UNK         0.3000 
    180 H180        0.2905   -8.7418  -45.7933 H         1 UNK         0.0600 
    181 H181        3.1830   -8.8539  -44.7859 H         1 UNK         0.0600 
    182 H182        1.8973   -7.8518  -44.1239 H         1 UNK         0.0600 
    183 H183        2.4758   -7.5649  -45.7580 H         1 UNK         0.0600 
    184 H184        2.6583  -10.2617  -46.7708 H         1 UNK         0.3000 
    185 H185        0.9016  -11.6099  -49.5128 H         1 UNK         0.0600 
    186 H186        1.2872   -9.3208  -50.4337 H         1 UNK         0.0600 
    187 H187        2.8739   -9.2670  -49.6753 H         1 UNK         0.0600 
    188 H188        2.5413  -10.4331  -50.9571 H         1 UNK         0.0600 
    189 H189        3.6989  -11.4395  -48.8610 H         1 UNK         0.3000 
    190 H190       -0.9647  -21.6596  -47.5300 H         1 UNK         0.3000 
    191 H191       -1.4832  -23.2881  -49.7774 H         1 UNK         0.0600 
    192 H192       -3.4235  -21.7233  -47.9986 H         1 UNK         0.0600 
    193 H193       -3.8077  -22.3822  -49.5846 H         1 UNK         0.0600 
    194 H194       -2.5936  -21.1271  -49.4330 H         1 UNK         0.0600 
    195 H195       -2.6345  -23.6389  -46.3767 H         1 UNK         0.3000 
    196 H196       -4.1735  -25.9698  -46.7552 H         1 UNK         0.0600 
    197 H197       -3.9534  -26.2186  -44.2785 H         1 UNK         0.0600 
    198 H198       -4.3243  -24.5612  -44.7288 H         1 UNK         0.0600 
    199 H199       -2.6843  -25.0007  -44.2588 H         1 UNK         0.0600 
    200 H200       -0.6912  -25.6453  -45.9159 H         1 UNK         0.3000 
    201 H201       -0.1178  -28.4249  -45.7204 H         1 UNK         0.0600 
    202 H202        1.3611  -26.6695  -44.7922 H         1 UNK         0.0600 
    203 H203        1.7125  -26.0649  -46.4093 H         1 UNK         0.0600 
    204 H204        2.2546  -27.6684  -45.9289 H         1 UNK         0.0600 
    205 H205       -0.0791  -26.1940  -48.5091 H         1 UNK         0.3000 
    206 H206        0.8880  -28.1321  -50.4237 H         1 UNK         0.0600 
    207 H207        1.2076  -25.6720  -50.6846 H         1 UNK         0.0600 
    208 H208        0.3249  -26.3345  -52.0515 H         1 UNK         0.0600 
    209 H209       -0.5357  -25.4433  -50.8036 H         1 UNK         0.0600 
    210 H210       -2.1381  -27.7400  -48.9342 H         1 UNK         0.3000 
    211 H211       -4.1890  -28.4934  -49.1594 H         1 UNK         0.0600 
    212 H212       -3.1877  -30.4251  -51.3171 H         1 UNK         0.0600 
    213 H213       -4.6869  -30.5504  -50.4093 H         1 UNK         0.0600 
    214 H214       -3.1493  -30.7329  -49.5811 H         1 UNK         0.0600 
    215 H215       -3.5648  -26.1332  -50.3669 H         1 UNK         0.3000 
    216 H216       -5.2621  -25.9759  -52.8283 H         1 UNK         0.0600 
    217 H217       -2.9724  -24.1697  -51.8470 H         1 UNK         0.0600 
    218 H218       -3.9177  -23.9219  -53.3100 H         1 UNK         0.0600 
    219 H219       -2.8583  -25.3179  -53.1787 H         1 UNK         0.0600 
    220 H220       -6.4647  -23.9151  -52.9629 H         1 UNK         0.3000 
    221 H221       -7.6707  -23.0501  -50.4128 H         1 UNK         0.0600 
    222 H222       -9.1386  -23.4224  -52.3931 H         1 UNK         0.0600 
    223 H223       -8.2194  -22.2398  -53.3235 H         1 UNK         0.0600 
    224 H224       -9.1514  -21.7302  -51.9212 H         1 UNK         0.0600 
    225 H225       -7.0058  -21.2159  -49.3636 H         1 UNK         0.3000 
    226 H226       -4.6631  -19.8089  -50.1009 H         1 UNK         0.0600 
    227 H227       -5.4632  -20.0921  -47.7553 H         1 UNK         0.0600 
    228 H228       -5.1922  -18.3982  -48.1346 H         1 UNK         0.0600 
    229 H229       -6.8339  -19.0327  -48.0821 H         1 UNK         0.0600 
    230 H230       -8.0159  -19.1950  -50.8911 H         1 UNK         0.3000 
    231 H231       -7.8744  -16.4657  -51.6636 H         1 UNK         0.0600 
    232 H232       -9.7076  -18.7283  -52.6296 H         1 UNK         0.0600 
    233 H233       -9.9975  -17.0099  -52.8724 H         1 UNK         0.0600 
    234 H234      -10.0047  -17.6731  -51.2469 H         1 UNK         0.0600 
    235 H235       -6.5749  -19.3002  -53.2421 H         1 UNK         0.3000 
    236 H236       -6.5165  -18.1438  -55.9309 H         1 UNK         0.0600 
    237 H237       -6.7901  -20.6123  -55.5171 H         1 UNK         0.0600 
    238 H238       -5.3839  -20.2463  -56.5045 H         1 UNK         0.0600 
    239 H239       -5.1747  -20.6580  -54.8096 H         1 UNK         0.0600 
    240 H240       -4.6213  -17.7189  -53.0974 H         1 UNK         0.3000 
    241 H241       -2.3394  -16.6643  -54.6568 H         1 UNK         0.0600 
    242 H242       -3.5247  -14.7495  -51.3214 H         1 UNK         0.3800 
    243 H243       -4.3379  -16.2417  -51.7141 H         1 UNK         0.3800 
    244 H244       -0.7313  -17.7680  -53.0291 H         1 UNK         0.0800 
    245 H245       -1.5201  -18.8158  -54.1620 H         1 UNK         0.0800 
    246 H246       -1.8494  -17.4371  -50.4712 H         1 UNK         0.0800 
    247 H247       -2.0656  -18.9200  -49.5947 H         1 UNK         0.0800 
@<TRIPOS>BOND
     1    1    2 1    
     2    1  127 1    
     3    1  128 1    
     4    1  129 1    
     5    2    3 2    
     6    2    4 am   BACKBONE|DICT|INTERRES
     7    4    5 1    
     8    4  130 1    
     9    5    6 1    
    10    5   65 1    
    11    5  131 1    
    12    6    7 1    
    13    6  132 1    
    14    6  133 1    
    15    7    8 1    
    16    8    9 1    
    17    8  134 1    
    18    8  135 1    
    19    9   10 ar   
    20    9   14 ar   
    21   10   11 ar   
    22   10  136 1    
    23   11   12 ar   
    24   11  126 1    
    25   12   13 ar   
    26   12  137 1    
    27   13   14 ar   
    28   13   15 1    
    29   14  138 1    
    30   15   16 1    
    31   15  139 1    
    32   15  140 1    
    33   16   17 1    
    34   17   18 1    
    35   17  141 1    
    36   17  142 1    
    37   18   19 1    
    38   18   67 1    
    39   18  143 1    
    40   19   20 am   BACKBONE|DICT|INTERRES
    41   19  144 1    
    42   20   21 2    
    43   20   22 1    
    44   22   23 1    
    45   22   24 1    
    46   22  145 1    
    47   23  146 1    
    48   23  147 1    
    49   23  148 1    
    50   24   25 am   BACKBONE|DICT|INTERRES
    51   24  149 1    
    52   25   26 2    
    53   25   27 1    
    54   27   28 1    
    55   27   29 1    
    56   27  150 1    
    57   28  151 1    
    58   28  152 1    
    59   28  153 1    
    60   29   30 am   BACKBONE|DICT|INTERRES
    61   29  154 1    
    62   30   31 2    
    63   30   32 1    
    64   32   33 1    
    65   32   34 1    
    66   32  155 1    
    67   33  156 1    
    68   33  157 1    
    69   33  158 1    
    70   34   35 am   BACKBONE|DICT|INTERRES
    71   34  159 1    
    72   35   36 2    
    73   35   37 1    
    74   37   38 1    
    75   37   39 1    
    76   37  160 1    
    77   38  161 1    
    78   38  162 1    
    79   38  163 1    
    80   39   40 am   BACKBONE|DICT|INTERRES
    81   39  164 1    
    82   40   41 2    
    83   40   42 1    
    84   42   43 1    
    85   42   44 1    
    86   42  165 1    
    87   43  166 1    
    88   43  167 1    
    89   43  168 1    
    90   44   45 am   BACKBONE|DICT|INTERRES
    91   44  169 1    
    92   45   46 2    
    93   45   47 1    
    94   47   48 1    
    95   47   49 1    
    96   47  170 1    
    97   48  171 1    
    98   48  172 1    
    99   48  173 1    
   100   49   50 am   BACKBONE|DICT|INTERRES
   101   49  174 1    
   102   50   51 2    
   103   50   52 1    
   104   52   53 1    
   105   52   54 1    
   106   52  175 1    
   107   53  176 1    
   108   53  177 1    
   109   53  178 1    
   110   54   55 am   BACKBONE|DICT|INTERRES
   111   54  179 1    
   112   55   56 2    
   113   55   57 1    
   114   57   58 1    
   115   57   59 1    
   116   57  180 1    
   117   58  181 1    
   118   58  182 1    
   119   58  183 1    
   120   59   60 am   BACKBONE|DICT|INTERRES
   121   59  184 1    
   122   60   61 2    
   123   60   62 1    
   124   62   63 1    
   125   62   64 1    
   126   62  185 1    
   127   63  186 1    
   128   63  187 1    
   129   63  188 1    
   130   64   65 am   BACKBONE|DICT|INTERRES
   131   64  189 1    
   132   65   66 2    
   133   67   68 2    
   134   67   69 am   BACKBONE|DICT|INTERRES
   135   69   70 1    
   136   69  190 1    
   137   70   71 1    
   138   70   72 1    
   139   70  191 1    
   140   71  192 1    
   141   71  193 1    
   142   71  194 1    
   143   72   73 2    
   144   72   74 am   BACKBONE|DICT|INTERRES
   145   74   75 1    
   146   74  195 1    
   147   75   76 1    
   148   75   77 1    
   149   75  196 1    
   150   76  197 1    
   151   76  198 1    
   152   76  199 1    
   153   77   78 2    
   154   77   79 am   BACKBONE|DICT|INTERRES
   155   79   80 1    
   156   79  200 1    
   157   80   81 1    
   158   80   82 1    
   159   80  201 1    
   160   81  202 1    
   161   81  203 1    
   162   81  204 1    
   163   82   83 2    
   164   82   84 am   BACKBONE|DICT|INTERRES
   165   84   85 1    
   166   84  205 1    
   167   85   86 1    
   168   85   87 1    
   169   85  206 1    
   170   86  207 1    
   171   86  208 1    
   172   86  209 1    
   173   87   88 2    
   174   87   89 am   BACKBONE|DICT|INTERRES
   175   89   90 1    
   176   89  210 1    
   177   90   91 1    
   178   90   92 1    
   179   90  211 1    
   180   91  212 1    
   181   91  213 1    
   182   91  214 1    
   183   92   93 2    
   184   92   94 am   BACKBONE|DICT|INTERRES
   185   94   95 1    
   186   94  215 1    
   187   95   96 1    
   188   95   97 1    
   189   95  216 1    
   190   96  217 1    
   191   96  218 1    
   192   96  219 1    
   193   97   98 2    
   194   97   99 am   BACKBONE|DICT|INTERRES
   195   99  100 1    
   196   99  220 1    
   197  100  101 1    
   198  100  102 1    
   199  100  221 1    
   200  101  222 1    
   201  101  223 1    
   202  101  224 1    
   203  102  103 2    
   204  102  104 am   BACKBONE|DICT|INTERRES
   205  104  105 1    
   206  104  225 1    
   207  105  106 1    
   208  105  107 1    
   209  105  226 1    
   210  106  227 1    
   211  106  228 1    
   212  106  229 1    
   213  107  108 2    
   214  107  109 am   BACKBONE|DICT|INTERRES
   215  109  110 1    
   216  109  230 1    
   217  110  111 1    
   218  110  112 1    
   219  110  231 1    
   220  111  232 1    
   221  111  233 1    
   222  111  234 1    
   223  112  113 2    
   224  112  114 am   BACKBONE|DICT|INTERRES
   225  114  115 1    
   226  114  235 1    
   227  115  116 1    
   228  115  117 1    
   229  115  236 1    
   230  116  237 1    
   231  116  238 1    
   232  116  239 1    
   233  117  118 2    
   234  117  119 am   BACKBONE|DICT|INTERRES
   235  119  120 1    
   236  119  240 1    
   237  120  121 1    
   238  120  124 1    
   239  120  241 1    
   240  121  122 am   BACKBONE|DICT|INTERRES
   241  121  123 2    
   242  122  242 1    
   243  122  243 1    
   244  124  125 1    
   245  124  244 1    
   246  124  245 1    
   247  125  126 1    
   248  126  246 1    
   249  126  247 1    
@<TRIPOS>SUBSTRUCTURE
     1 UNK         1 GROUP             0       ****    0 ROOT    
