@<TRIPOS>MOLECULE
3R540
247   249    1
SMALL
USER_CHARGES


@<TRIPOS>ATOM
      1 CA          3.6359  -17.5502  -47.0452 C.3       0 UNK        -0.1800 
      2 C           3.5567  -16.0496  -47.2848 C.2       0 UNK         0.5000 
      3 O           4.4595  -15.4737  -47.8889 O.2       0 UNK        -0.5000 
      4 N           2.4861  -15.4157  -46.7890 N.am      1 UNK        -0.5000 
      5 CA          2.1337  -13.9898  -46.9188 C.3       1 UNK         0.1400 
      6 C6          1.9431  -13.5093  -48.3826 C.3       23 UNK        -0.0398 
      7 S7          0.7822  -14.5623  -49.3209 S.3       23 UNK        -0.2404 
      8 C8          1.8749  -15.2008  -50.6275 C.3       23 UNK        -0.0205 
      9 C9          1.3991  -16.5514  -51.1318 C.ar      23 UNK        -0.0193 
     10 C10         0.4218  -16.6351  -52.1265 C.ar      23 UNK        -0.1150 
     11 C11        -0.0010  -17.8796  -52.6038 C.ar      23 UNK        -0.0193 
     12 C12         0.5536  -19.0459  -52.0613 C.ar      23 UNK        -0.1150 
     13 C13         1.5486  -18.9739  -51.0802 C.ar      23 UNK        -0.0193 
     14 C14         1.9612  -17.7221  -50.6188 C.ar      23 UNK        -0.1150 
     15 C15         2.2305  -20.2334  -50.5587 C.3       23 UNK        -0.0205 
     16 S16         1.9441  -20.4993  -48.7787 S.3       23 UNK        -0.2404 
     17 C17         0.2202  -21.0785  -48.7802 C.3       23 UNK        -0.0398 
     18 CA          0.0135  -22.3155  -47.8756 C.3       11 UNK         0.1400 
     19 N           0.2284  -22.0115  -46.4573 N.am      11 UNK        -0.5000 
     20 C           0.2828  -22.9215  -45.4749 C.2       10 UNK         0.5000 
     21 O           0.1888  -24.1340  -45.6587 O.2       10 UNK        -0.5000 
     22 CA          0.3981  -22.3801  -44.0397 C.3       10 UNK         0.1400 
     23 CB          1.8498  -22.0000  -43.7143 C.3       10 UNK        -0.1800 
     24 N          -0.4833  -21.2323  -43.8173 N.am      10 UNK        -0.5000 
     25 C          -1.8232  -21.3160  -43.8004 C.2       9 UNK         0.5000 
     26 O          -2.4356  -22.3752  -43.9242 O.2       9 UNK        -0.5000 
     27 CA         -2.6249  -20.0060  -43.6687 C.3       9 UNK         0.1400 
     28 CB         -2.9181  -19.7137  -42.1897 C.3       9 UNK        -0.1800 
     29 N          -1.9733  -18.8455  -44.2771 N.am      9 UNK        -0.5000 
     30 C          -1.5746  -18.7594  -45.5545 C.2       8 UNK         0.5000 
     31 O          -1.7960  -19.6337  -46.3922 O.2       8 UNK        -0.5000 
     32 CA         -0.7251  -17.5322  -45.9454 C.3       8 UNK         0.1400 
     33 CB         -1.5967  -16.4494  -46.5934 C.3       8 UNK        -0.1800 
     34 N           0.0231  -16.9520  -44.8225 N.am      8 UNK        -0.5000 
     35 C           0.9677  -17.6019  -44.1232 C.2       7 UNK         0.5000 
     36 O           1.3212  -18.7536  -44.3707 O.2       7 UNK        -0.5000 
     37 CA          1.5993  -16.8582  -42.9376 C.3       7 UNK         0.1400 
     38 CB          2.6872  -15.8888  -43.4147 C.3       7 UNK        -0.1800 
     39 N           0.5898  -16.1257  -42.1757 N.am      7 UNK        -0.5000 
     40 C          -0.0802  -16.6392  -41.1350 C.2       6 UNK         0.5000 
     41 O           0.1348  -17.7573  -40.6666 O.2       6 UNK        -0.5000 
     42 CA         -1.1921  -15.7682  -40.5199 C.3       6 UNK         0.1400 
     43 CB         -0.6491  -14.9558  -39.3349 C.3       6 UNK        -0.1800 
     44 N          -1.8191  -14.8625  -41.4851 N.am      6 UNK        -0.5000 
     45 C          -2.5866  -15.2680  -42.5074 C.2       5 UNK         0.5000 
     46 O          -2.8319  -16.4486  -42.7473 O.2       5 UNK        -0.5000 
     47 CA         -3.1417  -14.1830  -43.4485 C.3       5 UNK         0.1400 
     48 CB         -4.5079  -13.6909  -42.9490 C.3       5 UNK        -0.1800 
     49 N          -2.2556  -13.0325  -43.6313 N.am      5 UNK        -0.5000 
     50 C          -0.9873  -13.0755  -44.0597 C.2       4 UNK         0.5000 
     51 O          -0.3883  -14.1228  -44.3250 O.2       4 UNK        -0.5000 
     52 CA         -0.2409  -11.7308  -44.1853 C.3       4 UNK         0.1400 
     53 CB         -1.0481  -10.4994  -43.7152 C.3       4 UNK        -0.1800 
     54 N           1.0555  -11.7835  -43.5080 N.am      4 UNK        -0.5000 
     55 C           1.2830  -12.0680  -42.2155 C.2       3 UNK         0.5000 
     56 O           0.3865  -12.2649  -41.3936 O.2       3 UNK        -0.5000 
     57 CA          2.7591  -12.1935  -41.7897 C.3       3 UNK         0.1400 
     58 CB          2.9387  -13.1248  -40.5764 C.3       3 UNK        -0.1800 
     59 N           3.5571  -12.7017  -42.9062 N.am      3 UNK        -0.5000 
     60 C           4.5645  -12.0627  -43.5107 C.2       2 UNK         0.5000 
     61 O           5.0236  -10.9840  -43.1344 O.2       2 UNK        -0.5000 
     62 CA          5.1332  -12.7357  -44.7764 C.3       2 UNK         0.1400 
     63 CB          6.3075  -13.6560  -44.4107 C.3       2 UNK        -0.1800 
     64 N           4.1463  -13.5097  -45.5404 N.am      2 UNK        -0.5000 
     65 C           3.0458  -13.0185  -46.1294 C.2       1 UNK         0.5000 
     66 O           2.7088  -11.8383  -46.0303 O.2       1 UNK        -0.5000 
     67 C          -1.3838  -22.9163  -48.1134 C.2       11 UNK         0.5000 
     68 O          -1.5103  -23.8739  -48.8780 O.2       11 UNK        -0.5000 
     69 N          -2.4020  -22.3545  -47.4468 N.am      12 UNK        -0.5000 
     70 CA         -3.7831  -22.8343  -47.4864 C.3       12 UNK         0.1400 
     71 CB         -4.7034  -21.8118  -46.8047 C.3       12 UNK        -0.1800 
     72 C          -3.9519  -24.2308  -46.8578 C.2       12 UNK         0.5000 
     73 O          -4.7219  -25.0358  -47.3792 O.2       12 UNK        -0.5000 
     74 N          -3.2255  -24.5002  -45.7662 N.am      13 UNK        -0.5000 
     75 CA         -3.2335  -25.7864  -45.0744 C.3       13 UNK         0.1400 
     76 CB         -2.6728  -25.6113  -43.6540 C.3       13 UNK        -0.1800 
     77 C          -2.4560  -26.8750  -45.8340 C.2       13 UNK         0.5000 
     78 O          -2.9827  -27.9723  -46.0228 O.2       13 UNK        -0.5000 
     79 N          -1.2100  -26.5706  -46.2220 N.am      14 UNK        -0.5000 
     80 CA         -0.2738  -27.5495  -46.7730 C.3       14 UNK         0.1400 
     81 CB          1.1679  -27.0584  -46.5653 C.3       14 UNK        -0.1800 
     82 C          -0.5244  -27.8651  -48.2552 C.2       14 UNK         0.5000 
     83 O          -0.5540  -29.0402  -48.6239 O.2       14 UNK        -0.5000 
     84 N          -0.6620  -26.8188  -49.0790 N.am      15 UNK        -0.5000 
     85 CA         -0.7024  -26.9325  -50.5393 C.3       15 UNK         0.1400 
     86 CB          0.3277  -25.9522  -51.1272 C.3       15 UNK        -0.1800 
     87 C          -2.0920  -26.6453  -51.1287 C.2       15 UNK         0.5000 
     88 O          -2.3428  -27.0251  -52.2724 O.2       15 UNK        -0.5000 
     89 N          -2.9394  -25.9336  -50.3699 N.am      16 UNK        -0.5000 
     90 CA         -4.2048  -25.3132  -50.7875 C.3       16 UNK         0.1400 
     91 CB         -5.2274  -26.3585  -51.2773 C.3       16 UNK        -0.1800 
     92 C          -4.0095  -24.1562  -51.7909 C.2       16 UNK         0.5000 
     93 O          -4.9807  -23.6971  -52.3921 O.2       16 UNK        -0.5000 
     94 N          -2.7671  -23.6737  -51.9343 N.am      17 UNK        -0.5000 
     95 CA         -2.3738  -22.6565  -52.9057 C.3       17 UNK         0.1400 
     96 CB         -0.8424  -22.5840  -52.9808 C.3       17 UNK        -0.1800 
     97 C          -2.9863  -21.2851  -52.5915 C.2       17 UNK         0.5000 
     98 O          -3.5400  -20.6513  -53.4866 O.2       17 UNK        -0.5000 
     99 N          -2.9339  -20.8768  -51.3164 N.am      18 UNK        -0.5000 
    100 CA        -3.5467  -19.6342  -50.8374 C.3       18 UNK         0.1400 
    101 CB        -2.8766  -19.1932  -49.5317 C.3       18 UNK        -0.1800 
    102 C         -5.0744  -19.7387  -50.6723 C.2       18 UNK         0.5000 
    103 O         -5.7470  -18.7090  -50.6968 O.2       18 UNK        -0.5000 
    104 N         -5.6019  -20.9667  -50.5520 N.am      19 UNK        -0.5000 
    105 CA        -7.0411  -21.2434  -50.5584 C.3       19 UNK         0.1400 
    106 CB        -7.3090  -22.6470  -49.9919 C.3       19 UNK        -0.1800 
    107 C         -7.6325  -21.0848  -51.9724 C.2       19 UNK         0.5000 
    108 O         -8.7051  -20.4999  -52.1239 O.2       19 UNK        -0.5000 
    109 N         -6.8915  -21.5597  -52.9845 N.am      20 UNK        -0.5000 
    110 CA        -7.1687  -21.3387  -54.4063 C.3       20 UNK         0.1400 
    111 CB        -6.3536  -22.3512  -55.2263 C.3       20 UNK        -0.1800 
    112 C         -6.8542  -19.8994  -54.8696 C.2       20 UNK         0.5000 
    113 O         -7.3576  -19.4790  -55.9114 O.2       20 UNK        -0.5000 
    114 N         -6.0281  -19.1881  -54.0885 N.am      21 UNK        -0.5000 
    115 CA        -5.4831  -17.8464  -54.3151 C.3       21 UNK         0.1400 
    116 CB        -6.6036  -16.7889  -54.3987 C.3       21 UNK        -0.1800 
    117 C         -4.4952  -17.7955  -55.5001 C.2       21 UNK         0.5000 
    118 O         -4.4284  -16.7851  -56.2031 O.2       21 UNK        -0.5000 
    119 N         -3.7256  -18.8803  -55.6709 N.am      22 UNK        -0.5000 
    120 CA        -2.7156  -19.1002  -56.7195 C.3       22 UNK         0.1400 
    121 C         -3.2884  -19.0980  -58.1743 C.2       22 UNK         0.5000 
    122 N         -2.4425  -19.1902  -59.1928 N.am      22 UNK        -0.7600 
    123 O         -4.4952  -19.0759  -58.4054 O.2       22 UNK        -0.5000 
    124 C124       -1.4761  -18.1750  -56.5270 C.3       23 UNK        -0.0398 
    125 S125       -0.3612  -18.7624  -55.2057 S.3       23 UNK        -0.2404 
    126 C126       -1.0360  -17.9536  -53.7202 C.3       23 UNK        -0.0205 
    127 H127        4.2680  -17.7613  -46.1830 H         1 UNK         0.0600 
    128 H128        4.0650  -18.0530  -47.9117 H         1 UNK         0.0600 
    129 H129        2.6507  -17.9799  -46.8624 H         1 UNK         0.0600 
    130 H130        1.7858  -15.9680  -46.3167 H         1 UNK         0.3000 
    131 H131        1.1588  -13.9064  -46.4386 H         1 UNK         0.0600 
    132 H132        2.9037  -13.4517  -48.8962 H         1 UNK         0.0800 
    133 H133        1.5393  -12.4955  -48.3972 H         1 UNK         0.0800 
    134 H134        1.9147  -14.4831  -51.4481 H         1 UNK         0.0800 
    135 H135        2.8955  -15.2954  -50.2542 H         1 UNK         0.0800 
    136 H136       -0.0006  -15.7272  -52.5340 H         1 UNK         0.1150 
    137 H137        0.2370  -20.0064  -52.4366 H         1 UNK         0.1150 
    138 H138        2.7329  -17.6606  -49.8658 H         1 UNK         0.1150 
    139 H139        1.9160  -21.1144  -51.1202 H         1 UNK         0.0800 
    140 H140        3.3045  -20.1391  -50.7246 H         1 UNK         0.0800 
    141 H141       -0.0761  -21.2993  -49.8064 H         1 UNK         0.0800 
    142 H142       -0.4051  -20.2494  -48.4547 H         1 UNK         0.0800 
    143 H143        0.7402  -23.0777  -48.1657 H         1 UNK         0.0600 
    144 H144        0.2786  -21.0330  -46.2123 H         1 UNK         0.3000 
    145 H145        0.0962  -23.1761  -43.3555 H         1 UNK         0.0600 
    146 H146        1.9395  -21.6120  -42.6995 H         1 UNK         0.0600 
    147 H147        2.5038  -22.8695  -43.7901 H         1 UNK         0.0600 
    148 H148        2.2347  -21.2432  -44.3985 H         1 UNK         0.0600 
    149 H149       -0.0412  -20.3225  -43.7603 H         1 UNK         0.3000 
    150 H150       -3.5769  -20.1507  -44.1814 H         1 UNK         0.0600 
    151 H151       -3.3623  -20.5802  -41.6980 H         1 UNK         0.0600 
    152 H152       -3.6232  -18.8899  -42.0826 H         1 UNK         0.0600 
    153 H153       -2.0105  -19.4539  -41.6436 H         1 UNK         0.0600 
    154 H154       -1.8335  -18.0439  -43.6732 H         1 UNK         0.3000 
    155 H155        0.0021  -17.8677  -46.6880 H         1 UNK         0.0600 
    156 H156       -2.3826  -16.1139  -45.9185 H         1 UNK         0.0600 
    157 H157       -2.0783  -16.8271  -47.4959 H         1 UNK         0.0600 
    158 H158       -1.0044  -15.5806  -46.8809 H         1 UNK         0.0600 
    159 H159       -0.2173  -15.9987  -44.5632 H         1 UNK         0.3000 
    160 H160        2.0802  -17.6041  -42.3007 H         1 UNK         0.0600 
    161 H161        2.2571  -15.0468  -43.9552 H         1 UNK         0.0600 
    162 H162        3.3979  -16.3877  -44.0745 H         1 UNK         0.0600 
    163 H163        3.2567  -15.5033  -42.5701 H         1 UNK         0.0600 
    164 H164        0.3079  -15.2214  -42.5316 H         1 UNK         0.3000 
    165 H165       -1.9643  -16.4420  -40.1423 H         1 UNK         0.0600 
    166 H166       -1.4378  -14.3713  -38.8612 H         1 UNK         0.0600 
    167 H167       -0.2290  -15.6127  -38.5723 H         1 UNK         0.0600 
    168 H168        0.1390  -14.2690  -39.6435 H         1 UNK         0.0600 
    169 H169       -1.6232  -13.8759  -41.3803 H         1 UNK         0.3000 
    170 H170       -3.2875  -14.6400  -44.4276 H         1 UNK         0.0600 
    171 H171       -5.2017  -14.5236  -42.8245 H         1 UNK         0.0600 
    172 H172       -4.4260  -13.1848  -41.9862 H         1 UNK         0.0600 
    173 H173       -4.9610  -12.9965  -43.6568 H         1 UNK         0.0600 
    174 H174       -2.6501  -12.1291  -43.4135 H         1 UNK         0.3000 
    175 H175       -0.0300  -11.6022  -45.2477 H         1 UNK         0.0600 
    176 H176       -1.3263  -10.5643  -42.6627 H         1 UNK         0.0600 
    177 H177       -0.4677   -9.5856  -43.8438 H         1 UNK         0.0600 
    178 H178       -1.9618  -10.3773  -44.2981 H         1 UNK         0.0600 
    179 H179        1.8555  -11.6574  -44.1173 H         1 UNK         0.3000 
    180 H180        3.0901  -11.1929  -41.5053 H         1 UNK         0.0600 
    181 H181        2.5280  -14.1174  -40.7625 H         1 UNK         0.0600 
    182 H182        2.4345  -12.7225  -39.6970 H         1 UNK         0.0600 
    183 H183        3.9920  -13.2394  -40.3201 H         1 UNK         0.0600 
    184 H184        3.2530  -13.5775  -43.3045 H         1 UNK         0.3000 
    185 H185        5.5078  -11.9435  -45.4278 H         1 UNK         0.0600 
    186 H186        7.0768  -13.1101  -43.8628 H         1 UNK         0.0600 
    187 H187        5.9859  -14.4888  -43.7840 H         1 UNK         0.0600 
    188 H188        6.7778  -14.0691  -45.3033 H         1 UNK         0.0600 
    189 H189        4.3731  -14.4778  -45.7161 H         1 UNK         0.3000 
    190 H190       -2.2133  -21.5401  -46.8697 H         1 UNK         0.3000 
    191 H191       -4.0796  -22.9037  -48.5343 H         1 UNK         0.0600 
    192 H192       -4.6296  -20.8315  -47.2752 H         1 UNK         0.0600 
    193 H193       -5.7465  -22.1236  -46.8662 H         1 UNK         0.0600 
    194 H194       -4.4607  -21.6969  -45.7489 H         1 UNK         0.0600 
    195 H195       -2.6713  -23.7611  -45.3463 H         1 UNK         0.3000 
    196 H196       -4.2691  -26.1209  -44.9819 H         1 UNK         0.0600 
    197 H197       -2.6578  -26.5612  -43.1183 H         1 UNK         0.0600 
    198 H198       -3.2848  -24.9209  -43.0733 H         1 UNK         0.0600 
    199 H199       -1.6536  -25.2231  -43.6662 H         1 UNK         0.0600 
    200 H200       -0.8337  -25.6463  -46.0215 H         1 UNK         0.3000 
    201 H201       -0.3829  -28.4816  -46.2137 H         1 UNK         0.0600 
    202 H202        1.3764  -26.8840  -45.5096 H         1 UNK         0.0600 
    203 H203        1.3610  -26.1285  -47.1015 H         1 UNK         0.0600 
    204 H204        1.8871  -27.7970  -46.9215 H         1 UNK         0.0600 
    205 H205       -0.6606  -25.8818  -48.6953 H         1 UNK         0.3000 
    206 H206       -0.4218  -27.9385  -50.8582 H         1 UNK         0.0600 
    207 H207        1.3347  -26.1909  -50.7847 H         1 UNK         0.0600 
    208 H208        0.3380  -25.9985  -52.2171 H         1 UNK         0.0600 
    209 H209        0.1161  -24.9207  -50.8441 H         1 UNK         0.0600 
    210 H210       -2.6021  -25.6380  -49.4623 H         1 UNK         0.3000 
    211 H211       -4.6264  -24.8506  -49.8984 H         1 UNK         0.0600 
    212 H212       -4.9434  -26.7927  -52.2358 H         1 UNK         0.0600 
    213 H213       -6.2118  -25.9076  -51.4075 H         1 UNK         0.0600 
    214 H214       -5.3364  -27.1695  -50.5574 H         1 UNK         0.0600 
    215 H215       -2.0364  -24.0754  -51.3652 H         1 UNK         0.3000 
    216 H216       -2.7453  -22.9655  -53.8852 H         1 UNK         0.0600 
    217 H217       -0.5240  -21.8418  -53.7141 H         1 UNK         0.0600 
    218 H218       -0.4203  -23.5406  -53.2893 H         1 UNK         0.0600 
    219 H219       -0.3991  -22.3194  -52.0209 H         1 UNK         0.0600 
    220 H220       -2.4854  -21.4671  -50.6335 H         1 UNK         0.3000 
    221 H221       -3.3664  -18.8486  -51.5734 H         1 UNK         0.0600 
    222 H222       -2.9191  -19.9745  -48.7758 H         1 UNK         0.0600 
    223 H223       -1.8325  -18.9306  -49.7005 H         1 UNK         0.0600 
    224 H224       -3.3638  -18.3101  -49.1166 H         1 UNK         0.0600 
    225 H225       -4.9846  -21.7618  -50.5882 H         1 UNK         0.3000 
    226 H226       -7.5337  -20.5201  -49.9048 H         1 UNK         0.0600 
    227 H227       -6.8891  -22.7588  -48.9926 H         1 UNK         0.0600 
    228 H228       -8.3809  -22.8325  -49.9152 H         1 UNK         0.0600 
    229 H229       -6.8907  -23.4314  -50.6211 H         1 UNK         0.0600 
    230 H230       -6.0667  -22.1127  -52.7708 H         1 UNK         0.3000 
    231 H231       -8.2297  -21.5223  -54.5872 H         1 UNK         0.0600 
    232 H232       -6.6047  -23.3755  -54.9500 H         1 UNK         0.0600 
    233 H233       -5.2813  -22.2186  -55.0762 H         1 UNK         0.0600 
    234 H234       -6.5523  -22.2428  -56.2932 H         1 UNK         0.0600 
    235 H235       -5.6407  -19.6767  -53.2941 H         1 UNK         0.3000 
    236 H236       -4.8907  -17.6163  -53.4285 H         1 UNK         0.0600 
    237 H237       -6.1883  -15.7806  -54.3979 H         1 UNK         0.0600 
    238 H238       -7.1970  -16.8949  -55.3071 H         1 UNK         0.0600 
    239 H239       -7.2777  -16.8619  -53.5451 H         1 UNK         0.0600 
    240 H240       -3.8229  -19.6376  -54.9990 H         1 UNK         0.3000 
    241 H241       -2.3904  -20.1313  -56.5758 H         1 UNK         0.0600 
    242 H242       -2.8137  -19.2115  -60.1303 H         1 UNK         0.3800 
    243 H243       -1.4463  -19.2616  -59.0570 H         1 UNK         0.3800 
    244 H244       -0.8606  -18.1361  -57.4255 H         1 UNK         0.0800 
    245 H245       -1.7708  -17.1418  -56.3415 H         1 UNK         0.0800 
    246 H246       -1.3881  -16.9543  -53.9798 H         1 UNK         0.0800 
    247 H247       -1.9062  -18.5081  -53.3745 H         1 UNK         0.0800 
@<TRIPOS>BOND
     1    1    2 1    
     2    1  127 1    
     3    1  128 1    
     4    1  129 1    
     5    2    3 2    
     6    2    4 am   BACKBONE|DICT|INTERRES
     7    4    5 1    
     8    4  130 1    
     9    5    6 1    
    10    5   65 1    
    11    5  131 1    
    12    6    7 1    
    13    6  132 1    
    14    6  133 1    
    15    7    8 1    
    16    8    9 1    
    17    8  134 1    
    18    8  135 1    
    19    9   10 ar   
    20    9   14 ar   
    21   10   11 ar   
    22   10  136 1    
    23   11   12 ar   
    24   11  126 1    
    25   12   13 ar   
    26   12  137 1    
    27   13   14 ar   
    28   13   15 1    
    29   14  138 1    
    30   15   16 1    
    31   15  139 1    
    32   15  140 1    
    33   16   17 1    
    34   17   18 1    
    35   17  141 1    
    36   17  142 1    
    37   18   19 1    
    38   18   67 1    
    39   18  143 1    
    40   19   20 am   BACKBONE|DICT|INTERRES
    41   19  144 1    
    42   20   21 2    
    43   20   22 1    
    44   22   23 1    
    45   22   24 1    
    46   22  145 1    
    47   23  146 1    
    48   23  147 1    
    49   23  148 1    
    50   24   25 am   BACKBONE|DICT|INTERRES
    51   24  149 1    
    52   25   26 2    
    53   25   27 1    
    54   27   28 1    
    55   27   29 1    
    56   27  150 1    
    57   28  151 1    
    58   28  152 1    
    59   28  153 1    
    60   29   30 am   BACKBONE|DICT|INTERRES
    61   29  154 1    
    62   30   31 2    
    63   30   32 1    
    64   32   33 1    
    65   32   34 1    
    66   32  155 1    
    67   33  156 1    
    68   33  157 1    
    69   33  158 1    
    70   34   35 am   BACKBONE|DICT|INTERRES
    71   34  159 1    
    72   35   36 2    
    73   35   37 1    
    74   37   38 1    
    75   37   39 1    
    76   37  160 1    
    77   38  161 1    
    78   38  162 1    
    79   38  163 1    
    80   39   40 am   BACKBONE|DICT|INTERRES
    81   39  164 1    
    82   40   41 2    
    83   40   42 1    
    84   42   43 1    
    85   42   44 1    
    86   42  165 1    
    87   43  166 1    
    88   43  167 1    
    89   43  168 1    
    90   44   45 am   BACKBONE|DICT|INTERRES
    91   44  169 1    
    92   45   46 2    
    93   45   47 1    
    94   47   48 1    
    95   47   49 1    
    96   47  170 1    
    97   48  171 1    
    98   48  172 1    
    99   48  173 1    
   100   49   50 am   BACKBONE|DICT|INTERRES
   101   49  174 1    
   102   50   51 2    
   103   50   52 1    
   104   52   53 1    
   105   52   54 1    
   106   52  175 1    
   107   53  176 1    
   108   53  177 1    
   109   53  178 1    
   110   54   55 am   BACKBONE|DICT|INTERRES
   111   54  179 1    
   112   55   56 2    
   113   55   57 1    
   114   57   58 1    
   115   57   59 1    
   116   57  180 1    
   117   58  181 1    
   118   58  182 1    
   119   58  183 1    
   120   59   60 am   BACKBONE|DICT|INTERRES
   121   59  184 1    
   122   60   61 2    
   123   60   62 1    
   124   62   63 1    
   125   62   64 1    
   126   62  185 1    
   127   63  186 1    
   128   63  187 1    
   129   63  188 1    
   130   64   65 am   BACKBONE|DICT|INTERRES
   131   64  189 1    
   132   65   66 2    
   133   67   68 2    
   134   67   69 am   BACKBONE|DICT|INTERRES
   135   69   70 1    
   136   69  190 1    
   137   70   71 1    
   138   70   72 1    
   139   70  191 1    
   140   71  192 1    
   141   71  193 1    
   142   71  194 1    
   143   72   73 2    
   144   72   74 am   BACKBONE|DICT|INTERRES
   145   74   75 1    
   146   74  195 1    
   147   75   76 1    
   148   75   77 1    
   149   75  196 1    
   150   76  197 1    
   151   76  198 1    
   152   76  199 1    
   153   77   78 2    
   154   77   79 am   BACKBONE|DICT|INTERRES
   155   79   80 1    
   156   79  200 1    
   157   80   81 1    
   158   80   82 1    
   159   80  201 1    
   160   81  202 1    
   161   81  203 1    
   162   81  204 1    
   163   82   83 2    
   164   82   84 am   BACKBONE|DICT|INTERRES
   165   84   85 1    
   166   84  205 1    
   167   85   86 1    
   168   85   87 1    
   169   85  206 1    
   170   86  207 1    
   171   86  208 1    
   172   86  209 1    
   173   87   88 2    
   174   87   89 am   BACKBONE|DICT|INTERRES
   175   89   90 1    
   176   89  210 1    
   177   90   91 1    
   178   90   92 1    
   179   90  211 1    
   180   91  212 1    
   181   91  213 1    
   182   91  214 1    
   183   92   93 2    
   184   92   94 am   BACKBONE|DICT|INTERRES
   185   94   95 1    
   186   94  215 1    
   187   95   96 1    
   188   95   97 1    
   189   95  216 1    
   190   96  217 1    
   191   96  218 1    
   192   96  219 1    
   193   97   98 2    
   194   97   99 am   BACKBONE|DICT|INTERRES
   195   99  100 1    
   196   99  220 1    
   197  100  101 1    
   198  100  102 1    
   199  100  221 1    
   200  101  222 1    
   201  101  223 1    
   202  101  224 1    
   203  102  103 2    
   204  102  104 am   BACKBONE|DICT|INTERRES
   205  104  105 1    
   206  104  225 1    
   207  105  106 1    
   208  105  107 1    
   209  105  226 1    
   210  106  227 1    
   211  106  228 1    
   212  106  229 1    
   213  107  108 2    
   214  107  109 am   BACKBONE|DICT|INTERRES
   215  109  110 1    
   216  109  230 1    
   217  110  111 1    
   218  110  112 1    
   219  110  231 1    
   220  111  232 1    
   221  111  233 1    
   222  111  234 1    
   223  112  113 2    
   224  112  114 am   BACKBONE|DICT|INTERRES
   225  114  115 1    
   226  114  235 1    
   227  115  116 1    
   228  115  117 1    
   229  115  236 1    
   230  116  237 1    
   231  116  238 1    
   232  116  239 1    
   233  117  118 2    
   234  117  119 am   BACKBONE|DICT|INTERRES
   235  119  120 1    
   236  119  240 1    
   237  120  121 1    
   238  120  124 1    
   239  120  241 1    
   240  121  122 am   BACKBONE|DICT|INTERRES
   241  121  123 2    
   242  122  242 1    
   243  122  243 1    
   244  124  125 1    
   245  124  244 1    
   246  124  245 1    
   247  125  126 1    
   248  126  246 1    
   249  126  247 1    
@<TRIPOS>SUBSTRUCTURE
     1 UNK         1 GROUP             0       ****    0 ROOT    
