@<TRIPOS>MOLECULE
3R540
247   249    1
SMALL
USER_CHARGES


@<TRIPOS>ATOM
      1 CA          2.2875   -8.8846  -48.6225 C.3       0 UNK        -0.1800 
      2 C           1.5489  -10.0795  -49.2236 C.2       0 UNK         0.5000 
      3 O           0.3463   -9.9860  -49.4619 O.2       0 UNK        -0.5000 
      4 N           2.2129  -11.2096  -49.5030 N.am      1 UNK        -0.5000 
      5 CA          3.6174  -11.5196  -49.2086 C.3       1 UNK         0.1400 
      6 C6          4.1033  -12.7307  -50.0490 C.3       23 UNK        -0.0398 
      7 S7          3.3174  -14.3125  -49.5819 S.3       23 UNK        -0.2404 
      8 C8          2.4390  -14.7750  -51.1028 C.3       23 UNK        -0.0205 
      9 C9          1.5068  -15.9530  -50.8610 C.ar      23 UNK        -0.0193 
     10 C10         0.1331  -15.8221  -51.0889 C.ar      23 UNK        -0.1150 
     11 C11        -0.7279  -16.9023  -50.8767 C.ar      23 UNK        -0.0193 
     12 C12        -0.1981  -18.1205  -50.4458 C.ar      23 UNK        -0.1150 
     13 C13         1.1665  -18.2613  -50.1808 C.ar      23 UNK        -0.0193 
     14 C14         2.0155  -17.1745  -50.4055 C.ar      23 UNK        -0.1150 
     15 C15         1.7259  -19.5806  -49.6595 C.3       23 UNK        -0.0205 
     16 S16         1.2320  -19.9080  -47.9314 S.3       23 UNK        -0.2404 
     17 C17        -0.4323  -20.6216  -48.1564 C.3       23 UNK        -0.0398 
     18 CA         -0.6325  -21.9535  -47.4019 C.3       11 UNK         0.1400 
     19 N          -0.5805  -21.8087  -45.9429 N.am      11 UNK        -0.5000 
     20 C          -0.5935  -22.8372  -45.0815 C.2       10 UNK         0.5000 
     21 O          -0.5835  -24.0169  -45.4308 O.2       10 UNK        -0.5000 
     22 CA         -0.7246  -22.4971  -43.5891 C.3       10 UNK         0.1400 
     23 CB          0.6381  -22.1338  -42.9810 C.3       10 UNK        -0.1800 
     24 N          -1.6865  -21.4136  -43.3811 N.am      10 UNK        -0.5000 
     25 C          -3.0163  -21.5745  -43.4824 C.2       9 UNK         0.5000 
     26 O          -3.5524  -22.6647  -43.6790 O.2       9 UNK        -0.5000 
     27 CA         -3.9029  -20.3165  -43.3739 C.3       9 UNK         0.1400 
     28 CB         -4.3846  -20.1264  -41.9281 C.3       9 UNK        -0.1800 
     29 N          -3.2413  -19.0906  -43.8185 N.am      9 UNK        -0.5000 
     30 C          -2.8009  -18.8498  -45.0621 C.2       8 UNK         0.5000 
     31 O          -2.9867  -19.6164  -46.0069 O.2       8 UNK        -0.5000 
     32 CA         -1.9595  -17.5690  -45.2593 C.3       8 UNK         0.1400 
     33 CB         -2.8521  -16.4235  -45.7575 C.3       8 UNK        -0.1800 
     34 N          -1.2511  -17.1504  -44.0383 N.am      8 UNK        -0.5000 
     35 C          -0.3532  -17.9131  -43.3985 C.2       7 UNK         0.5000 
     36 O           0.0562  -18.9827  -43.8523 O.2       7 UNK        -0.5000 
     37 CA          0.0861  -17.4559  -41.9984 C.3       7 UNK         0.1400 
     38 CB          0.6108  -18.6401  -41.1546 C.3       7 UNK        -0.1800 
     39 N           1.0911  -16.4006  -42.0838 N.am      7 UNK        -0.5000 
     40 C           1.4561  -15.6250  -41.0528 C.2       6 UNK         0.5000 
     41 O           0.9326  -15.6772  -39.9386 O.2       6 UNK        -0.5000 
     42 CA          2.5933  -14.6178  -41.2963 C.3       6 UNK         0.1400 
     43 CB          3.9306  -15.3345  -41.5441 C.3       6 UNK        -0.1800 
     44 N           2.2976  -13.7119  -42.4020 N.am      6 UNK        -0.5000 
     45 C           1.3682  -12.7462  -42.3659 C.2       5 UNK         0.5000 
     46 O           0.7136  -12.4602  -41.3624 O.2       5 UNK        -0.5000 
     47 CA          1.1088  -11.9823  -43.6782 C.3       5 UNK         0.1400 
     48 CB          2.0980  -10.8182  -43.8388 C.3       5 UNK        -0.1800 
     49 N           1.1776  -12.8471  -44.8557 N.am      5 UNK        -0.5000 
     50 C           0.3400  -13.8642  -45.1018 C.2       4 UNK         0.5000 
     51 O          -0.6267  -14.1424  -44.3915 O.2       4 UNK        -0.5000 
     52 CA          0.6616  -14.7404  -46.3245 C.3       4 UNK         0.1400 
     53 CB          0.1185  -14.1068  -47.6127 C.3       4 UNK        -0.1800 
     54 N           2.0951  -14.9922  -46.4639 N.am      4 UNK        -0.5000 
     55 C           2.8140  -15.7492  -45.6239 C.2       3 UNK         0.5000 
     56 O           2.3385  -16.3343  -44.6515 O.2       3 UNK        -0.5000 
     57 CA          4.3287  -15.8242  -45.8847 C.3       3 UNK         0.1400 
     58 CB          4.6459  -16.8513  -46.9826 C.3       3 UNK        -0.1800 
     59 N           4.8999  -14.5209  -46.2346 N.am      3 UNK        -0.5000 
     60 C           4.9961  -13.4921  -45.3785 C.2       2 UNK         0.5000 
     61 O           4.6348  -13.5490  -44.2043 O.2       2 UNK        -0.5000 
     62 CA          5.5504  -12.1629  -45.9297 C.3       2 UNK         0.1400 
     63 CB          7.0842  -12.1456  -45.8520 C.3       2 UNK        -0.1800 
     64 N           5.1305  -11.8728  -47.3036 N.am      2 UNK        -0.5000 
     65 C           3.8559  -11.7414  -47.6956 C.2       1 UNK         0.5000 
     66 O           2.8993  -11.8381  -46.9231 O.2       1 UNK        -0.5000 
     67 C          -1.9455  -22.6234  -47.8534 C.2       11 UNK         0.5000 
     68 O          -1.9087  -23.5131  -48.7013 O.2       11 UNK        -0.5000 
     69 N          -3.0731  -22.2380  -47.2414 N.am      12 UNK        -0.5000 
     70 CA         -4.3910  -22.8313  -47.4798 C.3       12 UNK         0.1400 
     71 CB         -5.4638  -21.9819  -46.7844 C.3       12 UNK        -0.1800 
     72 C          -4.5099  -24.3132  -47.0615 C.2       12 UNK         0.5000 
     73 O          -5.4328  -24.9857  -47.5204 O.2       12 UNK        -0.5000 
     74 N          -3.5849  -24.8019  -46.2259 N.am      13 UNK        -0.5000 
     75 CA         -3.4608  -26.2113  -45.8671 C.3       13 UNK         0.1400 
     76 CB         -3.0593  -26.3276  -44.3875 C.3       13 UNK        -0.1800 
     77 C          -2.4424  -26.9251  -46.7738 C.2       13 UNK         0.5000 
     78 O          -2.7529  -27.9881  -47.3119 O.2       13 UNK        -0.5000 
     79 N          -1.2410  -26.3454  -46.9076 N.am      14 UNK        -0.5000 
     80 CA         -0.0970  -26.9539  -47.5874 C.3       14 UNK         0.1400 
     81 CB          1.1909  -26.2445  -47.1391 C.3       14 UNK        -0.1800 
     82 C          -0.2112  -26.9463  -49.1214 C.2       14 UNK         0.5000 
     83 O           0.0183  -27.9795  -49.7516 O.2       14 UNK        -0.5000 
     84 N          -0.5400  -25.7819  -49.6916 N.am      15 UNK        -0.5000 
     85 CA         -0.6780  -25.5663  -51.1325 C.3       15 UNK         0.1400 
     86 CB         -0.0888  -24.1926  -51.4904 C.3       15 UNK        -0.1800 
     87 C          -2.1469  -25.6683  -51.5725 C.2       15 UNK         0.5000 
     88 O          -2.4152  -26.1441  -52.6769 O.2       15 UNK        -0.5000 
     89 N          -3.0661  -25.2398  -50.6940 N.am      16 UNK        -0.5000 
     90 CA         -4.5224  -25.3128  -50.8236 C.3       16 UNK         0.1400 
     91 CB         -5.0008  -26.7712  -50.6575 C.3       16 UNK        -0.1800 
     92 C          -5.0190  -24.6245  -52.1059 C.2       16 UNK         0.5000 
     93 O          -4.9556  -23.3968  -52.1852 O.2       16 UNK        -0.5000 
     94 N          -5.4638  -25.4119  -53.0938 N.am      17 UNK        -0.5000 
     95 CA         -5.9302  -24.9518  -54.4021 C.3       17 UNK         0.1400 
     96 CB         -6.4466  -26.1549  -55.2044 C.3       17 UNK        -0.1800 
     97 C          -4.8661  -24.1820  -55.2079 C.2       17 UNK         0.5000 
     98 O          -5.2256  -23.2661  -55.9470 O.2       17 UNK        -0.5000 
     99 N          -3.5798  -24.5131  -55.0162 N.am      18 UNK        -0.5000 
    100 CA        -2.4532  -23.8064  -55.6354 C.3       18 UNK         0.1400 
    101 CB        -1.1918  -24.6787  -55.5530 C.3       18 UNK        -0.1800 
    102 C         -2.2076  -22.4077  -55.0301 C.2       18 UNK         0.5000 
    103 O         -1.6205  -21.5567  -55.6983 O.2       18 UNK        -0.5000 
    104 N         -2.6888  -22.1846  -53.7996 N.am      19 UNK        -0.5000 
    105 CA        -2.7259  -20.8848  -53.1261 C.3       19 UNK         0.1400 
    106 CB        -2.3686  -21.0932  -51.6433 C.3       19 UNK        -0.1800 
    107 C         -4.1025  -20.2023  -53.2608 C.2       19 UNK         0.5000 
    108 O         -4.2914  -19.1201  -52.7072 O.2       19 UNK        -0.5000 
    109 N         -5.0578  -20.8611  -53.9370 N.am      20 UNK        -0.5000 
    110 CA        -6.4764  -20.5013  -54.0566 C.3       20 UNK         0.1400 
    111 CB        -6.6406  -19.2263  -54.9092 C.3       20 UNK        -0.1800 
    112 C         -7.2050  -20.4054  -52.6950 C.2       20 UNK         0.5000 
    113 O         -8.2131  -19.7046  -52.5917 O.2       20 UNK        -0.5000 
    114 N         -6.6730  -21.1073  -51.6800 N.am      21 UNK        -0.5000 
    115 CA        -7.0841  -21.1097  -50.2734 C.3       21 UNK         0.1400 
    116 CB        -8.3822  -21.9231  -50.1017 C.3       21 UNK        -0.1800 
    117 C         -7.1628  -19.6921  -49.6609 C.2       21 UNK         0.5000 
    118 O         -8.1634  -19.3504  -49.0278 O.2       21 UNK        -0.5000 
    119 N         -6.1179  -18.8826  -49.8926 N.am      22 UNK        -0.5000 
    120 CA        -6.0539  -17.4604  -49.5070 C.3       22 UNK         0.1400 
    121 C         -6.1104  -17.1444  -47.9810 C.2       22 UNK         0.5000 
    122 N         -5.8444  -18.0936  -47.0931 N.am      22 UNK        -0.7600 
    123 O         -6.4180  -16.0184  -47.5993 O.2       22 UNK        -0.5000 
    124 C124       -4.8827  -16.7217  -50.2071 C.3       23 UNK        -0.0398 
    125 S125       -3.2201  -17.2744  -49.6868 S.3       23 UNK        -0.2404 
    126 C126       -2.2244  -16.7590  -51.1254 C.3       23 UNK        -0.0205 
    127 H127        2.5761   -9.0869  -47.5912 H         1 UNK         0.0600 
    128 H128        1.6449   -8.0039  -48.6192 H         1 UNK         0.0600 
    129 H129        3.1784   -8.6367  -49.1986 H         1 UNK         0.0600 
    130 H130        1.6847  -11.9875  -49.8685 H         1 UNK         0.3000 
    131 H131        4.2212  -10.6609  -49.5058 H         1 UNK         0.0600 
    132 H132        3.9330  -12.5347  -51.1086 H         1 UNK         0.0800 
    133 H133        5.1833  -12.8525  -49.9539 H         1 UNK         0.0800 
    134 H134        1.8814  -13.9138  -51.4737 H         1 UNK         0.0800 
    135 H135        3.1630  -15.0386  -51.8748 H         1 UNK         0.0800 
    136 H136       -0.2666  -14.8778  -51.4309 H         1 UNK         0.1150 
    137 H137       -0.8666  -18.9496  -50.2952 H         1 UNK         0.1150 
    138 H138        3.0753  -17.2716  -50.2162 H         1 UNK         0.1150 
    139 H139        1.4154  -20.4004  -50.3087 H         1 UNK         0.0800 
    140 H140        2.8160  -19.5653  -49.7011 H         1 UNK         0.0800 
    141 H141       -1.1735  -19.8783  -47.8604 H         1 UNK         0.0800 
    142 H142       -0.5879  -20.8015  -49.2193 H         1 UNK         0.0800 
    143 H143        0.1789  -22.6258  -47.6898 H         1 UNK         0.0600 
    144 H144       -0.5867  -20.8659  -45.5790 H         1 UNK         0.3000 
    145 H145       -1.0906  -23.3874  -43.0727 H         1 UNK         0.0600 
    146 H146        0.5432  -21.8608  -41.9301 H         1 UNK         0.0600 
    147 H147        1.3216  -22.9819  -43.0359 H         1 UNK         0.0600 
    148 H148        1.1131  -21.3039  -43.5037 H         1 UNK         0.0600 
    149 H149       -1.3003  -20.4829  -43.2815 H         1 UNK         0.3000 
    150 H150       -4.7777  -20.4702  -44.0079 H         1 UNK         0.0600 
    151 H151       -4.9093  -21.0139  -41.5715 H         1 UNK         0.0600 
    152 H152       -5.0773  -19.2883  -41.8493 H         1 UNK         0.0600 
    153 H153       -3.5526  -19.9413  -41.2473 H         1 UNK         0.0600 
    154 H154       -3.0580  -18.3969  -43.1095 H         1 UNK         0.3000 
    155 H155       -1.2127  -17.7839  -46.0266 H         1 UNK         0.0600 
    156 H156       -2.2729  -15.5306  -45.9845 H         1 UNK         0.0600 
    157 H157       -3.6117  -16.1535  -45.0232 H         1 UNK         0.0600 
    158 H158       -3.3677  -16.7060  -46.6752 H         1 UNK         0.0600 
    159 H159       -1.4931  -16.2440  -43.6589 H         1 UNK         0.3000 
    160 H160       -0.7989  -17.0528  -41.5017 H         1 UNK         0.0600 
    161 H161        1.5419  -19.0386  -41.5593 H         1 UNK         0.0600 
    162 H162       -0.1135  -19.4554  -41.1315 H         1 UNK         0.0600 
    163 H163        0.7939  -18.3517  -40.1200 H         1 UNK         0.0600 
    164 H164        1.5550  -16.3014  -42.9867 H         1 UNK         0.3000 
    165 H165        2.7051  -14.0185  -40.3901 H         1 UNK         0.0600 
    166 H166        3.9200  -15.9095  -42.4699 H         1 UNK         0.0600 
    167 H167        4.7520  -14.6206  -41.6057 H         1 UNK         0.0600 
    168 H168        4.1604  -16.0245  -40.7313 H         1 UNK         0.0600 
    169 H169        2.8428  -13.8353  -43.2479 H         1 UNK         0.3000 
    170 H170        0.1000  -11.5675  -43.6285 H         1 UNK         0.0600 
    171 H171        1.8858  -10.2412  -44.7392 H         1 UNK         0.0600 
    172 H172        2.0374  -10.1346  -42.9911 H         1 UNK         0.0600 
    173 H173        3.1270  -11.1719  -43.9028 H         1 UNK         0.0600 
    174 H174        1.9114  -12.6427  -45.5297 H         1 UNK         0.3000 
    175 H175        0.1681  -15.7035  -46.1872 H         1 UNK         0.0600 
    176 H176       -0.9529  -13.9181  -47.5355 H         1 UNK         0.0600 
    177 H177        0.6056  -13.1566  -47.8335 H         1 UNK         0.0600 
    178 H178        0.2693  -14.7685  -48.4641 H         1 UNK         0.0600 
    179 H179        2.5653  -14.5299  -47.2295 H         1 UNK         0.3000 
    180 H180        4.8059  -16.1633  -44.9627 H         1 UNK         0.0600 
    181 H181        4.1983  -16.5795  -47.9380 H         1 UNK         0.0600 
    182 H182        4.2612  -17.8363  -46.7145 H         1 UNK         0.0600 
    183 H183        5.7211  -16.9517  -47.1312 H         1 UNK         0.0600 
    184 H184        5.2019  -14.3921  -47.1889 H         1 UNK         0.3000 
    185 H185        5.1706  -11.3610  -45.2935 H         1 UNK         0.0600 
    186 H186        7.4838  -11.1755  -46.1481 H         1 UNK         0.0600 
    187 H187        7.4254  -12.3385  -44.8339 H         1 UNK         0.0600 
    188 H188        7.5295  -12.9044  -46.4967 H         1 UNK         0.0600 
    189 H189        5.8704  -11.7818  -47.9846 H         1 UNK         0.3000 
    190 H190       -3.0327  -21.4527  -46.5972 H         1 UNK         0.3000 
    191 H191       -4.5710  -22.7881  -48.5551 H         1 UNK         0.0600 
    192 H192       -6.4651  -22.3329  -47.0372 H         1 UNK         0.0600 
    193 H193       -5.3986  -20.9380  -47.0865 H         1 UNK         0.0600 
    194 H194       -5.3667  -22.0271  -45.7002 H         1 UNK         0.0600 
    195 H195       -2.8676  -24.1801  -45.8791 H         1 UNK         0.3000 
    196 H196       -4.4234  -26.7136  -45.9850 H         1 UNK         0.0600 
    197 H197       -2.9774  -27.3728  -44.0872 H         1 UNK         0.0600 
    198 H198       -3.8038  -25.8603  -43.7426 H         1 UNK         0.0600 
    199 H199       -2.1001  -25.8517  -44.1836 H         1 UNK         0.0600 
    200 H200       -1.0549  -25.4770  -46.4106 H         1 UNK         0.3000 
    201 H201       -0.0293  -27.9960  -47.2674 H         1 UNK         0.0600 
    202 H202        1.3283  -26.3239  -46.0605 H         1 UNK         0.0600 
    203 H203        1.1785  -25.1843  -47.3953 H         1 UNK         0.0600 
    204 H204        2.0679  -26.6878  -47.6125 H         1 UNK         0.0600 
    205 H205       -0.7875  -24.9956  -49.0993 H         1 UNK         0.3000 
    206 H206       -0.1161  -26.3239  -51.6829 H         1 UNK         0.0600 
    207 H207        0.9812  -24.1618  -51.2850 H         1 UNK         0.0600 
    208 H208       -0.2232  -23.9605  -52.5462 H         1 UNK         0.0600 
    209 H209       -0.5566  -23.3931  -50.9194 H         1 UNK         0.0600 
    210 H210       -2.7225  -24.7761  -49.8582 H         1 UNK         0.3000 
    211 H211       -4.9415  -24.7295  -50.0071 H         1 UNK         0.0600 
    212 H212       -4.5736  -27.4373  -51.4077 H         1 UNK         0.0600 
    213 H213       -6.0873  -26.8401  -50.7246 H         1 UNK         0.0600 
    214 H214       -4.7170  -27.1574  -49.6780 H         1 UNK         0.0600 
    215 H215       -5.4423  -26.4110  -52.9504 H         1 UNK         0.3000 
    216 H216       -6.7658  -24.2699  -54.2311 H         1 UNK         0.0600 
    217 H217       -5.6594  -26.8895  -55.3790 H         1 UNK         0.0600 
    218 H218       -7.2641  -26.6548  -54.6845 H         1 UNK         0.0600 
    219 H219       -6.8259  -25.8420  -56.1781 H         1 UNK         0.0600 
    220 H220       -3.3505  -25.2514  -54.3586 H         1 UNK         0.3000 
    221 H221       -2.6843  -23.6605  -56.6928 H         1 UNK         0.0600 
    222 H222       -1.3368  -25.6274  -56.0697 H         1 UNK         0.0600 
    223 H223       -0.3406  -24.1816  -56.0201 H         1 UNK         0.0600 
    224 H224       -0.9172  -24.9005  -54.5235 H         1 UNK         0.0600 
    225 H225       -3.1919  -22.9295  -53.3334 H         1 UNK         0.3000 
    226 H226       -1.9912  -20.2042  -53.5609 H         1 UNK         0.0600 
    227 H227       -2.9330  -21.9112  -51.1947 H         1 UNK         0.0600 
    228 H228       -1.3081  -21.3144  -51.5348 H         1 UNK         0.0600 
    229 H229       -2.5728  -20.2014  -51.0510 H         1 UNK         0.0600 
    230 H230       -4.8043  -21.7387  -54.3704 H         1 UNK         0.3000 
    231 H231       -6.9520  -21.3224  -54.5945 H         1 UNK         0.0600 
    232 H232       -7.6908  -19.0362  -55.1330 H         1 UNK         0.0600 
    233 H233       -6.1198  -19.3204  -55.8621 H         1 UNK         0.0600 
    234 H234       -6.2508  -18.3450  -54.3989 H         1 UNK         0.0600 
    235 H235       -5.8823  -21.7067  -51.8993 H         1 UNK         0.3000 
    236 H236       -6.2973  -21.6317  -49.7294 H         1 UNK         0.0600 
    237 H237       -8.2693  -22.9312  -50.5007 H         1 UNK         0.0600 
    238 H238       -8.6475  -22.0198  -49.0482 H         1 UNK         0.0600 
    239 H239       -9.2233  -21.4525  -50.6117 H         1 UNK         0.0600 
    240 H240       -5.3499  -19.2172  -50.4585 H         1 UNK         0.3000 
    241 H241       -6.9673  -17.0180  -49.9095 H         1 UNK         0.0600 
    242 H242       -5.9063  -17.8815  -46.1115 H         1 UNK         0.3800 
    243 H243       -5.5520  -19.0063  -47.3972 H         1 UNK         0.3800 
    244 H244       -4.9725  -16.8499  -51.2868 H         1 UNK         0.0800 
    245 H245       -4.9549  -15.6469  -50.0323 H         1 UNK         0.0800 
    246 H246       -2.4720  -15.7253  -51.3712 H         1 UNK         0.0800 
    247 H247       -2.4965  -17.3602  -51.9926 H         1 UNK         0.0800 
@<TRIPOS>BOND
     1    1    2 1    
     2    1  127 1    
     3    1  128 1    
     4    1  129 1    
     5    2    3 2    
     6    2    4 am   BACKBONE|DICT|INTERRES
     7    4    5 1    
     8    4  130 1    
     9    5    6 1    
    10    5   65 1    
    11    5  131 1    
    12    6    7 1    
    13    6  132 1    
    14    6  133 1    
    15    7    8 1    
    16    8    9 1    
    17    8  134 1    
    18    8  135 1    
    19    9   10 ar   
    20    9   14 ar   
    21   10   11 ar   
    22   10  136 1    
    23   11   12 ar   
    24   11  126 1    
    25   12   13 ar   
    26   12  137 1    
    27   13   14 ar   
    28   13   15 1    
    29   14  138 1    
    30   15   16 1    
    31   15  139 1    
    32   15  140 1    
    33   16   17 1    
    34   17   18 1    
    35   17  141 1    
    36   17  142 1    
    37   18   19 1    
    38   18   67 1    
    39   18  143 1    
    40   19   20 am   BACKBONE|DICT|INTERRES
    41   19  144 1    
    42   20   21 2    
    43   20   22 1    
    44   22   23 1    
    45   22   24 1    
    46   22  145 1    
    47   23  146 1    
    48   23  147 1    
    49   23  148 1    
    50   24   25 am   BACKBONE|DICT|INTERRES
    51   24  149 1    
    52   25   26 2    
    53   25   27 1    
    54   27   28 1    
    55   27   29 1    
    56   27  150 1    
    57   28  151 1    
    58   28  152 1    
    59   28  153 1    
    60   29   30 am   BACKBONE|DICT|INTERRES
    61   29  154 1    
    62   30   31 2    
    63   30   32 1    
    64   32   33 1    
    65   32   34 1    
    66   32  155 1    
    67   33  156 1    
    68   33  157 1    
    69   33  158 1    
    70   34   35 am   BACKBONE|DICT|INTERRES
    71   34  159 1    
    72   35   36 2    
    73   35   37 1    
    74   37   38 1    
    75   37   39 1    
    76   37  160 1    
    77   38  161 1    
    78   38  162 1    
    79   38  163 1    
    80   39   40 am   BACKBONE|DICT|INTERRES
    81   39  164 1    
    82   40   41 2    
    83   40   42 1    
    84   42   43 1    
    85   42   44 1    
    86   42  165 1    
    87   43  166 1    
    88   43  167 1    
    89   43  168 1    
    90   44   45 am   BACKBONE|DICT|INTERRES
    91   44  169 1    
    92   45   46 2    
    93   45   47 1    
    94   47   48 1    
    95   47   49 1    
    96   47  170 1    
    97   48  171 1    
    98   48  172 1    
    99   48  173 1    
   100   49   50 am   BACKBONE|DICT|INTERRES
   101   49  174 1    
   102   50   51 2    
   103   50   52 1    
   104   52   53 1    
   105   52   54 1    
   106   52  175 1    
   107   53  176 1    
   108   53  177 1    
   109   53  178 1    
   110   54   55 am   BACKBONE|DICT|INTERRES
   111   54  179 1    
   112   55   56 2    
   113   55   57 1    
   114   57   58 1    
   115   57   59 1    
   116   57  180 1    
   117   58  181 1    
   118   58  182 1    
   119   58  183 1    
   120   59   60 am   BACKBONE|DICT|INTERRES
   121   59  184 1    
   122   60   61 2    
   123   60   62 1    
   124   62   63 1    
   125   62   64 1    
   126   62  185 1    
   127   63  186 1    
   128   63  187 1    
   129   63  188 1    
   130   64   65 am   BACKBONE|DICT|INTERRES
   131   64  189 1    
   132   65   66 2    
   133   67   68 2    
   134   67   69 am   BACKBONE|DICT|INTERRES
   135   69   70 1    
   136   69  190 1    
   137   70   71 1    
   138   70   72 1    
   139   70  191 1    
   140   71  192 1    
   141   71  193 1    
   142   71  194 1    
   143   72   73 2    
   144   72   74 am   BACKBONE|DICT|INTERRES
   145   74   75 1    
   146   74  195 1    
   147   75   76 1    
   148   75   77 1    
   149   75  196 1    
   150   76  197 1    
   151   76  198 1    
   152   76  199 1    
   153   77   78 2    
   154   77   79 am   BACKBONE|DICT|INTERRES
   155   79   80 1    
   156   79  200 1    
   157   80   81 1    
   158   80   82 1    
   159   80  201 1    
   160   81  202 1    
   161   81  203 1    
   162   81  204 1    
   163   82   83 2    
   164   82   84 am   BACKBONE|DICT|INTERRES
   165   84   85 1    
   166   84  205 1    
   167   85   86 1    
   168   85   87 1    
   169   85  206 1    
   170   86  207 1    
   171   86  208 1    
   172   86  209 1    
   173   87   88 2    
   174   87   89 am   BACKBONE|DICT|INTERRES
   175   89   90 1    
   176   89  210 1    
   177   90   91 1    
   178   90   92 1    
   179   90  211 1    
   180   91  212 1    
   181   91  213 1    
   182   91  214 1    
   183   92   93 2    
   184   92   94 am   BACKBONE|DICT|INTERRES
   185   94   95 1    
   186   94  215 1    
   187   95   96 1    
   188   95   97 1    
   189   95  216 1    
   190   96  217 1    
   191   96  218 1    
   192   96  219 1    
   193   97   98 2    
   194   97   99 am   BACKBONE|DICT|INTERRES
   195   99  100 1    
   196   99  220 1    
   197  100  101 1    
   198  100  102 1    
   199  100  221 1    
   200  101  222 1    
   201  101  223 1    
   202  101  224 1    
   203  102  103 2    
   204  102  104 am   BACKBONE|DICT|INTERRES
   205  104  105 1    
   206  104  225 1    
   207  105  106 1    
   208  105  107 1    
   209  105  226 1    
   210  106  227 1    
   211  106  228 1    
   212  106  229 1    
   213  107  108 2    
   214  107  109 am   BACKBONE|DICT|INTERRES
   215  109  110 1    
   216  109  230 1    
   217  110  111 1    
   218  110  112 1    
   219  110  231 1    
   220  111  232 1    
   221  111  233 1    
   222  111  234 1    
   223  112  113 2    
   224  112  114 am   BACKBONE|DICT|INTERRES
   225  114  115 1    
   226  114  235 1    
   227  115  116 1    
   228  115  117 1    
   229  115  236 1    
   230  116  237 1    
   231  116  238 1    
   232  116  239 1    
   233  117  118 2    
   234  117  119 am   BACKBONE|DICT|INTERRES
   235  119  120 1    
   236  119  240 1    
   237  120  121 1    
   238  120  124 1    
   239  120  241 1    
   240  121  122 am   BACKBONE|DICT|INTERRES
   241  121  123 2    
   242  122  242 1    
   243  122  243 1    
   244  124  125 1    
   245  124  244 1    
   246  124  245 1    
   247  125  126 1    
   248  126  246 1    
   249  126  247 1    
@<TRIPOS>SUBSTRUCTURE
     1 UNK         1 GROUP             0       ****    0 ROOT    
