@<TRIPOS>MOLECULE
3R540
247   249    1
SMALL
USER_CHARGES


@<TRIPOS>ATOM
      1 CA         -3.7585  -10.7234  -48.3366 C.3       0 UNK        -0.1800 
      2 C          -2.5112  -11.1256  -47.5636 C.2       0 UNK         0.5000 
      3 O          -2.4155  -10.8542  -46.3664 O.2       0 UNK        -0.5000 
      4 N          -1.5608  -11.7923  -48.2335 N.am      1 UNK        -0.5000 
      5 CA         -0.2791  -12.2393  -47.6674 C.3       1 UNK         0.1400 
      6 C6          0.7331  -12.6535  -48.7611 C.3       23 UNK        -0.0398 
      7 S7          0.1687  -14.0065  -49.8547 S.3       23 UNK        -0.2404 
      8 C8          1.4403  -15.2750  -49.5187 C.3       23 UNK        -0.0205 
      9 C9          1.5557  -16.4059  -50.5442 C.ar      23 UNK        -0.0193 
     10 C10         0.8162  -16.4533  -51.7348 C.ar      23 UNK        -0.1150 
     11 C11         1.0054  -17.4881  -52.6579 C.ar      23 UNK        -0.0193 
     12 C12         1.9491  -18.4839  -52.3879 C.ar      23 UNK        -0.1150 
     13 C13         2.7041  -18.4448  -51.2125 C.ar      23 UNK        -0.0193 
     14 C14         2.4933  -17.4113  -50.2960 C.ar      23 UNK        -0.1150 
     15 C15         3.7978  -19.4741  -50.9579 C.3       23 UNK        -0.0205 
     16 S16         3.1577  -21.1043  -50.4657 S.3       23 UNK        -0.2404 
     17 C17         2.2754  -20.7309  -48.9168 C.3       23 UNK        -0.0398 
     18 CA          0.8279  -21.2717  -48.9266 C.3       11 UNK         0.1400 
     19 N           0.3121  -21.3684  -47.5628 N.am      11 UNK        -0.5000 
     20 C          -0.4140  -22.3839  -47.0827 C.2       10 UNK         0.5000 
     21 O          -0.7226  -23.3759  -47.7443 O.2       10 UNK        -0.5000 
     22 CA         -0.8425  -22.2996  -45.6041 C.3       10 UNK         0.1400 
     23 CB          0.1070  -23.1332  -44.7305 C.3       10 UNK        -0.1800 
     24 N          -0.8863  -20.9327  -45.0821 N.am      10 UNK        -0.5000 
     25 C          -1.7773  -19.9997  -45.4438 C.2       9 UNK         0.5000 
     26 O          -2.7145  -20.2034  -46.2117 O.2       9 UNK        -0.5000 
     27 CA         -1.5700  -18.5861  -44.8740 C.3       9 UNK         0.1400 
     28 CB         -2.2796  -18.4506  -43.5195 C.3       9 UNK        -0.1800 
     29 N          -0.1609  -18.2006  -44.7385 N.am      9 UNK        -0.5000 
     30 C           0.7160  -18.1241  -45.7512 C.2       8 UNK         0.5000 
     31 O           0.4313  -18.3743  -46.9187 O.2       8 UNK        -0.5000 
     32 CA          2.1717  -17.7837  -45.3998 C.3       8 UNK         0.1400 
     33 CB          2.3604  -16.2739  -45.1870 C.3       8 UNK        -0.1800 
     34 N           2.6095  -18.5265  -44.2203 N.am      8 UNK        -0.5000 
     35 C           2.8752  -19.8416  -44.2220 C.2       7 UNK         0.5000 
     36 O           2.8643  -20.5396  -45.2362 O.2       7 UNK        -0.5000 
     37 CA          3.1666  -20.4923  -42.8564 C.3       7 UNK         0.1400 
     38 CB          4.6631  -20.3999  -42.5233 C.3       7 UNK        -0.1800 
     39 N           2.3930  -19.8913  -41.7683 N.am      7 UNK        -0.5000 
     40 C           1.0600  -19.9734  -41.6461 C.2       6 UNK         0.5000 
     41 O           0.3450  -20.6216  -42.4091 O.2       6 UNK        -0.5000 
     42 CA          0.4176  -19.1439  -40.5158 C.3       6 UNK         0.1400 
     43 CB          0.3553  -19.9595  -39.2163 C.3       6 UNK        -0.1800 
     44 N           1.1191  -17.8798  -40.2656 N.am      6 UNK        -0.5000 
     45 C           1.2324  -16.8898  -41.1605 C.2       5 UNK         0.5000 
     46 O           0.7213  -16.9226  -42.2821 O.2       5 UNK        -0.5000 
     47 CA          2.1428  -15.7188  -40.7732 C.3       5 UNK         0.1400 
     48 CB          3.6181  -16.1360  -40.9577 C.3       5 UNK        -0.1800 
     49 N           1.8280  -14.5661  -41.6143 N.am      5 UNK        -0.5000 
     50 C           2.3250  -13.3321  -41.4635 C.2       4 UNK         0.5000 
     51 O           3.0791  -13.0043  -40.5462 O.2       4 UNK        -0.5000 
     52 CA          1.9186  -12.2804  -42.5115 C.3       4 UNK         0.1400 
     53 CB          2.8071  -12.3964  -43.7596 C.3       4 UNK        -0.1800 
     54 N           0.5095  -12.3572  -42.9013 N.am      4 UNK        -0.5000 
     55 C          -0.5116  -12.0111  -42.1004 C.2       3 UNK         0.5000 
     56 O          -0.3600  -11.6318  -40.9383 O.2       3 UNK        -0.5000 
     57 CA         -1.9412  -12.0610  -42.6817 C.3       3 UNK         0.1400 
     58 CB         -2.4579  -10.6399  -42.9544 C.3       3 UNK        -0.1800 
     59 N          -2.0526  -12.8440  -43.9118 N.am      3 UNK        -0.5000 
     60 C          -1.9636  -14.1803  -43.9683 C.2       2 UNK         0.5000 
     61 O          -1.8449  -14.8881  -42.9702 O.2       2 UNK        -0.5000 
     62 CA         -1.9860  -14.8367  -45.3655 C.3       2 UNK         0.1400 
     63 CB         -3.3857  -15.3945  -45.6681 C.3       2 UNK        -0.1800 
     64 N          -1.5949  -13.9383  -46.4532 N.am      2 UNK        -0.5000 
     65 C          -0.4161  -13.3081  -46.5597 C.2       1 UNK         0.5000 
     66 O           0.5190  -13.4930  -45.7820 O.2       1 UNK        -0.5000 
     67 C          -0.1179  -20.4408  -49.8180 C.2       11 UNK         0.5000 
     68 O          -0.3351  -20.8074  -50.9739 O.2       11 UNK        -0.5000 
     69 N          -0.6854  -19.3683  -49.2523 N.am      12 UNK        -0.5000 
     70 CA         -1.6923  -18.5048  -49.8591 C.3       12 UNK         0.1400 
     71 CB         -1.8736  -17.2680  -48.9646 C.3       12 UNK        -0.1800 
     72 C          -3.0455  -19.2124  -50.0464 C.2       12 UNK         0.5000 
     73 O          -3.3342  -20.2096  -49.3833 O.2       12 UNK        -0.5000 
     74 N          -3.8889  -18.6296  -50.9086 N.am      13 UNK        -0.5000 
     75 CA         -5.2041  -19.1498  -51.3007 C.3       13 UNK         0.1400 
     76 CB         -5.7734  -18.2580  -52.4140 C.3       13 UNK        -0.1800 
     77 C          -6.2227  -19.2898  -50.1499 C.2       13 UNK         0.5000 
     78 O          -7.2159  -19.9986  -50.3120 O.2       13 UNK        -0.5000 
     79 N          -5.9506  -18.6459  -49.0056 N.am      14 UNK        -0.5000 
     80 CA         -6.7207  -18.7170  -47.7617 C.3       14 UNK         0.1400 
     81 CB         -6.0403  -17.8247  -46.7111 C.3       14 UNK        -0.1800 
     82 C          -6.9021  -20.1469  -47.2107 C.2       14 UNK         0.5000 
     83 O          -7.9295  -20.4271  -46.5922 O.2       14 UNK        -0.5000 
     84 N          -5.9238  -21.0284  -47.4617 N.am      15 UNK        -0.5000 
     85 CA         -5.9720  -22.4436  -47.0887 C.3       15 UNK         0.1400 
     86 CB         -4.5362  -22.9788  -46.9897 C.3       15 UNK        -0.1800 
     87 C          -6.8184  -23.3154  -48.0394 C.2       15 UNK         0.5000 
     88 O          -7.0845  -24.4698  -47.7007 O.2       15 UNK        -0.5000 
     89 N          -7.2155  -22.7716  -49.2015 N.am      16 UNK        -0.5000 
     90 CA         -7.9413  -23.4041  -50.3109 C.3       16 UNK         0.1400 
     91 CB         -9.3399  -23.8912  -49.8818 C.3       16 UNK        -0.1800 
     92 C          -7.1190  -24.5090  -50.9999 C.2       16 UNK         0.5000 
     93 O          -6.6610  -24.3167  -52.1262 O.2       16 UNK        -0.5000 
     94 N          -6.8836  -25.6177  -50.2894 N.am      17 UNK        -0.5000 
     95 CA         -5.9592  -26.6906  -50.6573 C.3       17 UNK         0.1400 
     96 CB         -6.4866  -28.0173  -50.0827 C.3       17 UNK        -0.1800 
     97 C          -4.5439  -26.3386  -50.1551 C.2       17 UNK         0.5000 
     98 O          -3.9590  -27.0693  -49.3533 O.2       17 UNK        -0.5000 
     99 N          -4.0553  -25.1730  -50.5906 N.am      18 UNK        -0.5000 
    100 CA        -2.8151  -24.5525  -50.1405 C.3       18 UNK         0.1400 
    101 CB        -2.8535  -23.0804  -50.5570 C.3       18 UNK        -0.1800 
    102 C         -1.5657  -25.2399  -50.7140 C.2       18 UNK         0.5000 
    103 O         -1.6404  -25.8775  -51.7671 O.2       18 UNK        -0.5000 
    104 N         -0.4278  -25.0497  -50.0340 N.am      19 UNK        -0.5000 
    105 CA         0.8636  -25.6798  -50.3327 C.3       19 UNK         0.1400 
    106 CB         1.8845  -25.2742  -49.2579 C.3       19 UNK        -0.1800 
    107 C          1.4211  -25.3917  -51.7421 C.2       19 UNK         0.5000 
    108 O          2.1090  -26.2482  -52.2991 O.2       19 UNK        -0.5000 
    109 N          1.1015  -24.2155  -52.2964 N.am      20 UNK        -0.5000 
    110 CA         1.4511  -23.8068  -53.6601 C.3       20 UNK         0.1400 
    111 CB         2.3338  -22.5498  -53.5891 C.3       20 UNK        -0.1800 
    112 C          0.1981  -23.5527  -54.5201 C.2       20 UNK         0.5000 
    113 O          0.3194  -22.9649  -55.5966 O.2       20 UNK        -0.5000 
    114 N         -0.9822  -23.9626  -54.0286 N.am      21 UNK        -0.5000 
    115 CA        -2.3351  -23.7217  -54.5497 C.3       21 UNK         0.1400 
    116 CB        -2.5315  -24.3437  -55.9455 C.3       21 UNK        -0.1800 
    117 C         -2.7578  -22.2379  -54.5217 C.2       21 UNK         0.5000 
    118 O         -3.7924  -21.9201  -53.9346 O.2       21 UNK        -0.5000 
    119 N         -1.9391  -21.3632  -55.1204 N.am      22 UNK        -0.5000 
    120 CA        -2.1158  -19.9063  -55.1989 C.3       22 UNK         0.1400 
    121 C         -3.3996  -19.4810  -55.9866 C.2       22 UNK         0.5000 
    122 N         -3.8718  -18.2515  -55.8394 N.am      22 UNK        -0.7600 
    123 O         -3.9454  -20.2392  -56.7863 O.2       22 UNK        -0.5000 
    124 C124       -1.9419  -19.2596  -53.7925 C.3       23 UNK        -0.0398 
    125 S125       -1.5538  -17.4754  -53.8043 S.3       23 UNK        -0.2404 
    126 C126        0.2599  -17.4749  -53.9874 C.3       23 UNK        -0.0205 
    127 H127       -3.7096  -11.0407  -49.3785 H         1 UNK         0.0600 
    128 H128       -3.8786   -9.6403  -48.3157 H         1 UNK         0.0600 
    129 H129       -4.6415  -11.1743  -47.8840 H         1 UNK         0.0600 
    130 H130       -1.6991  -12.0091  -49.2109 H         1 UNK         0.3000 
    131 H131        0.1500  -11.3682  -47.1672 H         1 UNK         0.0600 
    132 H132        1.6909  -12.9097  -48.3049 H         1 UNK         0.0800 
    133 H133        0.9438  -11.7916  -49.3956 H         1 UNK         0.0800 
    134 H134        1.2508  -15.7025  -48.5328 H         1 UNK         0.0800 
    135 H135        2.4141  -14.7863  -49.4646 H         1 UNK         0.0800 
    136 H136        0.1016  -15.6789  -51.9702 H         1 UNK         0.1150 
    137 H137        2.1215  -19.2740  -53.1047 H         1 UNK         0.1150 
    138 H138        3.0851  -17.3718  -49.3920 H         1 UNK         0.1150 
    139 H139        4.3908  -19.5943  -51.8656 H         1 UNK         0.0800 
    140 H140        4.4896  -19.1201  -50.1920 H         1 UNK         0.0800 
    141 H141        2.2963  -19.6648  -48.6908 H         1 UNK         0.0800 
    142 H142        2.8412  -21.2091  -48.1155 H         1 UNK         0.0800 
    143 H143        0.8545  -22.2736  -49.3572 H         1 UNK         0.0600 
    144 H144        0.4963  -20.5796  -46.9569 H         1 UNK         0.3000 
    145 H145       -1.8404  -22.7307  -45.5235 H         1 UNK         0.0600 
    146 H146       -0.2236  -23.1478  -43.6917 H         1 UNK         0.0600 
    147 H147        1.1233  -22.7380  -44.7525 H         1 UNK         0.0600 
    148 H148        0.1484  -24.1679  -45.0732 H         1 UNK         0.0600 
    149 H149       -0.2054  -20.6964  -44.3679 H         1 UNK         0.3000 
    150 H150       -2.0313  -17.8905  -45.5745 H         1 UNK         0.0600 
    151 H151       -3.3555  -18.5904  -43.6305 H         1 UNK         0.0600 
    152 H152       -2.1220  -17.4667  -43.0812 H         1 UNK         0.0600 
    153 H153       -1.9271  -19.1933  -42.8047 H         1 UNK         0.0600 
    154 H154        0.1503  -17.9324  -43.8087 H         1 UNK         0.3000 
    155 H155        2.7992  -18.0798  -46.2435 H         1 UNK         0.0600 
    156 H156        2.1528  -15.7282  -46.1079 H         1 UNK         0.0600 
    157 H157        3.3837  -16.0382  -44.8949 H         1 UNK         0.0600 
    158 H158        1.6932  -15.8761  -44.4234 H         1 UNK         0.0600 
    159 H159        2.5825  -18.0355  -43.3395 H         1 UNK         0.3000 
    160 H160        2.8939  -21.5476  -42.9259 H         1 UNK         0.0600 
    161 H161        4.9902  -19.3646  -42.4182 H         1 UNK         0.0600 
    162 H162        5.2663  -20.8569  -43.3089 H         1 UNK         0.0600 
    163 H163        4.8932  -20.9213  -41.5940 H         1 UNK         0.0600 
    164 H164        2.9056  -19.3485  -41.0898 H         1 UNK         0.3000 
    165 H165       -0.6038  -18.9053  -40.8178 H         1 UNK         0.0600 
    166 H166       -0.1680  -19.4123  -38.4319 H         1 UNK         0.0600 
    167 H167       -0.1812  -20.8969  -39.3699 H         1 UNK         0.0600 
    168 H168        1.3510  -20.2077  -38.8468 H         1 UNK         0.0600 
    169 H169        1.5725  -17.7867  -39.3679 H         1 UNK         0.3000 
    170 H170        1.9543  -15.4586  -39.7298 H         1 UNK         0.0600 
    171 H171        3.8471  -16.3459  -42.0034 H         1 UNK         0.0600 
    172 H172        4.3034  -15.3599  -40.6181 H         1 UNK         0.0600 
    173 H173        3.8531  -17.0327  -40.3833 H         1 UNK         0.0600 
    174 H174        1.1742  -14.7614  -42.3628 H         1 UNK         0.3000 
    175 H175        2.0897  -11.2946  -42.0735 H         1 UNK         0.0600 
    176 H176        2.7107  -13.3734  -44.2341 H         1 UNK         0.0600 
    177 H177        2.5524  -11.6377  -44.4998 H         1 UNK         0.0600 
    178 H178        3.8584  -12.2615  -43.5029 H         1 UNK         0.0600 
    179 H179        0.3169  -12.6787  -43.8431 H         1 UNK         0.3000 
    180 H180       -2.5846  -12.5169  -41.9262 H         1 UNK         0.0600 
    181 H181       -3.4846  -10.6557  -43.3205 H         1 UNK         0.0600 
    182 H182       -1.8455  -10.1265  -43.6968 H         1 UNK         0.0600 
    183 H183       -2.4466  -10.0369  -42.0455 H         1 UNK         0.0600 
    184 H184       -2.1546  -12.3191  -44.7731 H         1 UNK         0.3000 
    185 H185       -1.2694  -15.6583  -45.3483 H         1 UNK         0.0600 
    186 H186       -4.1317  -14.6003  -45.7151 H         1 UNK         0.0600 
    187 H187       -3.4049  -15.9262  -46.6186 H         1 UNK         0.0600 
    188 H188       -3.7054  -16.0959  -44.8964 H         1 UNK         0.0600 
    189 H189       -2.3071  -13.7135  -47.1319 H         1 UNK         0.3000 
    190 H190       -0.4101  -19.1181  -48.3062 H         1 UNK         0.3000 
    191 H191       -1.3223  -18.1918  -50.8361 H         1 UNK         0.0600 
    192 H192       -0.9267  -16.7575  -48.7984 H         1 UNK         0.0600 
    193 H193       -2.2751  -17.5430  -47.9891 H         1 UNK         0.0600 
    194 H194       -2.5547  -16.5448  -49.4140 H         1 UNK         0.0600 
    195 H195       -3.5909  -17.7878  -51.3802 H         1 UNK         0.3000 
    196 H196       -5.0489  -20.1503  -51.7108 H         1 UNK         0.0600 
    197 H197       -5.1092  -18.2311  -53.2770 H         1 UNK         0.0600 
    198 H198       -5.9230  -17.2334  -52.0716 H         1 UNK         0.0600 
    199 H199       -6.7369  -18.6325  -52.7626 H         1 UNK         0.0600 
    200 H200       -5.0977  -18.1088  -48.9710 H         1 UNK         0.3000 
    201 H201       -7.7148  -18.3153  -47.9674 H         1 UNK         0.0600 
    202 H202       -5.9834  -16.7893  -47.0473 H         1 UNK         0.0600 
    203 H203       -5.0264  -18.1644  -46.4926 H         1 UNK         0.0600 
    204 H204       -6.5967  -17.8300  -45.7730 H         1 UNK         0.0600 
    205 H205       -5.0948  -20.7151  -47.9551 H         1 UNK         0.3000 
    206 H206       -6.4254  -22.5318  -46.0992 H         1 UNK         0.0600 
    207 H207       -3.9546  -22.7479  -47.8817 H         1 UNK         0.0600 
    208 H208       -4.0284  -22.5323  -46.1370 H         1 UNK         0.0600 
    209 H209       -4.5142  -24.0600  -46.8469 H         1 UNK         0.0600 
    210 H210       -6.9697  -21.8024  -49.3711 H         1 UNK         0.3000 
    211 H211       -8.0898  -22.6176  -51.0526 H         1 UNK         0.0600 
    212 H212       -9.2968  -24.6786  -49.1295 H         1 UNK         0.0600 
    213 H213       -9.8890  -24.2892  -50.7359 H         1 UNK         0.0600 
    214 H214       -9.9291  -23.0713  -49.4711 H         1 UNK         0.0600 
    215 H215       -7.1941  -25.6089  -49.3226 H         1 UNK         0.3000 
    216 H216       -5.9131  -26.7875  -51.7440 H         1 UNK         0.0600 
    217 H217       -5.8310  -28.8472  -50.3495 H         1 UNK         0.0600 
    218 H218       -7.4776  -28.2482  -50.4738 H         1 UNK         0.0600 
    219 H219       -6.5554  -27.9865  -48.9945 H         1 UNK         0.0600 
    220 H220       -4.6014  -24.6554  -51.2666 H         1 UNK         0.3000 
    221 H221       -2.7835  -24.6130  -49.0508 H         1 UNK         0.0600 
    222 H222       -2.6731  -22.9471  -51.6224 H         1 UNK         0.0600 
    223 H223       -3.8145  -22.6223  -50.3231 H         1 UNK         0.0600 
    224 H224       -2.0910  -22.5203  -50.0204 H         1 UNK         0.0600 
    225 H225       -0.4682  -24.4848  -49.1865 H         1 UNK         0.3000 
    226 H226        0.7121  -26.7587  -50.2623 H         1 UNK         0.0600 
    227 H227        1.5212  -25.5070  -48.2567 H         1 UNK         0.0600 
    228 H228        2.8252  -25.8093  -49.3942 H         1 UNK         0.0600 
    229 H229        2.1102  -24.2087  -49.2939 H         1 UNK         0.0600 
    230 H230        0.5435  -23.5629  -51.7635 H         1 UNK         0.3000 
    231 H231        2.0178  -24.5899  -54.1671 H         1 UNK         0.0600 
    232 H232        2.6535  -22.2296  -54.5813 H         1 UNK         0.0600 
    233 H233        3.2365  -22.7384  -53.0083 H         1 UNK         0.0600 
    234 H234        1.8018  -21.7164  -53.1287 H         1 UNK         0.0600 
    235 H235       -0.9609  -24.4982  -53.1680 H         1 UNK         0.3000 
    236 H236       -3.0049  -24.2492  -53.8682 H         1 UNK         0.0600 
    237 H237       -1.9092  -23.8658  -56.7022 H         1 UNK         0.0600 
    238 H238       -2.2939  -25.4075  -55.9385 H         1 UNK         0.0600 
    239 H239       -3.5680  -24.2437  -56.2696 H         1 UNK         0.0600 
    240 H240       -1.1037  -21.7415  -55.5586 H         1 UNK         0.3000 
    241 H241       -1.2869  -19.5676  -55.8206 H         1 UNK         0.0600 
    242 H242       -4.6828  -17.9654  -56.3648 H         1 UNK         0.3800 
    243 H243       -3.4097  -17.5954  -55.2262 H         1 UNK         0.3800 
    244 H244       -1.1407  -19.7614  -53.2486 H         1 UNK         0.0800 
    245 H245       -2.8426  -19.4240  -53.2045 H         1 UNK         0.0800 
    246 H246        0.5480  -16.5723  -54.5277 H         1 UNK         0.0800 
    247 H247        0.5650  -18.3121  -54.6170 H         1 UNK         0.0800 
@<TRIPOS>BOND
     1    1    2 1    
     2    1  127 1    
     3    1  128 1    
     4    1  129 1    
     5    2    3 2    
     6    2    4 am   BACKBONE|DICT|INTERRES
     7    4    5 1    
     8    4  130 1    
     9    5    6 1    
    10    5   65 1    
    11    5  131 1    
    12    6    7 1    
    13    6  132 1    
    14    6  133 1    
    15    7    8 1    
    16    8    9 1    
    17    8  134 1    
    18    8  135 1    
    19    9   10 ar   
    20    9   14 ar   
    21   10   11 ar   
    22   10  136 1    
    23   11   12 ar   
    24   11  126 1    
    25   12   13 ar   
    26   12  137 1    
    27   13   14 ar   
    28   13   15 1    
    29   14  138 1    
    30   15   16 1    
    31   15  139 1    
    32   15  140 1    
    33   16   17 1    
    34   17   18 1    
    35   17  141 1    
    36   17  142 1    
    37   18   19 1    
    38   18   67 1    
    39   18  143 1    
    40   19   20 am   BACKBONE|DICT|INTERRES
    41   19  144 1    
    42   20   21 2    
    43   20   22 1    
    44   22   23 1    
    45   22   24 1    
    46   22  145 1    
    47   23  146 1    
    48   23  147 1    
    49   23  148 1    
    50   24   25 am   BACKBONE|DICT|INTERRES
    51   24  149 1    
    52   25   26 2    
    53   25   27 1    
    54   27   28 1    
    55   27   29 1    
    56   27  150 1    
    57   28  151 1    
    58   28  152 1    
    59   28  153 1    
    60   29   30 am   BACKBONE|DICT|INTERRES
    61   29  154 1    
    62   30   31 2    
    63   30   32 1    
    64   32   33 1    
    65   32   34 1    
    66   32  155 1    
    67   33  156 1    
    68   33  157 1    
    69   33  158 1    
    70   34   35 am   BACKBONE|DICT|INTERRES
    71   34  159 1    
    72   35   36 2    
    73   35   37 1    
    74   37   38 1    
    75   37   39 1    
    76   37  160 1    
    77   38  161 1    
    78   38  162 1    
    79   38  163 1    
    80   39   40 am   BACKBONE|DICT|INTERRES
    81   39  164 1    
    82   40   41 2    
    83   40   42 1    
    84   42   43 1    
    85   42   44 1    
    86   42  165 1    
    87   43  166 1    
    88   43  167 1    
    89   43  168 1    
    90   44   45 am   BACKBONE|DICT|INTERRES
    91   44  169 1    
    92   45   46 2    
    93   45   47 1    
    94   47   48 1    
    95   47   49 1    
    96   47  170 1    
    97   48  171 1    
    98   48  172 1    
    99   48  173 1    
   100   49   50 am   BACKBONE|DICT|INTERRES
   101   49  174 1    
   102   50   51 2    
   103   50   52 1    
   104   52   53 1    
   105   52   54 1    
   106   52  175 1    
   107   53  176 1    
   108   53  177 1    
   109   53  178 1    
   110   54   55 am   BACKBONE|DICT|INTERRES
   111   54  179 1    
   112   55   56 2    
   113   55   57 1    
   114   57   58 1    
   115   57   59 1    
   116   57  180 1    
   117   58  181 1    
   118   58  182 1    
   119   58  183 1    
   120   59   60 am   BACKBONE|DICT|INTERRES
   121   59  184 1    
   122   60   61 2    
   123   60   62 1    
   124   62   63 1    
   125   62   64 1    
   126   62  185 1    
   127   63  186 1    
   128   63  187 1    
   129   63  188 1    
   130   64   65 am   BACKBONE|DICT|INTERRES
   131   64  189 1    
   132   65   66 2    
   133   67   68 2    
   134   67   69 am   BACKBONE|DICT|INTERRES
   135   69   70 1    
   136   69  190 1    
   137   70   71 1    
   138   70   72 1    
   139   70  191 1    
   140   71  192 1    
   141   71  193 1    
   142   71  194 1    
   143   72   73 2    
   144   72   74 am   BACKBONE|DICT|INTERRES
   145   74   75 1    
   146   74  195 1    
   147   75   76 1    
   148   75   77 1    
   149   75  196 1    
   150   76  197 1    
   151   76  198 1    
   152   76  199 1    
   153   77   78 2    
   154   77   79 am   BACKBONE|DICT|INTERRES
   155   79   80 1    
   156   79  200 1    
   157   80   81 1    
   158   80   82 1    
   159   80  201 1    
   160   81  202 1    
   161   81  203 1    
   162   81  204 1    
   163   82   83 2    
   164   82   84 am   BACKBONE|DICT|INTERRES
   165   84   85 1    
   166   84  205 1    
   167   85   86 1    
   168   85   87 1    
   169   85  206 1    
   170   86  207 1    
   171   86  208 1    
   172   86  209 1    
   173   87   88 2    
   174   87   89 am   BACKBONE|DICT|INTERRES
   175   89   90 1    
   176   89  210 1    
   177   90   91 1    
   178   90   92 1    
   179   90  211 1    
   180   91  212 1    
   181   91  213 1    
   182   91  214 1    
   183   92   93 2    
   184   92   94 am   BACKBONE|DICT|INTERRES
   185   94   95 1    
   186   94  215 1    
   187   95   96 1    
   188   95   97 1    
   189   95  216 1    
   190   96  217 1    
   191   96  218 1    
   192   96  219 1    
   193   97   98 2    
   194   97   99 am   BACKBONE|DICT|INTERRES
   195   99  100 1    
   196   99  220 1    
   197  100  101 1    
   198  100  102 1    
   199  100  221 1    
   200  101  222 1    
   201  101  223 1    
   202  101  224 1    
   203  102  103 2    
   204  102  104 am   BACKBONE|DICT|INTERRES
   205  104  105 1    
   206  104  225 1    
   207  105  106 1    
   208  105  107 1    
   209  105  226 1    
   210  106  227 1    
   211  106  228 1    
   212  106  229 1    
   213  107  108 2    
   214  107  109 am   BACKBONE|DICT|INTERRES
   215  109  110 1    
   216  109  230 1    
   217  110  111 1    
   218  110  112 1    
   219  110  231 1    
   220  111  232 1    
   221  111  233 1    
   222  111  234 1    
   223  112  113 2    
   224  112  114 am   BACKBONE|DICT|INTERRES
   225  114  115 1    
   226  114  235 1    
   227  115  116 1    
   228  115  117 1    
   229  115  236 1    
   230  116  237 1    
   231  116  238 1    
   232  116  239 1    
   233  117  118 2    
   234  117  119 am   BACKBONE|DICT|INTERRES
   235  119  120 1    
   236  119  240 1    
   237  120  121 1    
   238  120  124 1    
   239  120  241 1    
   240  121  122 am   BACKBONE|DICT|INTERRES
   241  121  123 2    
   242  122  242 1    
   243  122  243 1    
   244  124  125 1    
   245  124  244 1    
   246  124  245 1    
   247  125  126 1    
   248  126  246 1    
   249  126  247 1    
@<TRIPOS>SUBSTRUCTURE
     1 UNK         1 GROUP             0       ****    0 ROOT    
