@<TRIPOS>MOLECULE
3R540
247   249    1
SMALL
USER_CHARGES


@<TRIPOS>ATOM
      1 CA          0.6435  -11.7731  -47.8308 C.3       0 UNK        -0.1800 
      2 C           1.0659  -12.7036  -48.9587 C.2       0 UNK         0.5000 
      3 O           2.1979  -12.6169  -49.4333 O.2       0 UNK        -0.5000 
      4 N           0.1646  -13.6021  -49.3782 N.am      1 UNK        -0.5000 
      5 CA          0.3973  -14.6161  -50.4187 C.3       1 UNK         0.1400 
      6 C6         -0.9094  -15.3326  -50.8353 C.3       23 UNK        -0.0398 
      7 S7         -2.1374  -14.2169  -51.5981 S.3       23 UNK        -0.2404 
      8 C8         -3.2005  -13.7399  -50.1954 C.3       23 UNK        -0.0205 
      9 C9         -3.8540  -14.9329  -49.5134 C.ar      23 UNK        -0.0193 
     10 C10        -4.9084  -15.6063  -50.1338 C.ar      23 UNK        -0.1150 
     11 C11        -5.5277  -16.6895  -49.5039 C.ar      23 UNK        -0.0193 
     12 C12        -5.0782  -17.1074  -48.2466 C.ar      23 UNK        -0.1150 
     13 C13        -4.0335  -16.4303  -47.6096 C.ar      23 UNK        -0.0193 
     14 C14        -3.4258  -15.3455  -48.2482 C.ar      23 UNK        -0.1150 
     15 C15        -3.6115  -16.8027  -46.1974 C.3       23 UNK        -0.0205 
     16 S16        -1.9890  -17.6378  -46.1305 S.3       23 UNK        -0.2404 
     17 C17        -2.4783  -19.3358  -45.6789 C.3       23 UNK        -0.0398 
     18 CA         -1.3730  -20.3826  -45.9639 C.3       11 UNK         0.1400 
     19 N          -0.1742  -20.2214  -45.1277 N.am      11 UNK        -0.5000 
     20 C           0.9800  -20.8696  -45.3544 C.2       10 UNK         0.5000 
     21 O           1.1713  -21.5962  -46.3291 O.2       10 UNK        -0.5000 
     22 CA          2.0814  -20.7518  -44.2883 C.3       10 UNK         0.1400 
     23 CB          2.9557  -19.5146  -44.5078 C.3       10 UNK        -0.1800 
     24 N           1.5357  -20.7530  -42.9303 N.am      10 UNK        -0.5000 
     25 C           1.1347  -21.8761  -42.3201 C.2       9 UNK         0.5000 
     26 O           1.1394  -22.9777  -42.8662 O.2       9 UNK        -0.5000 
     27 CA          0.6379  -21.7781  -40.8681 C.3       9 UNK         0.1400 
     28 CB          1.8146  -21.9455  -39.8950 C.3       9 UNK        -0.1800 
     29 N          -0.0899  -20.5577  -40.5254 N.am      9 UNK        -0.5000 
     30 C          -1.1732  -20.0729  -41.1449 C.2       8 UNK         0.5000 
     31 O          -1.6173  -20.5199  -42.2069 O.2       8 UNK        -0.5000 
     32 CA         -1.8925  -18.9027  -40.4507 C.3       8 UNK         0.1400 
     33 CB         -1.0784  -18.2189  -39.3296 C.3       8 UNK        -0.1800 
     34 N          -2.2611  -17.9203  -41.4562 N.am      8 UNK        -0.5000 
     35 C          -3.3121  -17.0950  -41.3999 C.2       7 UNK         0.5000 
     36 O          -4.1280  -17.0906  -40.4764 O.2       7 UNK        -0.5000 
     37 CA         -3.4812  -16.1221  -42.5865 C.3       7 UNK         0.1400 
     38 CB         -4.1921  -14.8086  -42.1993 C.3       7 UNK        -0.1800 
     39 N          -2.2213  -15.8612  -43.2965 N.am      7 UNK        -0.5000 
     40 C          -1.1318  -15.2483  -42.8172 C.2       6 UNK         0.5000 
     41 O          -1.0606  -14.7054  -41.7123 O.2       6 UNK        -0.5000 
     42 CA          0.0990  -15.2711  -43.7379 C.3       6 UNK         0.1400 
     43 CB          0.2655  -13.9312  -44.4705 C.3       6 UNK        -0.1800 
     44 N           1.3143  -15.5794  -42.9897 N.am      6 UNK        -0.5000 
     45 C           1.5663  -16.7543  -42.3980 C.2       5 UNK         0.5000 
     46 O           0.8146  -17.7332  -42.4486 O.2       5 UNK        -0.5000 
     47 CA          2.9314  -16.8565  -41.7067 C.3       5 UNK         0.1400 
     48 CB          3.1099  -18.1602  -40.8977 C.3       5 UNK        -0.1800 
     49 N           3.9605  -16.7106  -42.7345 N.am      5 UNK        -0.5000 
     50 C           5.2623  -16.4876  -42.5157 C.2       4 UNK         0.5000 
     51 O           5.7664  -16.4085  -41.3948 O.2       4 UNK        -0.5000 
     52 CA          6.1581  -16.3010  -43.7585 C.3       4 UNK         0.1400 
     53 CB          6.7252  -17.6533  -44.2171 C.3       4 UNK        -0.1800 
     54 N           5.4784  -15.6630  -44.8888 N.am      4 UNK        -0.5000 
     55 C           4.9674  -14.4241  -44.8847 C.2       3 UNK         0.5000 
     56 O           5.0668  -13.6533  -43.9293 O.2       3 UNK        -0.5000 
     57 CA          4.2114  -13.9527  -46.1459 C.3       3 UNK         0.1400 
     58 CB          5.0591  -12.9340  -46.9238 C.3       3 UNK        -0.1800 
     59 N           3.7638  -14.9942  -47.0806 N.am      3 UNK        -0.5000 
     60 C           2.9898  -16.0515  -46.8000 C.2       2 UNK         0.5000 
     61 O           2.6557  -16.3710  -45.6608 O.2       2 UNK        -0.5000 
     62 CA          2.4486  -16.8153  -48.0173 C.3       2 UNK         0.1400 
     63 CB          1.7307  -18.1300  -47.6645 C.3       2 UNK        -0.1800 
     64 N           1.5022  -15.9258  -48.6723 N.am      2 UNK        -0.5000 
     65 C           1.4416  -15.6659  -49.9823 C.2       1 UNK         0.5000 
     66 O           2.1611  -16.2017  -50.8259 O.2       1 UNK        -0.5000 
     67 C          -1.9432  -21.8099  -45.8322 C.2       11 UNK         0.5000 
     68 O          -2.3767  -22.3808  -46.8338 O.2       11 UNK        -0.5000 
     69 N          -1.8979  -22.3706  -44.6134 N.am      12 UNK        -0.5000 
     70 CA         -2.2908  -23.7489  -44.3211 C.3       12 UNK         0.1400 
     71 CB         -2.3446  -23.9632  -42.8014 C.3       12 UNK        -0.1800 
     72 C          -1.3706  -24.7829  -44.9975 C.2       12 UNK         0.5000 
     73 O          -1.8750  -25.7317  -45.5968 O.2       12 UNK        -0.5000 
     74 N          -0.0485  -24.5638  -44.9343 N.am      13 UNK        -0.5000 
     75 CA          0.9703  -25.3941  -45.5853 C.3       13 UNK         0.1400 
     76 CB          2.3676  -24.9707  -45.1085 C.3       13 UNK        -0.1800 
     77 C           0.8900  -25.3524  -47.1224 C.2       13 UNK         0.5000 
     78 O           1.0740  -26.3842  -47.7687 O.2       13 UNK        -0.5000 
     79 N           0.5777  -24.1726  -47.6762 N.am      14 UNK        -0.5000 
     80 CA          0.2979  -23.9641  -49.0993 C.3       14 UNK         0.1400 
     81 CB          0.3487  -22.4562  -49.3936 C.3       14 UNK        -0.1800 
     82 C          -1.0572  -24.5513  -49.5490 C.2       14 UNK         0.5000 
     83 O          -1.2828  -24.6870  -50.7515 O.2       14 UNK        -0.5000 
     84 N          -1.9311  -24.8665  -48.5805 N.am      15 UNK        -0.5000 
     85 CA         -3.3116  -25.3330  -48.7254 C.3       15 UNK         0.1400 
     86 CB         -3.3561  -26.7648  -49.2963 C.3       15 UNK        -0.1800 
     87 C          -4.2048  -24.3187  -49.4697 C.2       15 UNK         0.5000 
     88 O          -5.0661  -24.7089  -50.2613 O.2       15 UNK        -0.5000 
     89 N          -3.9722  -23.0287  -49.1772 N.am      16 UNK        -0.5000 
     90 CA         -4.6671  -21.8413  -49.6766 C.3       16 UNK         0.1400 
     91 CB         -5.9842  -21.6488  -48.8943 C.3       16 UNK        -0.1800 
     92 C          -4.8432  -21.8500  -51.2096 C.2       16 UNK         0.5000 
     93 O          -3.8656  -21.6626  -51.9359 O.2       16 UNK        -0.5000 
     94 N          -6.0788  -22.0863  -51.6723 N.am      17 UNK        -0.5000 
     95 CA         -6.4879  -22.0875  -53.0765 C.3       17 UNK         0.1400 
     96 CB         -8.0128  -22.2502  -53.1517 C.3       17 UNK        -0.1800 
     97 C          -5.7815  -23.1364  -53.9550 C.2       17 UNK         0.5000 
     98 O          -5.7415  -22.9575  -55.1721 O.2       17 UNK        -0.5000 
     99 N          -5.1909  -24.1747  -53.3447 N.am      18 UNK        -0.5000 
    100 CA        -4.3533  -25.1674  -54.0239 C.3       18 UNK         0.1400 
    101 CB        -3.9845  -26.2770  -53.0327 C.3       18 UNK        -0.1800 
    102 C         -3.0754  -24.5682  -54.6492 C.2       18 UNK         0.5000 
    103 O         -2.5749  -25.1130  -55.6336 O.2       18 UNK        -0.5000 
    104 N         -2.5900  -23.4472  -54.0951 N.am      19 UNK        -0.5000 
    105 CA        -1.4636  -22.6764  -54.6245 C.3       19 UNK         0.1400 
    106 CB        -0.7712  -21.9539  -53.4581 C.3       19 UNK        -0.1800 
    107 C         -1.8839  -21.6718  -55.7186 C.2       19 UNK         0.5000 
    108 O         -1.0153  -21.0034  -56.2782 O.2       19 UNK        -0.5000 
    109 N         -3.1957  -21.5527  -55.9824 N.am      20 UNK        -0.5000 
    110 CA        -3.8712  -20.6848  -56.9593 C.3       20 UNK         0.1400 
    111 CB        -3.3755  -20.9646  -58.3919 C.3       20 UNK        -0.1800 
    112 C         -3.8434  -19.1754  -56.6357 C.2       20 UNK         0.5000 
    113 O         -4.5559  -18.4116  -57.2899 O.2       20 UNK        -0.5000 
    114 N         -3.0709  -18.7633  -55.6207 N.am      21 UNK        -0.5000 
    115 CA        -2.8853  -17.3733  -55.1906 C.3       21 UNK         0.1400 
    116 CB        -1.8033  -17.3327  -54.1020 C.3       21 UNK        -0.1800 
    117 C         -4.1750  -16.6878  -54.6969 C.2       21 UNK         0.5000 
    118 O         -4.2852  -15.4646  -54.7859 O.2       21 UNK        -0.5000 
    119 N         -5.1313  -17.4908  -54.2164 N.am      22 UNK        -0.5000 
    120 CA        -6.4788  -17.0583  -53.8162 C.3       22 UNK         0.1400 
    121 C         -7.4174  -16.6978  -55.0074 C.2       22 UNK         0.5000 
    122 N         -7.0589  -16.9728  -56.2574 N.am      22 UNK        -0.7600 
    123 O         -8.4956  -16.1515  -54.7917 O.2       22 UNK        -0.5000 
    124 C124       -7.1616  -18.0880  -52.8784 C.3       23 UNK        -0.0398 
    125 S125       -6.1271  -18.5449  -51.4451 S.3       23 UNK        -0.2404 
    126 C126       -6.7018  -17.3808  -50.1756 C.3       23 UNK        -0.0205 
    127 H127       -0.3683  -11.9862  -47.4850 H         1 UNK         0.0600 
    128 H128        0.6779  -10.7369  -48.1669 H         1 UNK         0.0600 
    129 H129        1.3212  -11.8807  -46.9838 H         1 UNK         0.0600 
    130 H130       -0.7549  -13.6054  -48.9651 H         1 UNK         0.3000 
    131 H131        0.8019  -14.1053  -51.2953 H         1 UNK         0.0600 
    132 H132       -1.3488  -15.8635  -49.9909 H         1 UNK         0.0800 
    133 H133       -0.6888  -16.1029  -51.5758 H         1 UNK         0.0800 
    134 H134       -3.9808  -13.0734  -50.5655 H         1 UNK         0.0800 
    135 H135       -2.6242  -13.1517  -49.4812 H         1 UNK         0.0800 
    136 H136       -5.2490  -15.2840  -51.1079 H         1 UNK         0.1150 
    137 H137       -5.5619  -17.9384  -47.7527 H         1 UNK         0.1150 
    138 H138       -2.6269  -14.8160  -47.7489 H         1 UNK         0.1150 
    139 H139       -4.3762  -17.4145  -45.7165 H         1 UNK         0.0800 
    140 H140       -3.5629  -15.8802  -45.6196 H         1 UNK         0.0800 
    141 H141       -2.7642  -19.3529  -44.6255 H         1 UNK         0.0800 
    142 H142       -3.3782  -19.5791  -46.2480 H         1 UNK         0.0800 
    143 H143       -1.0651  -20.2607  -47.0049 H         1 UNK         0.0600 
    144 H144       -0.2679  -19.6684  -44.2876 H         1 UNK         0.3000 
    145 H145        2.7343  -21.6209  -44.3954 H         1 UNK         0.0600 
    146 H146        3.4795  -19.5724  -45.4609 H         1 UNK         0.0600 
    147 H147        3.7208  -19.4267  -43.7382 H         1 UNK         0.0600 
    148 H148        2.3576  -18.6063  -44.5075 H         1 UNK         0.0600 
    149 H149        1.4310  -19.8597  -42.4646 H         1 UNK         0.3000 
    150 H150       -0.0494  -22.6107  -40.7084 H         1 UNK         0.0600 
    151 H151        2.5176  -21.1147  -39.9672 H         1 UNK         0.0600 
    152 H152        2.3679  -22.8624  -40.1033 H         1 UNK         0.0600 
    153 H153        1.4694  -22.0052  -38.8627 H         1 UNK         0.0600 
    154 H154        0.2041  -20.0973  -39.6769 H         1 UNK         0.3000 
    155 H155       -2.8002  -19.3229  -40.0132 H         1 UNK         0.0600 
    156 H156       -1.6406  -17.3981  -38.8837 H         1 UNK         0.0600 
    157 H157       -0.1426  -17.8053  -39.7072 H         1 UNK         0.0600 
    158 H158       -0.8439  -18.9124  -38.5213 H         1 UNK         0.0600 
    159 H159       -1.6360  -17.8708  -42.2494 H         1 UNK         0.3000 
    160 H160       -4.1278  -16.6410  -43.2944 H         1 UNK         0.0600 
    161 H161       -3.6578  -14.2716  -41.4154 H         1 UNK         0.0600 
    162 H162       -5.1991  -15.0044  -41.8294 H         1 UNK         0.0600 
    163 H163       -4.2872  -14.1440  -43.0580 H         1 UNK         0.0600 
    164 H164       -2.1513  -16.2856  -44.2125 H         1 UNK         0.3000 
    165 H165       -0.0285  -16.0539  -44.4883 H         1 UNK         0.0600 
    166 H166        1.0876  -13.9743  -45.1835 H         1 UNK         0.0600 
    167 H167       -0.6347  -13.6787  -45.0323 H         1 UNK         0.0600 
    168 H168        0.4613  -13.1132  -43.7763 H         1 UNK         0.0600 
    169 H169        1.9907  -14.8361  -42.9046 H         1 UNK         0.3000 
    170 H170        3.0040  -16.0140  -41.0160 H         1 UNK         0.0600 
    171 H171        4.0148  -18.1311  -40.2917 H         1 UNK         0.0600 
    172 H172        3.1748  -19.0351  -41.5404 H         1 UNK         0.0600 
    173 H173        2.2758  -18.3145  -40.2127 H         1 UNK         0.0600 
    174 H174        3.6208  -16.7153  -43.6916 H         1 UNK         0.3000 
    175 H175        6.9932  -15.6603  -43.4681 H         1 UNK         0.0600 
    176 H176        7.2522  -18.1527  -43.4029 H         1 UNK         0.0600 
    177 H177        5.9371  -18.3253  -44.5590 H         1 UNK         0.0600 
    178 H178        7.4366  -17.5267  -45.0334 H         1 UNK         0.0600 
    179 H179        5.3383  -16.2278  -45.7129 H         1 UNK         0.3000 
    180 H180        3.3161  -13.4385  -45.7935 H         1 UNK         0.0600 
    181 H181        5.9524  -13.3959  -47.3459 H         1 UNK         0.0600 
    182 H182        5.3850  -12.1168  -46.2788 H         1 UNK         0.0600 
    183 H183        4.4913  -12.4897  -47.7417 H         1 UNK         0.0600 
    184 H184        3.9612  -14.8095  -48.0539 H         1 UNK         0.3000 
    185 H185        3.2902  -17.0402  -48.6757 H         1 UNK         0.0600 
    186 H186        2.4421  -18.8740  -47.3133 H         1 UNK         0.0600 
    187 H187        0.9759  -17.9914  -46.8898 H         1 UNK         0.0600 
    188 H188        1.2339  -18.5561  -48.5362 H         1 UNK         0.0600 
    189 H189        0.8944  -15.4076  -48.0544 H         1 UNK         0.3000 
    190 H190       -1.5680  -21.8137  -43.8321 H         1 UNK         0.3000 
    191 H191       -3.2987  -23.8950  -44.7153 H         1 UNK         0.0600 
    192 H192       -3.0184  -23.2504  -42.3255 H         1 UNK         0.0600 
    193 H193       -2.7065  -24.9640  -42.5629 H         1 UNK         0.0600 
    194 H194       -1.3633  -23.8534  -42.3419 H         1 UNK         0.0600 
    195 H195        0.2966  -23.8010  -44.3580 H         1 UNK         0.3000 
    196 H196        0.8053  -26.4277  -45.2743 H         1 UNK         0.0600 
    197 H197        3.1423  -25.5794  -45.5765 H         1 UNK         0.0600 
    198 H198        2.4692  -25.0908  -44.0299 H         1 UNK         0.0600 
    199 H199        2.5762  -23.9286  -45.3519 H         1 UNK         0.0600 
    200 H200        0.5219  -23.3519  -47.0809 H         1 UNK         0.3000 
    201 H201        1.0800  -24.4550  -49.6818 H         1 UNK         0.0600 
    202 H202        0.1852  -22.2549  -50.4519 H         1 UNK         0.0600 
    203 H203        1.3188  -22.0344  -49.1301 H         1 UNK         0.0600 
    204 H204       -0.4147  -21.9129  -48.8360 H         1 UNK         0.0600 
    205 H205       -1.6376  -24.7081  -47.6256 H         1 UNK         0.3000 
    206 H206       -3.7187  -25.3814  -47.7146 H         1 UNK         0.0600 
    207 H207       -2.8501  -27.4610  -48.6274 H         1 UNK         0.0600 
    208 H208       -4.3821  -27.1166  -49.4101 H         1 UNK         0.0600 
    209 H209       -2.8713  -26.8366  -50.2679 H         1 UNK         0.0600 
    210 H210       -3.2476  -22.8397  -48.4892 H         1 UNK         0.3000 
    211 H211       -4.0245  -20.9886  -49.4519 H         1 UNK         0.0600 
    212 H212       -6.6523  -22.5048  -48.9952 H         1 UNK         0.0600 
    213 H213       -6.5196  -20.7604  -49.2320 H         1 UNK         0.0600 
    214 H214       -5.7841  -21.5141  -47.8312 H         1 UNK         0.0600 
    215 H215       -6.8061  -22.2688  -50.9968 H         1 UNK         0.3000 
    216 H216       -6.2277  -21.1112  -53.4886 H         1 UNK         0.0600 
    217 H217       -8.3598  -22.2211  -54.1855 H         1 UNK         0.0600 
    218 H218       -8.3363  -23.1993  -52.7227 H         1 UNK         0.0600 
    219 H219       -8.5218  -21.4475  -52.6176 H         1 UNK         0.0600 
    220 H220       -5.2538  -24.2478  -52.3342 H         1 UNK         0.3000 
    221 H221       -4.9440  -25.6076  -54.8298 H         1 UNK         0.0600 
    222 H222       -3.3487  -25.8867  -52.2391 H         1 UNK         0.0600 
    223 H223       -4.8702  -26.7161  -52.5731 H         1 UNK         0.0600 
    224 H224       -3.4372  -27.0802  -53.5275 H         1 UNK         0.0600 
    225 H225       -3.0587  -23.0536  -53.2852 H         1 UNK         0.3000 
    226 H226       -0.7392  -23.3597  -55.0724 H         1 UNK         0.0600 
    227 H227        0.1192  -21.4225  -53.7962 H         1 UNK         0.0600 
    228 H228       -1.4289  -21.2243  -52.9847 H         1 UNK         0.0600 
    229 H229       -0.4538  -22.6651  -52.6960 H         1 UNK         0.0600 
    230 H230       -3.8262  -22.1564  -55.4678 H         1 UNK         0.3000 
    231 H231       -4.9229  -20.9720  -56.9217 H         1 UNK         0.0600 
    232 H232       -2.3434  -20.6453  -58.5372 H         1 UNK         0.0600 
    233 H233       -3.9838  -20.4332  -59.1249 H         1 UNK         0.0600 
    234 H234       -3.4367  -22.0265  -58.6299 H         1 UNK         0.0600 
    235 H235       -2.5048  -19.4574  -55.1558 H         1 UNK         0.3000 
    236 H236       -2.5252  -16.8087  -56.0529 H         1 UNK         0.0600 
    237 H237       -2.1177  -17.8608  -53.2006 H         1 UNK         0.0600 
    238 H238       -0.8724  -17.7813  -54.4494 H         1 UNK         0.0600 
    239 H239       -1.5807  -16.3028  -53.8221 H         1 UNK         0.0600 
    240 H240       -4.9438  -18.4801  -54.1632 H         1 UNK         0.3000 
    241 H241       -6.3611  -16.1352  -53.2457 H         1 UNK         0.0600 
    242 H242       -6.1710  -17.4140  -56.4684 H         1 UNK         0.3800 
    243 H243       -7.6798  -16.7270  -57.0121 H         1 UNK         0.3800 
    244 H244       -7.3887  -19.0012  -53.4297 H         1 UNK         0.0800 
    245 H245       -8.1226  -17.7130  -52.5225 H         1 UNK         0.0800 
    246 H246       -7.3567  -16.6251  -50.6112 H         1 UNK         0.0800 
    247 H247       -7.3034  -17.9211  -49.4431 H         1 UNK         0.0800 
@<TRIPOS>BOND
     1    1    2 1    
     2    1  127 1    
     3    1  128 1    
     4    1  129 1    
     5    2    3 2    
     6    2    4 am   BACKBONE|DICT|INTERRES
     7    4    5 1    
     8    4  130 1    
     9    5    6 1    
    10    5   65 1    
    11    5  131 1    
    12    6    7 1    
    13    6  132 1    
    14    6  133 1    
    15    7    8 1    
    16    8    9 1    
    17    8  134 1    
    18    8  135 1    
    19    9   10 ar   
    20    9   14 ar   
    21   10   11 ar   
    22   10  136 1    
    23   11   12 ar   
    24   11  126 1    
    25   12   13 ar   
    26   12  137 1    
    27   13   14 ar   
    28   13   15 1    
    29   14  138 1    
    30   15   16 1    
    31   15  139 1    
    32   15  140 1    
    33   16   17 1    
    34   17   18 1    
    35   17  141 1    
    36   17  142 1    
    37   18   19 1    
    38   18   67 1    
    39   18  143 1    
    40   19   20 am   BACKBONE|DICT|INTERRES
    41   19  144 1    
    42   20   21 2    
    43   20   22 1    
    44   22   23 1    
    45   22   24 1    
    46   22  145 1    
    47   23  146 1    
    48   23  147 1    
    49   23  148 1    
    50   24   25 am   BACKBONE|DICT|INTERRES
    51   24  149 1    
    52   25   26 2    
    53   25   27 1    
    54   27   28 1    
    55   27   29 1    
    56   27  150 1    
    57   28  151 1    
    58   28  152 1    
    59   28  153 1    
    60   29   30 am   BACKBONE|DICT|INTERRES
    61   29  154 1    
    62   30   31 2    
    63   30   32 1    
    64   32   33 1    
    65   32   34 1    
    66   32  155 1    
    67   33  156 1    
    68   33  157 1    
    69   33  158 1    
    70   34   35 am   BACKBONE|DICT|INTERRES
    71   34  159 1    
    72   35   36 2    
    73   35   37 1    
    74   37   38 1    
    75   37   39 1    
    76   37  160 1    
    77   38  161 1    
    78   38  162 1    
    79   38  163 1    
    80   39   40 am   BACKBONE|DICT|INTERRES
    81   39  164 1    
    82   40   41 2    
    83   40   42 1    
    84   42   43 1    
    85   42   44 1    
    86   42  165 1    
    87   43  166 1    
    88   43  167 1    
    89   43  168 1    
    90   44   45 am   BACKBONE|DICT|INTERRES
    91   44  169 1    
    92   45   46 2    
    93   45   47 1    
    94   47   48 1    
    95   47   49 1    
    96   47  170 1    
    97   48  171 1    
    98   48  172 1    
    99   48  173 1    
   100   49   50 am   BACKBONE|DICT|INTERRES
   101   49  174 1    
   102   50   51 2    
   103   50   52 1    
   104   52   53 1    
   105   52   54 1    
   106   52  175 1    
   107   53  176 1    
   108   53  177 1    
   109   53  178 1    
   110   54   55 am   BACKBONE|DICT|INTERRES
   111   54  179 1    
   112   55   56 2    
   113   55   57 1    
   114   57   58 1    
   115   57   59 1    
   116   57  180 1    
   117   58  181 1    
   118   58  182 1    
   119   58  183 1    
   120   59   60 am   BACKBONE|DICT|INTERRES
   121   59  184 1    
   122   60   61 2    
   123   60   62 1    
   124   62   63 1    
   125   62   64 1    
   126   62  185 1    
   127   63  186 1    
   128   63  187 1    
   129   63  188 1    
   130   64   65 am   BACKBONE|DICT|INTERRES
   131   64  189 1    
   132   65   66 2    
   133   67   68 2    
   134   67   69 am   BACKBONE|DICT|INTERRES
   135   69   70 1    
   136   69  190 1    
   137   70   71 1    
   138   70   72 1    
   139   70  191 1    
   140   71  192 1    
   141   71  193 1    
   142   71  194 1    
   143   72   73 2    
   144   72   74 am   BACKBONE|DICT|INTERRES
   145   74   75 1    
   146   74  195 1    
   147   75   76 1    
   148   75   77 1    
   149   75  196 1    
   150   76  197 1    
   151   76  198 1    
   152   76  199 1    
   153   77   78 2    
   154   77   79 am   BACKBONE|DICT|INTERRES
   155   79   80 1    
   156   79  200 1    
   157   80   81 1    
   158   80   82 1    
   159   80  201 1    
   160   81  202 1    
   161   81  203 1    
   162   81  204 1    
   163   82   83 2    
   164   82   84 am   BACKBONE|DICT|INTERRES
   165   84   85 1    
   166   84  205 1    
   167   85   86 1    
   168   85   87 1    
   169   85  206 1    
   170   86  207 1    
   171   86  208 1    
   172   86  209 1    
   173   87   88 2    
   174   87   89 am   BACKBONE|DICT|INTERRES
   175   89   90 1    
   176   89  210 1    
   177   90   91 1    
   178   90   92 1    
   179   90  211 1    
   180   91  212 1    
   181   91  213 1    
   182   91  214 1    
   183   92   93 2    
   184   92   94 am   BACKBONE|DICT|INTERRES
   185   94   95 1    
   186   94  215 1    
   187   95   96 1    
   188   95   97 1    
   189   95  216 1    
   190   96  217 1    
   191   96  218 1    
   192   96  219 1    
   193   97   98 2    
   194   97   99 am   BACKBONE|DICT|INTERRES
   195   99  100 1    
   196   99  220 1    
   197  100  101 1    
   198  100  102 1    
   199  100  221 1    
   200  101  222 1    
   201  101  223 1    
   202  101  224 1    
   203  102  103 2    
   204  102  104 am   BACKBONE|DICT|INTERRES
   205  104  105 1    
   206  104  225 1    
   207  105  106 1    
   208  105  107 1    
   209  105  226 1    
   210  106  227 1    
   211  106  228 1    
   212  106  229 1    
   213  107  108 2    
   214  107  109 am   BACKBONE|DICT|INTERRES
   215  109  110 1    
   216  109  230 1    
   217  110  111 1    
   218  110  112 1    
   219  110  231 1    
   220  111  232 1    
   221  111  233 1    
   222  111  234 1    
   223  112  113 2    
   224  112  114 am   BACKBONE|DICT|INTERRES
   225  114  115 1    
   226  114  235 1    
   227  115  116 1    
   228  115  117 1    
   229  115  236 1    
   230  116  237 1    
   231  116  238 1    
   232  116  239 1    
   233  117  118 2    
   234  117  119 am   BACKBONE|DICT|INTERRES
   235  119  120 1    
   236  119  240 1    
   237  120  121 1    
   238  120  124 1    
   239  120  241 1    
   240  121  122 am   BACKBONE|DICT|INTERRES
   241  121  123 2    
   242  122  242 1    
   243  122  243 1    
   244  124  125 1    
   245  124  244 1    
   246  124  245 1    
   247  125  126 1    
   248  126  246 1    
   249  126  247 1    
@<TRIPOS>SUBSTRUCTURE
     1 UNK         1 GROUP             0       ****    0 ROOT    
