@<TRIPOS>MOLECULE
3R540
247   249    1
SMALL
USER_CHARGES


@<TRIPOS>ATOM
      1 CA         -1.3697  -12.8113  -45.3912 C.3       0 UNK        -0.1800 
      2 C          -0.4973  -12.5974  -46.6184 C.2       0 UNK         0.5000 
      3 O          -0.6677  -11.6004  -47.3204 O.2       0 UNK        -0.5000 
      4 N           0.4410  -13.5180  -46.8710 N.am      1 UNK        -0.5000 
      5 CA          1.3519  -13.5288  -48.0226 C.3       1 UNK         0.1400 
      6 C6          2.0511  -14.9013  -48.1993 C.3       23 UNK        -0.0398 
      7 S7          0.8649  -16.2840  -48.2537 S.3       23 UNK        -0.2404 
      8 C8          0.6776  -16.5391  -50.0416 C.3       23 UNK        -0.0205 
      9 C9         -0.6544  -17.2025  -50.3491 C.ar      23 UNK        -0.0193 
     10 C10        -1.6899  -16.4637  -50.9248 C.ar      23 UNK        -0.1150 
     11 C11        -2.9192  -17.0646  -51.2022 C.ar      23 UNK        -0.0193 
     12 C12        -3.1134  -18.4104  -50.8800 C.ar      23 UNK        -0.1150 
     13 C13        -2.0836  -19.1728  -50.3174 C.ar      23 UNK        -0.0193 
     14 C14        -0.8538  -18.5538  -50.0540 C.ar      23 UNK        -0.1150 
     15 C15        -2.3559  -20.6470  -50.0080 C.3       23 UNK        -0.0205 
     16 S16        -0.8783  -21.7153  -49.8681 S.3       23 UNK        -0.2404 
     17 C17        -0.3813  -21.4099  -48.1351 C.3       23 UNK        -0.0398 
     18 CA         -0.3896  -22.6713  -47.2387 C.3       11 UNK         0.1400 
     19 N           0.1303  -22.3770  -45.9018 N.am      11 UNK        -0.5000 
     20 C           0.3966  -23.2940  -44.9619 C.2       10 UNK         0.5000 
     21 O           0.2942  -24.5060  -45.1427 O.2       10 UNK        -0.5000 
     22 CA          0.7909  -22.7730  -43.5693 C.3       10 UNK         0.1400 
     23 CB          2.2819  -22.4096  -43.5249 C.3       10 UNK        -0.1800 
     24 N          -0.0189  -21.6282  -43.1477 N.am      10 UNK        -0.5000 
     25 C          -1.3443  -21.6736  -42.9469 C.2       9 UNK         0.5000 
     26 O          -2.0128  -22.7016  -43.0483 O.2       9 UNK        -0.5000 
     27 CA         -2.0532  -20.3445  -42.6303 C.3       9 UNK         0.1400 
     28 CB         -1.8723  -19.9643  -41.1536 C.3       9 UNK        -0.1800 
     29 N          -1.5986  -19.2471  -43.4843 N.am      9 UNK        -0.5000 
     30 C          -1.7497  -19.2047  -44.8162 C.2       8 UNK         0.5000 
     31 O          -2.3407  -20.0679  -45.4652 O.2       8 UNK        -0.5000 
     32 CA         -1.0707  -18.0354  -45.5525 C.3       8 UNK         0.1400 
     33 CB         -1.9210  -16.7592  -45.4860 C.3       8 UNK        -0.1800 
     34 N           0.2714  -17.7669  -45.0349 N.am      8 UNK        -0.5000 
     35 C           1.2996  -18.6197  -45.1488 C.2       7 UNK         0.5000 
     36 O           1.2333  -19.6963  -45.7422 O.2       7 UNK        -0.5000 
     37 CA          2.6020  -18.2310  -44.4302 C.3       7 UNK         0.1400 
     38 CB          3.4386  -17.2720  -45.2870 C.3       7 UNK        -0.1800 
     39 N           2.3442  -17.6280  -43.1223 N.am      7 UNK        -0.5000 
     40 C           1.8903  -18.3088  -42.0602 C.2       6 UNK         0.5000 
     41 O           1.6713  -19.5190  -42.0699 O.2       6 UNK        -0.5000 
     42 CA          1.5942  -17.4990  -40.7847 C.3       6 UNK         0.1400 
     43 CB          2.8651  -17.3455  -39.9363 C.3       6 UNK        -0.1800 
     44 N           1.0372  -16.1756  -41.0652 N.am      6 UNK        -0.5000 
     45 C          -0.1471  -15.9545  -41.6531 C.2       5 UNK         0.5000 
     46 O          -0.9157  -16.8500  -42.0011 O.2       5 UNK        -0.5000 
     47 CA         -0.5070  -14.4868  -41.9478 C.3       5 UNK         0.1400 
     48 CB         -1.2431  -13.8592  -40.7558 C.3       5 UNK        -0.1800 
     49 N           0.6581  -13.6636  -42.2862 N.am      5 UNK        -0.5000 
     50 C           1.4561  -13.8627  -43.3426 C.2       4 UNK         0.5000 
     51 O           1.2629  -14.7447  -44.1843 O.2       4 UNK        -0.5000 
     52 CA          2.6485  -12.8995  -43.4834 C.3       4 UNK         0.1400 
     53 CB          3.8632  -13.5846  -44.1308 C.3       4 UNK        -0.1800 
     54 N           2.2577  -11.7236  -44.2629 N.am      4 UNK        -0.5000 
     55 C           1.5725  -10.6850  -43.7588 C.2       3 UNK         0.5000 
     56 O           1.2841  -10.5974  -42.5640 O.2       3 UNK        -0.5000 
     57 CA          1.0713   -9.5856  -44.7211 C.3       3 UNK         0.1400 
     58 CB          1.3829   -8.1652  -44.2052 C.3       3 UNK        -0.1800 
     59 N           1.4678   -9.7634  -46.1225 N.am      3 UNK        -0.5000 
     60 C           2.6622   -9.5466  -46.6948 C.2       2 UNK         0.5000 
     61 O           3.6489   -9.1107  -46.1006 O.2       2 UNK        -0.5000 
     62 CA          2.7520   -9.9382  -48.1889 C.3       2 UNK         0.1400 
     63 CB          4.1942   -9.9383  -48.7385 C.3       2 UNK        -0.1800 
     64 N           2.0815  -11.2206  -48.4487 N.am      2 UNK        -0.5000 
     65 C           2.3813  -12.3930  -47.8710 C.2       1 UNK         0.5000 
     66 O           3.3696  -12.5654  -47.1593 O.2       1 UNK        -0.5000 
     67 C          -1.7746  -23.3512  -47.1712 C.2       11 UNK         0.5000 
     68 O          -1.9841  -24.3680  -47.8334 O.2       11 UNK        -0.5000 
     69 N          -2.6844  -22.8143  -46.3479 N.am      12 UNK        -0.5000 
     70 CA         -4.0091  -23.3879  -46.1095 C.3       12 UNK         0.1400 
     71 CB         -4.8404  -22.4270  -45.2472 C.3       12 UNK        -0.1800 
     72 C          -3.9556  -24.7943  -45.4812 C.2       12 UNK         0.5000 
     73 O          -4.7005  -25.6761  -45.9088 O.2       12 UNK        -0.5000 
     74 N          -3.0721  -24.9764  -44.4923 N.am      13 UNK        -0.5000 
     75 CA         -2.9081  -26.2202  -43.7465 C.3       13 UNK         0.1400 
     76 CB         -2.2139  -25.9217  -42.4070 C.3       13 UNK        -0.1800 
     77 C          -2.1486  -27.3068  -44.5285 C.2       13 UNK         0.5000 
     78 O          -2.6917  -28.3913  -44.7418 O.2       13 UNK        -0.5000 
     79 N          -0.8926  -27.0226  -44.8960 N.am      14 UNK        -0.5000 
     80 CA          0.0600  -28.0188  -45.3876 C.3       14 UNK         0.1400 
     81 CB          1.4803  -27.6282  -44.9484 C.3       14 UNK        -0.1800 
     82 C           0.0006  -28.2005  -46.9098 C.2       14 UNK         0.5000 
     83 O           0.0892  -29.3344  -47.3823 O.2       14 UNK        -0.5000 
     84 N          -0.1524  -27.0950  -47.6522 N.am      15 UNK        -0.5000 
     85 CA         -0.2356  -27.1071  -49.1177 C.3       15 UNK         0.1400 
     86 CB          0.4086  -25.8304  -49.6852 C.3       15 UNK        -0.1800 
     87 C          -1.6793  -27.2908  -49.6276 C.2       15 UNK         0.5000 
     88 O          -1.8795  -27.3771  -50.8390 O.2       15 UNK        -0.5000 
     89 N          -2.6502  -27.3493  -48.7024 N.am      16 UNK        -0.5000 
     90 CA         -4.0903  -27.5086  -48.9248 C.3       16 UNK         0.1400 
     91 CB         -4.4029  -28.8926  -49.5317 C.3       16 UNK        -0.1800 
     92 C          -4.7051  -26.3391  -49.7220 C.2       16 UNK         0.5000 
     93 O          -5.5810  -26.5569  -50.5610 O.2       16 UNK        -0.5000 
     94 N          -4.2284  -25.1198  -49.4307 N.am      17 UNK        -0.5000 
     95 CA         -4.6069  -23.8445  -50.0403 C.3       17 UNK         0.1400 
     96 CB         -6.0883  -23.5063  -49.7697 C.3       17 UNK        -0.1800 
     97 C          -4.2264  -23.7844  -51.5310 C.2       17 UNK         0.5000 
     98 O          -5.0803  -23.5502  -52.3890 O.2       17 UNK        -0.5000 
     99 N          -2.9298  -23.9743  -51.8095 N.am      18 UNK        -0.5000 
    100 CA        -2.3047  -23.8632  -53.1317 C.3       18 UNK         0.1400 
    101 CB        -0.9509  -24.5939  -53.0955 C.3       18 UNK        -0.1800 
    102 C         -2.1707  -22.3925  -53.5920 C.2       18 UNK         0.5000 
    103 O         -1.0639  -21.9088  -53.8362 O.2       18 UNK        -0.5000 
    104 N         -3.3107  -21.6981  -53.6610 N.am      19 UNK        -0.5000 
    105 CA        -3.4431  -20.2875  -54.0055 C.3       19 UNK         0.1400 
    106 CB        -4.8936  -19.8657  -53.7269 C.3       19 UNK        -0.1800 
    107 C         -3.0893  -20.0017  -55.4736 C.2       19 UNK         0.5000 
    108 O         -3.4279  -20.7940  -56.3564 O.2       19 UNK        -0.5000 
    109 N         -2.4929  -18.8304  -55.7215 N.am      20 UNK        -0.5000 
    110 CA        -2.1869  -18.3004  -57.0526 C.3       20 UNK         0.1400 
    111 CB        -0.9517  -17.3881  -56.9437 C.3       20 UNK        -0.1800 
    112 C         -3.4143  -17.5754  -57.6460 C.2       20 UNK         0.5000 
    113 O         -3.3288  -16.3995  -58.0017 O.2       20 UNK        -0.5000 
    114 N         -4.5547  -18.2819  -57.6723 N.am      21 UNK        -0.5000 
    115 CA        -5.9068  -17.8347  -58.0456 C.3       21 UNK         0.1400 
    116 CB        -5.9477  -17.3407  -59.5063 C.3       21 UNK        -0.1800 
    117 C         -6.5440  -16.8148  -57.0716 C.2       21 UNK         0.5000 
    118 O         -7.6740  -16.3814  -57.3036 O.2       21 UNK        -0.5000 
    119 N         -5.8294  -16.4610  -55.9985 N.am      22 UNK        -0.5000 
    120 CA        -6.2759  -15.5999  -54.8974 C.3       22 UNK         0.1400 
    121 C         -7.2770  -16.2948  -53.9291 C.2       22 UNK         0.5000 
    122 N         -7.9586  -15.5308  -53.0858 N.am      22 UNK        -0.7600 
    123 O         -7.4396  -17.5127  -53.9190 O.2       22 UNK        -0.5000 
    124 C124       -5.0646  -14.9712  -54.1548 C.3       23 UNK        -0.0398 
    125 S125       -3.7647  -16.1594  -53.6581 S.3       23 UNK        -0.2404 
    126 C126       -4.0258  -16.2564  -51.8607 C.3       23 UNK        -0.0205 
    127 H127       -1.2834  -13.8299  -45.0177 H         1 UNK         0.0600 
    128 H128       -1.0817  -12.1264  -44.5944 H         1 UNK         0.0600 
    129 H129       -2.4162  -12.6319  -45.6369 H         1 UNK         0.0600 
    130 H130        0.5776  -14.2740  -46.2102 H         1 UNK         0.3000 
    131 H131        0.7610  -13.3408  -48.9216 H         1 UNK         0.0600 
    132 H132        2.6618  -14.9092  -49.1036 H         1 UNK         0.0800 
    133 H133        2.7368  -15.0935  -47.3740 H         1 UNK         0.0800 
    134 H134        1.4971  -17.1580  -50.4097 H         1 UNK         0.0800 
    135 H135        0.7504  -15.5823  -50.5609 H         1 UNK         0.0800 
    136 H136       -1.5397  -15.4205  -51.1655 H         1 UNK         0.1150 
    137 H137       -4.0699  -18.8699  -51.0802 H         1 UNK         0.1150 
    138 H138       -0.0406  -19.1067  -49.6097 H         1 UNK         0.1150 
    139 H139       -2.9502  -20.7180  -49.0959 H         1 UNK         0.0800 
    140 H140       -2.9742  -21.0564  -50.8068 H         1 UNK         0.0800 
    141 H141       -1.0092  -20.6309  -47.7022 H         1 UNK         0.0800 
    142 H142        0.6266  -20.9934  -48.1579 H         1 UNK         0.0800 
    143 H143        0.2966  -23.3929  -47.6860 H         1 UNK         0.0600 
    144 H144        0.2996  -21.3983  -45.6873 H         1 UNK         0.3000 
    145 H145        0.6197  -23.5808  -42.8549 H         1 UNK         0.0600 
    146 H146        2.5874  -22.1236  -42.5185 H         1 UNK         0.0600 
    147 H147        2.8994  -23.2579  -43.8230 H         1 UNK         0.0600 
    148 H148        2.5159  -21.5816  -44.1939 H         1 UNK         0.0600 
    149 H149        0.4765  -20.7567  -42.9844 H         1 UNK         0.3000 
    150 H150       -3.1200  -20.4863  -42.8144 H         1 UNK         0.0600 
    151 H151       -2.2358  -20.7576  -40.4993 H         1 UNK         0.0600 
    152 H152       -2.4288  -19.0595  -40.9088 H         1 UNK         0.0600 
    153 H153       -0.8252  -19.7893  -40.9071 H         1 UNK         0.0600 
    154 H154       -1.1477  -18.4647  -43.0182 H         1 UNK         0.3000 
    155 H155       -0.9756  -18.3180  -46.6033 H         1 UNK         0.0600 
    156 H156       -2.9298  -16.9438  -45.8570 H         1 UNK         0.0600 
    157 H157       -1.4890  -15.9729  -46.1046 H         1 UNK         0.0600 
    158 H158       -2.0082  -16.3805  -44.4676 H         1 UNK         0.0600 
    159 H159        0.4138  -16.8962  -44.5401 H         1 UNK         0.3000 
    160 H160        3.1846  -19.1422  -44.2795 H         1 UNK         0.0600 
    161 H161        2.9182  -16.3305  -45.4513 H         1 UNK         0.0600 
    162 H162        3.6499  -17.7046  -46.2657 H         1 UNK         0.0600 
    163 H163        4.3948  -17.0489  -44.8136 H         1 UNK         0.0600 
    164 H164        2.4455  -16.6260  -43.0552 H         1 UNK         0.3000 
    165 H165        0.8589  -18.0562  -40.2007 H         1 UNK         0.0600 
    166 H166        2.6512  -16.8435  -38.9926 H         1 UNK         0.0600 
    167 H167        3.2927  -18.3197  -39.6950 H         1 UNK         0.0600 
    168 H168        3.6317  -16.7705  -40.4573 H         1 UNK         0.0600 
    169 H169        1.6023  -15.3792  -40.8107 H         1 UNK         0.3000 
    170 H170       -1.1844  -14.4841  -42.8024 H         1 UNK         0.0600 
    171 H171       -2.1281  -14.4405  -40.4934 H         1 UNK         0.0600 
    172 H172       -0.6082  -13.8089  -39.8704 H         1 UNK         0.0600 
    173 H173       -1.5771  -12.8476  -40.9878 H         1 UNK         0.0600 
    174 H174        0.8482  -12.8759  -41.6811 H         1 UNK         0.3000 
    175 H175        2.9566  -12.5805  -42.4853 H         1 UNK         0.0600 
    176 H176        3.6228  -14.0181  -45.1003 H         1 UNK         0.0600 
    177 H177        4.6847  -12.8824  -44.2730 H         1 UNK         0.0600 
    178 H178        4.2313  -14.3946  -43.5002 H         1 UNK         0.0600 
    179 H179        2.4758  -11.7467  -45.2508 H         1 UNK         0.3000 
    180 H180       -0.0150   -9.6859  -44.7252 H         1 UNK         0.0600 
    181 H181        2.4518   -8.0079  -44.0611 H         1 UNK         0.0600 
    182 H182        0.9001   -7.9861  -43.2438 H         1 UNK         0.0600 
    183 H183        1.0188   -7.4040  -44.8952 H         1 UNK         0.0600 
    184 H184        0.7451  -10.1660  -46.7107 H         1 UNK         0.3000 
    185 H185        2.1921   -9.1793  -48.7373 H         1 UNK         0.0600 
    186 H186        4.6391   -8.9456  -48.6611 H         1 UNK         0.0600 
    187 H187        4.8406  -10.6267  -48.1937 H         1 UNK         0.0600 
    188 H188        4.2145  -10.2212  -49.7909 H         1 UNK         0.0600 
    189 H189        1.2159  -11.1593  -48.9687 H         1 UNK         0.3000 
    190 H190       -2.4634  -21.9511  -45.8583 H         1 UNK         0.3000 
    191 H191       -4.5073  -23.4793  -47.0747 H         1 UNK         0.0600 
    192 H192       -4.3888  -22.2685  -44.2680 H         1 UNK         0.0600 
    193 H193       -5.8458  -22.8177  -45.0862 H         1 UNK         0.0600 
    194 H194       -4.9419  -21.4542  -45.7288 H         1 UNK         0.0600 
    195 H195       -2.5319  -24.1782  -44.1693 H         1 UNK         0.3000 
    196 H196       -3.9011  -26.6139  -43.5187 H         1 UNK         0.0600 
    197 H197       -2.0693  -26.8343  -41.8276 H         1 UNK         0.0600 
    198 H198       -2.8115  -25.2420  -41.7993 H         1 UNK         0.0600 
    199 H199       -1.2348  -25.4630  -42.5503 H         1 UNK         0.0600 
    200 H200       -0.5313  -26.0785  -44.7728 H         1 UNK         0.3000 
    201 H201       -0.1678  -28.9841  -44.9297 H         1 UNK         0.0600 
    202 H202        1.5420  -27.5176  -43.8657 H         1 UNK         0.0600 
    203 H203        1.8024  -26.6895  -45.4001 H         1 UNK         0.0600 
    204 H204        2.2011  -28.3935  -45.2389 H         1 UNK         0.0600 
    205 H205       -0.2465  -26.1990  -47.1924 H         1 UNK         0.3000 
    206 H206        0.3431  -27.9507  -49.4999 H         1 UNK         0.0600 
    207 H207        1.3897  -25.6499  -49.2459 H         1 UNK         0.0600 
    208 H208        0.5510  -25.9218  -50.7622 H         1 UNK         0.0600 
    209 H209       -0.2035  -24.9464  -49.5192 H         1 UNK         0.0600 
    210 H210       -2.3685  -27.2347  -47.7394 H         1 UNK         0.3000 
    211 H211       -4.5537  -27.4766  -47.9382 H         1 UNK         0.0600 
    212 H212       -4.0276  -28.9839  -50.5513 H         1 UNK         0.0600 
    213 H213       -5.4783  -29.0710  -49.5629 H         1 UNK         0.0600 
    214 H214       -3.9599  -29.6921  -48.9378 H         1 UNK         0.0600 
    215 H215       -3.4627  -25.0624  -48.7627 H         1 UNK         0.3000 
    216 H216       -4.0080  -23.0831  -49.5401 H         1 UNK         0.0600 
    217 H217       -6.3238  -22.4990  -50.1151 H         1 UNK         0.0600 
    218 H218       -6.3173  -23.5460  -48.7051 H         1 UNK         0.0600 
    219 H219       -6.7651  -24.1904  -50.2820 H         1 UNK         0.0600 
    220 H220       -2.2996  -24.1534  -51.0414 H         1 UNK         0.3000 
    221 H221       -2.9390  -24.3736  -53.8593 H         1 UNK         0.0600 
    222 H222       -0.2701  -24.1409  -52.3737 H         1 UNK         0.0600 
    223 H223       -1.0763  -25.6430  -52.8280 H         1 UNK         0.0600 
    224 H224       -0.4640  -24.5663  -54.0710 H         1 UNK         0.0600 
    225 H225       -4.1682  -22.1939  -53.4378 H         1 UNK         0.3000 
    226 H226       -2.7716  -19.7174  -53.3612 H         1 UNK         0.0600 
    227 H227       -5.1845  -20.0802  -52.6991 H         1 UNK         0.0600 
    228 H228       -5.0289  -18.7971  -53.8879 H         1 UNK         0.0600 
    229 H229       -5.5960  -20.3835  -54.3815 H         1 UNK         0.0600 
    230 H230       -2.2928  -18.2135  -54.9463 H         1 UNK         0.3000 
    231 H231       -1.9359  -19.1230  -57.7255 H         1 UNK         0.0600 
    232 H232       -0.0934  -17.9334  -56.5507 H         1 UNK         0.0600 
    233 H233       -1.1363  -16.5363  -56.2876 H         1 UNK         0.0600 
    234 H234       -0.6660  -16.9968  -57.9208 H         1 UNK         0.0600 
    235 H235       -4.4957  -19.2395  -57.3431 H         1 UNK         0.3000 
    236 H236       -6.5336  -18.7256  -57.9874 H         1 UNK         0.0600 
    237 H237       -6.9745  -17.1694  -59.8314 H         1 UNK         0.0600 
    238 H238       -5.4080  -16.4023  -59.6349 H         1 UNK         0.0600 
    239 H239       -5.5129  -18.0751  -60.1843 H         1 UNK         0.0600 
    240 H240       -4.9167  -16.8725  -55.8797 H         1 UNK         0.3000 
    241 H241       -6.8318  -14.7772  -55.3513 H         1 UNK         0.0600 
    242 H242       -8.6090  -15.9682  -52.4515 H         1 UNK         0.3800 
    243 H243       -7.8613  -14.5272  -53.0759 H         1 UNK         0.3800 
    244 H244       -5.3889  -14.3881  -53.2917 H         1 UNK         0.0800 
    245 H245       -4.5886  -14.2489  -54.8192 H         1 UNK         0.0800 
    246 H246       -5.0013  -16.7017  -51.6584 H         1 UNK         0.0800 
    247 H247       -4.0456  -15.2518  -51.4355 H         1 UNK         0.0800 
@<TRIPOS>BOND
     1    1    2 1    
     2    1  127 1    
     3    1  128 1    
     4    1  129 1    
     5    2    3 2    
     6    2    4 am   BACKBONE|DICT|INTERRES
     7    4    5 1    
     8    4  130 1    
     9    5    6 1    
    10    5   65 1    
    11    5  131 1    
    12    6    7 1    
    13    6  132 1    
    14    6  133 1    
    15    7    8 1    
    16    8    9 1    
    17    8  134 1    
    18    8  135 1    
    19    9   10 ar   
    20    9   14 ar   
    21   10   11 ar   
    22   10  136 1    
    23   11   12 ar   
    24   11  126 1    
    25   12   13 ar   
    26   12  137 1    
    27   13   14 ar   
    28   13   15 1    
    29   14  138 1    
    30   15   16 1    
    31   15  139 1    
    32   15  140 1    
    33   16   17 1    
    34   17   18 1    
    35   17  141 1    
    36   17  142 1    
    37   18   19 1    
    38   18   67 1    
    39   18  143 1    
    40   19   20 am   BACKBONE|DICT|INTERRES
    41   19  144 1    
    42   20   21 2    
    43   20   22 1    
    44   22   23 1    
    45   22   24 1    
    46   22  145 1    
    47   23  146 1    
    48   23  147 1    
    49   23  148 1    
    50   24   25 am   BACKBONE|DICT|INTERRES
    51   24  149 1    
    52   25   26 2    
    53   25   27 1    
    54   27   28 1    
    55   27   29 1    
    56   27  150 1    
    57   28  151 1    
    58   28  152 1    
    59   28  153 1    
    60   29   30 am   BACKBONE|DICT|INTERRES
    61   29  154 1    
    62   30   31 2    
    63   30   32 1    
    64   32   33 1    
    65   32   34 1    
    66   32  155 1    
    67   33  156 1    
    68   33  157 1    
    69   33  158 1    
    70   34   35 am   BACKBONE|DICT|INTERRES
    71   34  159 1    
    72   35   36 2    
    73   35   37 1    
    74   37   38 1    
    75   37   39 1    
    76   37  160 1    
    77   38  161 1    
    78   38  162 1    
    79   38  163 1    
    80   39   40 am   BACKBONE|DICT|INTERRES
    81   39  164 1    
    82   40   41 2    
    83   40   42 1    
    84   42   43 1    
    85   42   44 1    
    86   42  165 1    
    87   43  166 1    
    88   43  167 1    
    89   43  168 1    
    90   44   45 am   BACKBONE|DICT|INTERRES
    91   44  169 1    
    92   45   46 2    
    93   45   47 1    
    94   47   48 1    
    95   47   49 1    
    96   47  170 1    
    97   48  171 1    
    98   48  172 1    
    99   48  173 1    
   100   49   50 am   BACKBONE|DICT|INTERRES
   101   49  174 1    
   102   50   51 2    
   103   50   52 1    
   104   52   53 1    
   105   52   54 1    
   106   52  175 1    
   107   53  176 1    
   108   53  177 1    
   109   53  178 1    
   110   54   55 am   BACKBONE|DICT|INTERRES
   111   54  179 1    
   112   55   56 2    
   113   55   57 1    
   114   57   58 1    
   115   57   59 1    
   116   57  180 1    
   117   58  181 1    
   118   58  182 1    
   119   58  183 1    
   120   59   60 am   BACKBONE|DICT|INTERRES
   121   59  184 1    
   122   60   61 2    
   123   60   62 1    
   124   62   63 1    
   125   62   64 1    
   126   62  185 1    
   127   63  186 1    
   128   63  187 1    
   129   63  188 1    
   130   64   65 am   BACKBONE|DICT|INTERRES
   131   64  189 1    
   132   65   66 2    
   133   67   68 2    
   134   67   69 am   BACKBONE|DICT|INTERRES
   135   69   70 1    
   136   69  190 1    
   137   70   71 1    
   138   70   72 1    
   139   70  191 1    
   140   71  192 1    
   141   71  193 1    
   142   71  194 1    
   143   72   73 2    
   144   72   74 am   BACKBONE|DICT|INTERRES
   145   74   75 1    
   146   74  195 1    
   147   75   76 1    
   148   75   77 1    
   149   75  196 1    
   150   76  197 1    
   151   76  198 1    
   152   76  199 1    
   153   77   78 2    
   154   77   79 am   BACKBONE|DICT|INTERRES
   155   79   80 1    
   156   79  200 1    
   157   80   81 1    
   158   80   82 1    
   159   80  201 1    
   160   81  202 1    
   161   81  203 1    
   162   81  204 1    
   163   82   83 2    
   164   82   84 am   BACKBONE|DICT|INTERRES
   165   84   85 1    
   166   84  205 1    
   167   85   86 1    
   168   85   87 1    
   169   85  206 1    
   170   86  207 1    
   171   86  208 1    
   172   86  209 1    
   173   87   88 2    
   174   87   89 am   BACKBONE|DICT|INTERRES
   175   89   90 1    
   176   89  210 1    
   177   90   91 1    
   178   90   92 1    
   179   90  211 1    
   180   91  212 1    
   181   91  213 1    
   182   91  214 1    
   183   92   93 2    
   184   92   94 am   BACKBONE|DICT|INTERRES
   185   94   95 1    
   186   94  215 1    
   187   95   96 1    
   188   95   97 1    
   189   95  216 1    
   190   96  217 1    
   191   96  218 1    
   192   96  219 1    
   193   97   98 2    
   194   97   99 am   BACKBONE|DICT|INTERRES
   195   99  100 1    
   196   99  220 1    
   197  100  101 1    
   198  100  102 1    
   199  100  221 1    
   200  101  222 1    
   201  101  223 1    
   202  101  224 1    
   203  102  103 2    
   204  102  104 am   BACKBONE|DICT|INTERRES
   205  104  105 1    
   206  104  225 1    
   207  105  106 1    
   208  105  107 1    
   209  105  226 1    
   210  106  227 1    
   211  106  228 1    
   212  106  229 1    
   213  107  108 2    
   214  107  109 am   BACKBONE|DICT|INTERRES
   215  109  110 1    
   216  109  230 1    
   217  110  111 1    
   218  110  112 1    
   219  110  231 1    
   220  111  232 1    
   221  111  233 1    
   222  111  234 1    
   223  112  113 2    
   224  112  114 am   BACKBONE|DICT|INTERRES
   225  114  115 1    
   226  114  235 1    
   227  115  116 1    
   228  115  117 1    
   229  115  236 1    
   230  116  237 1    
   231  116  238 1    
   232  116  239 1    
   233  117  118 2    
   234  117  119 am   BACKBONE|DICT|INTERRES
   235  119  120 1    
   236  119  240 1    
   237  120  121 1    
   238  120  124 1    
   239  120  241 1    
   240  121  122 am   BACKBONE|DICT|INTERRES
   241  121  123 2    
   242  122  242 1    
   243  122  243 1    
   244  124  125 1    
   245  124  244 1    
   246  124  245 1    
   247  125  126 1    
   248  126  246 1    
   249  126  247 1    
@<TRIPOS>SUBSTRUCTURE
     1 UNK         1 GROUP             0       ****    0 ROOT    
