@<TRIPOS>MOLECULE
3R540
247   249    1
SMALL
USER_CHARGES


@<TRIPOS>ATOM
      1 CA         -2.8155  -15.9450  -46.1999 C.3       0 UNK        -0.1800 
      2 C          -2.4335  -14.5285  -46.6056 C.2       0 UNK         0.5000 
      3 O          -2.9698  -13.5700  -46.0513 O.2       0 UNK        -0.5000 
      4 N          -1.5072  -14.3984  -47.5662 N.am      1 UNK        -0.5000 
      5 CA         -1.0429  -13.1331  -48.1626 C.3       1 UNK         0.1400 
      6 C6         -0.0414  -13.3597  -49.3269 C.3       23 UNK        -0.0398 
      7 S7         -0.5415  -14.6791  -50.4885 S.3       23 UNK        -0.2404 
      8 C8          0.7526  -15.9146  -50.1481 C.3       23 UNK        -0.0205 
      9 C9          0.4778  -17.2278  -50.8611 C.ar      23 UNK        -0.0193 
     10 C10         0.7516  -17.3512  -52.2270 C.ar      23 UNK        -0.1150 
     11 C11         0.5029  -18.5537  -52.8970 C.ar      23 UNK        -0.0193 
     12 C12         0.0122  -19.6426  -52.1743 C.ar      23 UNK        -0.1150 
     13 C13        -0.2601  -19.5380  -50.8096 C.ar      23 UNK        -0.0193 
     14 C14        -0.0346  -18.3231  -50.1565 C.ar      23 UNK        -0.1150 
     15 C15        -0.8110  -20.7408  -50.0611 C.3       23 UNK        -0.0205 
     16 S16         0.5059  -21.6906  -49.2347 S.3       23 UNK        -0.2404 
     17 C17         0.3318  -21.1380  -47.5034 C.3       23 UNK        -0.0398 
     18 CA         -0.5094  -22.1218  -46.6497 C.3       11 UNK         0.1400 
     19 N          -0.3032  -21.9323  -45.2119 N.am      11 UNK        -0.5000 
     20 C          -0.7398  -22.7725  -44.2613 C.2       10 UNK         0.5000 
     21 O          -1.3094  -23.8380  -44.4969 O.2       10 UNK        -0.5000 
     22 CA         -0.5592  -22.3152  -42.8026 C.3       10 UNK         0.1400 
     23 CB          0.8485  -22.6582  -42.2942 C.3       10 UNK        -0.1800 
     24 N          -0.8062  -20.8810  -42.6423 N.am      10 UNK        -0.5000 
     25 C          -2.0136  -20.3099  -42.7804 C.2       9 UNK         0.5000 
     26 O          -3.0435  -20.9453  -42.9995 O.2       9 UNK        -0.5000 
     27 CA         -2.0813  -18.7713  -42.7196 C.3       9 UNK         0.1400 
     28 CB         -2.3048  -18.3071  -41.2734 C.3       9 UNK        -0.1800 
     29 N          -0.8857  -18.1228  -43.2587 N.am      9 UNK        -0.5000 
     30 C          -0.4238  -18.2791  -44.5084 C.2       8 UNK         0.5000 
     31 O          -1.0350  -18.8922  -45.3834 O.2       8 UNK        -0.5000 
     32 CA          0.9708  -17.7074  -44.8299 C.3       8 UNK         0.1400 
     33 CB          0.8590  -16.4780  -45.7417 C.3       8 UNK        -0.1800 
     34 N           1.7624  -17.3672  -43.6446 N.am      8 UNK        -0.5000 
     35 C           2.2110  -18.2450  -42.7321 C.2       7 UNK         0.5000 
     36 O           1.9633  -19.4515  -42.7809 O.2       7 UNK        -0.5000 
     37 CA          3.0328  -17.6697  -41.5573 C.3       7 UNK         0.1400 
     38 CB          4.0152  -18.6947  -40.9536 C.3       7 UNK        -0.1800 
     39 N           3.7084  -16.4117  -41.8973 N.am      7 UNK        -0.5000 
     40 C           4.6767  -16.2268  -42.8085 C.2       6 UNK         0.5000 
     41 O           5.2129  -17.1411  -43.4353 O.2       6 UNK        -0.5000 
     42 CA          5.0918  -14.7735  -43.1033 C.3       6 UNK         0.1400 
     43 CB          4.8824  -14.4516  -44.5919 C.3       6 UNK        -0.1800 
     44 N           4.3258  -13.8121  -42.3048 N.am      6 UNK        -0.5000 
     45 C           4.8066  -13.1478  -41.2469 C.2       5 UNK         0.5000 
     46 O           5.9620  -13.2560  -40.8343 O.2       5 UNK        -0.5000 
     47 CA          3.8300  -12.2124  -40.5139 C.3       5 UNK         0.1400 
     48 CB          3.7281  -10.8555  -41.2259 C.3       5 UNK        -0.1800 
     49 N           2.4889  -12.7775  -40.3535 N.am      5 UNK        -0.5000 
     50 C           2.1771  -13.7503  -39.4860 C.2       4 UNK         0.5000 
     51 O           3.0104  -14.3605  -38.8163 O.2       4 UNK        -0.5000 
     52 CA          0.6850  -14.0846  -39.3176 C.3       4 UNK         0.1400 
     53 CB          0.0668  -13.2111  -38.2148 C.3       4 UNK        -0.1800 
     54 N          -0.0731  -13.8944  -40.5543 N.am      4 UNK        -0.5000 
     55 C          -0.2800  -14.8639  -41.4517 C.2       3 UNK         0.5000 
     56 O           0.1494  -16.0127  -41.3439 O.2       3 UNK        -0.5000 
     57 CA         -1.0923  -14.4844  -42.6996 C.3       3 UNK         0.1400 
     58 CB         -2.5570  -14.1910  -42.3383 C.3       3 UNK        -0.1800 
     59 N          -0.5604  -13.3749  -43.4954 N.am      3 UNK        -0.5000 
     60 C           0.7139  -13.1470  -43.8478 C.2       2 UNK         0.5000 
     61 O           1.6869  -13.7644  -43.4098 O.2       2 UNK        -0.5000 
     62 CA          0.8863  -12.1372  -44.9904 C.3       2 UNK         0.1400 
     63 CB          2.3500  -11.7704  -45.2900 C.3       2 UNK        -0.1800 
     64 N           0.2954  -12.7683  -46.1614 N.am      2 UNK        -0.5000 
     65 C          -0.4163  -12.1760  -47.1241 C.2       1 UNK         0.5000 
     66 O          -0.5981  -10.9608  -47.2057 O.2       1 UNK        -0.5000 
     67 C          -2.0076  -22.0456  -47.0012 C.2       11 UNK         0.5000 
     68 O          -2.5054  -22.9116  -47.7174 O.2       11 UNK        -0.5000 
     69 N          -2.7054  -21.0353  -46.4636 N.am      12 UNK        -0.5000 
     70 CA         -4.1445  -20.8388  -46.6433 C.3       12 UNK         0.1400 
     71 CB         -4.5563  -19.4946  -46.0268 C.3       12 UNK        -0.1800 
     72 C          -4.9902  -21.9928  -46.0693 C.2       12 UNK         0.5000 
     73 O          -5.9674  -22.3951  -46.7007 O.2       12 UNK        -0.5000 
     74 N          -4.5860  -22.5187  -44.9038 N.am      13 UNK        -0.5000 
     75 CA         -5.2066  -23.6715  -44.2506 C.3       13 UNK         0.1400 
     76 CB         -4.6716  -23.8015  -42.8163 C.3       13 UNK        -0.1800 
     77 C          -5.0001  -24.9837  -45.0292 C.2       13 UNK         0.5000 
     78 O          -5.9469  -25.7598  -45.1650 O.2       13 UNK        -0.5000 
     79 N          -3.7765  -25.2075  -45.5302 N.am      14 UNK        -0.5000 
     80 CA         -3.4233  -26.3692  -46.3503 C.3       14 UNK         0.1400 
     81 CB         -1.8936  -26.4713  -46.4517 C.3       14 UNK        -0.1800 
     82 C          -4.0467  -26.3199  -47.7576 C.2       14 UNK         0.5000 
     83 O          -4.4105  -27.3642  -48.3010 O.2       14 UNK        -0.5000 
     84 N          -4.1382  -25.1069  -48.3178 N.am      15 UNK        -0.5000 
     85 CA         -4.5815  -24.7250  -49.6588 C.3       15 UNK         0.1400 
     86 CB         -6.0351  -25.1503  -49.9394 C.3       15 UNK        -0.1800 
     87 C          -3.6119  -25.1911  -50.7582 C.2       15 UNK         0.5000 
     88 O          -3.0482  -24.3536  -51.4652 O.2       15 UNK        -0.5000 
     89 N          -3.4391  -26.5172  -50.8683 N.am      16 UNK        -0.5000 
     90 CA         -2.4798  -27.2457  -51.7091 C.3       16 UNK         0.1400 
     91 CB         -1.0620  -27.0760  -51.1249 C.3       16 UNK        -0.1800 
     92 C          -2.5368  -26.8899  -53.2118 C.2       16 UNK         0.5000 
     93 O          -1.5141  -26.9621  -53.8944 O.2       16 UNK        -0.5000 
     94 N          -3.7115  -26.4456  -53.6858 N.am      17 UNK        -0.5000 
     95 CA         -4.0175  -25.8453  -54.9959 C.3       17 UNK         0.1400 
     96 CB         -3.7324  -26.8244  -56.1498 C.3       17 UNK        -0.1800 
     97 C          -3.3460  -24.4763  -55.2499 C.2       17 UNK         0.5000 
     98 O          -3.9153  -23.6475  -55.9607 O.2       17 UNK        -0.5000 
     99 N          -2.1777  -24.2358  -54.6441 N.am      18 UNK        -0.5000 
    100 CA        -1.3991  -23.0026  -54.7110 C.3       18 UNK         0.1400 
    101 CB        -0.1000  -23.1875  -53.9131 C.3       18 UNK        -0.1800 
    102 C         -2.1734  -21.7685  -54.2179 C.2       18 UNK         0.5000 
    103 O         -2.0623  -20.7072  -54.8293 O.2       18 UNK        -0.5000 
    104 N         -2.9747  -21.9279  -53.1538 N.am      19 UNK        -0.5000 
    105 CA        -3.8299  -20.8668  -52.6130 C.3       19 UNK         0.1400 
    106 CB        -4.4515  -21.3279  -51.2875 C.3       19 UNK        -0.1800 
    107 C         -4.9356  -20.4183  -53.5885 C.2       19 UNK         0.5000 
    108 O         -5.3340  -19.2545  -53.5504 O.2       19 UNK        -0.5000 
    109 N         -5.3990  -21.3368  -54.4492 N.am      20 UNK        -0.5000 
    110 CA        -6.3426  -21.0438  -55.5262 C.3       20 UNK         0.1400 
    111 CB        -7.0858  -22.3240  -55.9388 C.3       20 UNK        -0.1800 
    112 C         -5.6298  -20.3995  -56.7271 C.2       20 UNK         0.5000 
    113 O         -6.1534  -19.4394  -57.2925 O.2       20 UNK        -0.5000 
    114 N         -4.4328  -20.9015  -57.0688 N.am      21 UNK        -0.5000 
    115 CA        -3.5773  -20.3771  -58.1392 C.3       21 UNK         0.1400 
    116 CB        -2.3599  -21.2951  -58.3249 C.3       21 UNK        -0.1800 
    117 C         -3.1360  -18.9184  -57.9021 C.2       21 UNK         0.5000 
    118 O         -3.1559  -18.1183  -58.8382 O.2       21 UNK        -0.5000 
    119 N         -2.7990  -18.5927  -56.6484 N.am      22 UNK        -0.5000 
    120 CA        -2.5587  -17.2238  -56.1624 C.3       22 UNK         0.1400 
    121 C         -3.8536  -16.3883  -55.9109 C.2       22 UNK         0.5000 
    122 N         -5.0557  -16.8911  -56.1641 N.am      22 UNK        -0.7600 
    123 O         -3.7676  -15.2353  -55.4970 O.2       22 UNK        -0.5000 
    124 C124       -1.6163  -17.2188  -54.9268 C.3       23 UNK        -0.0398 
    125 S125        0.1431  -17.3259  -55.4068 S.3       23 UNK        -0.2404 
    126 C126        0.7713  -18.7057  -54.3919 C.3       23 UNK        -0.0205 
    127 H127       -3.8785  -16.1085  -46.3756 H         1 UNK         0.0600 
    128 H128       -2.6196  -16.1020  -45.1398 H         1 UNK         0.0600 
    129 H129       -2.2600  -16.6943  -46.7643 H         1 UNK         0.0600 
    130 H130       -1.1516  -15.2289  -48.0161 H         1 UNK         0.3000 
    131 H131       -1.9260  -12.6369  -48.5701 H         1 UNK         0.0600 
    132 H132        0.0723  -12.4376  -49.8996 H         1 UNK         0.0800 
    133 H133        0.9542  -13.5906  -48.9428 H         1 UNK         0.0800 
    134 H134        1.7191  -15.5220  -50.4683 H         1 UNK         0.0800 
    135 H135        0.8300  -16.0807  -49.0729 H         1 UNK         0.0800 
    136 H136        1.1456  -16.5043  -52.7710 H         1 UNK         0.1150 
    137 H137       -0.1614  -20.5809  -52.6750 H         1 UNK         0.1150 
    138 H138       -0.2485  -18.2345  -49.1008 H         1 UNK         0.1150 
    139 H139       -1.5730  -20.4188  -49.3510 H         1 UNK         0.0800 
    140 H140       -1.3169  -21.4104  -50.7578 H         1 UNK         0.0800 
    141 H141        1.3406  -21.0710  -47.0939 H         1 UNK         0.0800 
    142 H142       -0.0678  -20.1239  -47.4703 H         1 UNK         0.0800 
    143 H143       -0.1737  -23.1358  -46.8794 H         1 UNK         0.0600 
    144 H144        0.1076  -21.0568  -44.9242 H         1 UNK         0.3000 
    145 H145       -1.2830  -22.8564  -42.1894 H         1 UNK         0.0600 
    146 H146        0.9745  -22.3642  -41.2520 H         1 UNK         0.0600 
    147 H147        1.0328  -23.7316  -42.3545 H         1 UNK         0.0600 
    148 H148        1.6227  -22.1597  -42.8786 H         1 UNK         0.0600 
    149 H149        0.0073  -20.2933  -42.4985 H         1 UNK         0.3000 
    150 H150       -2.9339  -18.4498  -43.3202 H         1 UNK         0.0600 
    151 H151       -3.1873  -18.7809  -40.8416 H         1 UNK         0.0600 
    152 H152       -2.4600  -17.2307  -41.2231 H         1 UNK         0.0600 
    153 H153       -1.4537  -18.5517  -40.6365 H         1 UNK         0.0600 
    154 H154       -0.3273  -17.5896  -42.6009 H         1 UNK         0.3000 
    155 H155        1.5145  -18.4820  -45.3744 H         1 UNK         0.0600 
    156 H156        1.8420  -16.0792  -45.9938 H         1 UNK         0.0600 
    157 H157        0.3632  -16.7358  -46.6779 H         1 UNK         0.0600 
    158 H158        0.2818  -15.6847  -45.2716 H         1 UNK         0.0600 
    159 H159        1.9738  -16.3890  -43.5036 H         1 UNK         0.3000 
    160 H160        2.3116  -17.4218  -40.7781 H         1 UNK         0.0600 
    161 H161        4.7185  -19.0726  -41.6958 H         1 UNK         0.0600 
    162 H162        3.4801  -19.5542  -40.5482 H         1 UNK         0.0600 
    163 H163        4.5894  -18.2570  -40.1371 H         1 UNK         0.0600 
    164 H164        3.3484  -15.5871  -41.4385 H         1 UNK         0.3000 
    165 H165        6.1586  -14.6906  -42.8870 H         1 UNK         0.0600 
    166 H166        5.5193  -15.0747  -45.2208 H         1 UNK         0.0600 
    167 H167        5.1298  -13.4127  -44.8103 H         1 UNK         0.0600 
    168 H168        3.8510  -14.6280  -44.8978 H         1 UNK         0.0600 
    169 H169        3.3579  -13.6721  -42.5876 H         1 UNK         0.3000 
    170 H170        4.2411  -12.0315  -39.5181 H         1 UNK         0.0600 
    171 H171        4.7153  -10.4178  -41.3802 H         1 UNK         0.0600 
    172 H172        3.2520  -10.9468  -42.2008 H         1 UNK         0.0600 
    173 H173        3.1477  -10.1455  -40.6364 H         1 UNK         0.0600 
    174 H174        1.7495  -12.3557  -40.8938 H         1 UNK         0.3000 
    175 H175        0.6129  -15.1261  -38.9958 H         1 UNK         0.0600 
    176 H176        0.1045  -12.1511  -38.4688 H         1 UNK         0.0600 
    177 H177       -0.9759  -13.4775  -38.0408 H         1 UNK         0.0600 
    178 H178        0.5963  -13.3416  -37.2701 H         1 UNK         0.0600 
    179 H179       -0.4666  -12.9800  -40.7219 H         1 UNK         0.3000 
    180 H180       -1.0898  -15.3572  -43.3513 H         1 UNK         0.0600 
    181 H181       -2.6566  -13.2602  -41.7790 H         1 UNK         0.0600 
    182 H182       -2.9840  -14.9866  -41.7275 H         1 UNK         0.0600 
    183 H183       -3.1735  -14.1085  -43.2336 H         1 UNK         0.0600 
    184 H184       -1.2642  -12.8140  -43.9556 H         1 UNK         0.3000 
    185 H185        0.3390  -11.2310  -44.7226 H         1 UNK         0.0600 
    186 H186        2.9063  -12.6239  -45.6747 H         1 UNK         0.0600 
    187 H187        2.8630  -11.4126  -44.3988 H         1 UNK         0.0600 
    188 H188        2.4065  -10.9788  -46.0372 H         1 UNK         0.0600 
    189 H189        0.3540  -13.7757  -46.1785 H         1 UNK         0.3000 
    190 H190       -2.2102  -20.3376  -45.9155 H         1 UNK         0.3000 
    191 H191       -4.3370  -20.7915  -47.7174 H         1 UNK         0.0600 
    192 H192       -3.9869  -18.6731  -46.4606 H         1 UNK         0.0600 
    193 H193       -5.6125  -19.2906  -46.2062 H         1 UNK         0.0600 
    194 H194       -4.3984  -19.4807  -44.9487 H         1 UNK         0.0600 
    195 H195       -3.8183  -22.0763  -44.4078 H         1 UNK         0.3000 
    196 H196       -6.2812  -23.4857  -44.1931 H         1 UNK         0.0600 
    197 H197       -5.1237  -24.6525  -42.3053 H         1 UNK         0.0600 
    198 H198       -4.8996  -22.9118  -42.2292 H         1 UNK         0.0600 
    199 H199       -3.5907  -23.9442  -42.8006 H         1 UNK         0.0600 
    200 H200       -3.0322  -24.5469  -45.3306 H         1 UNK         0.3000 
    201 H201       -3.7931  -27.2678  -45.8522 H         1 UNK         0.0600 
    202 H202       -1.4403  -26.5837  -45.4667 H         1 UNK         0.0600 
    203 H203       -1.4618  -25.5850  -46.9187 H         1 UNK         0.0600 
    204 H204       -1.5969  -27.3353  -47.0478 H         1 UNK         0.0600 
    205 H205       -3.7089  -24.3381  -47.8083 H         1 UNK         0.3000 
    206 H206       -4.5596  -23.6364  -49.6548 H         1 UNK         0.0600 
    207 H207       -6.7100  -24.7515  -49.1819 H         1 UNK         0.0600 
    208 H208       -6.3693  -24.7694  -50.9052 H         1 UNK         0.0600 
    209 H209       -6.1563  -26.2334  -49.9571 H         1 UNK         0.0600 
    210 H210       -3.9417  -27.0857  -50.1925 H         1 UNK         0.3000 
    211 H211       -2.7466  -28.3008  -51.6373 H         1 UNK         0.0600 
    212 H212       -0.7130  -26.0462  -51.2119 H         1 UNK         0.0600 
    213 H213       -0.3420  -27.7126  -51.6404 H         1 UNK         0.0600 
    214 H214       -1.0354  -27.3494  -50.0699 H         1 UNK         0.0600 
    215 H215       -4.4701  -26.4089  -53.0198 H         1 UNK         0.3000 
    216 H216       -5.0923  -25.6574  -54.9868 H         1 UNK         0.0600 
    217 H217       -4.2425  -27.7752  -55.9957 H         1 UNK         0.0600 
    218 H218       -2.6673  -27.0278  -56.2615 H         1 UNK         0.0600 
    219 H219       -4.0842  -26.4166  -57.0983 H         1 UNK         0.0600 
    220 H220       -1.7751  -24.9973  -54.1104 H         1 UNK         0.3000 
    221 H221       -1.1373  -22.8398  -55.7576 H         1 UNK         0.0600 
    222 H222       -0.2963  -23.3166  -52.8473 H         1 UNK         0.0600 
    223 H223        0.4541  -24.0606  -54.2584 H         1 UNK         0.0600 
    224 H224        0.5565  -22.3249  -54.0299 H         1 UNK         0.0600 
    225 H225       -2.9996  -22.8294  -52.6832 H         1 UNK         0.3000 
    226 H226       -3.1968  -20.0002  -52.4098 H         1 UNK         0.0600 
    227 H227       -3.6872  -21.6115  -50.5649 H         1 UNK         0.0600 
    228 H228       -5.0429  -20.5307  -50.8354 H         1 UNK         0.0600 
    229 H229       -5.1130  -22.1816  -51.4370 H         1 UNK         0.0600 
    230 H230       -4.9813  -22.2568  -54.4496 H         1 UNK         0.3000 
    231 H231       -7.0871  -20.3345  -55.1580 H         1 UNK         0.0600 
    232 H232       -7.8412  -22.1048  -56.6943 H         1 UNK         0.0600 
    233 H233       -7.5985  -22.7735  -55.0883 H         1 UNK         0.0600 
    234 H234       -6.4148  -23.0722  -56.3596 H         1 UNK         0.0600 
    235 H235       -4.0923  -21.7178  -56.5720 H         1 UNK         0.3000 
    236 H236       -4.1612  -20.4007  -59.0616 H         1 UNK         0.0600 
    237 H237       -2.6633  -22.3292  -58.4899 H         1 UNK         0.0600 
    238 H238       -1.7698  -20.9857  -59.1882 H         1 UNK         0.0600 
    239 H239       -1.7018  -21.2716  -57.4571 H         1 UNK         0.0600 
    240 H240       -2.7454  -19.3322  -55.9527 H         1 UNK         0.3000 
    241 H241       -2.0521  -16.6789  -56.9612 H         1 UNK         0.0600 
    242 H242       -5.8679  -16.3200  -55.9940 H         1 UNK         0.3800 
    243 H243       -5.1768  -17.8231  -56.5403 H         1 UNK         0.3800 
    244 H244       -1.8814  -18.0248  -54.2411 H         1 UNK         0.0800 
    245 H245       -1.7109  -16.2991  -54.3469 H         1 UNK         0.0800 
    246 H246        1.8479  -18.7885  -54.5441 H         1 UNK         0.0800 
    247 H247        0.3380  -19.6318  -54.7708 H         1 UNK         0.0800 
@<TRIPOS>BOND
     1    1    2 1    
     2    1  127 1    
     3    1  128 1    
     4    1  129 1    
     5    2    3 2    
     6    2    4 am   BACKBONE|DICT|INTERRES
     7    4    5 1    
     8    4  130 1    
     9    5    6 1    
    10    5   65 1    
    11    5  131 1    
    12    6    7 1    
    13    6  132 1    
    14    6  133 1    
    15    7    8 1    
    16    8    9 1    
    17    8  134 1    
    18    8  135 1    
    19    9   10 ar   
    20    9   14 ar   
    21   10   11 ar   
    22   10  136 1    
    23   11   12 ar   
    24   11  126 1    
    25   12   13 ar   
    26   12  137 1    
    27   13   14 ar   
    28   13   15 1    
    29   14  138 1    
    30   15   16 1    
    31   15  139 1    
    32   15  140 1    
    33   16   17 1    
    34   17   18 1    
    35   17  141 1    
    36   17  142 1    
    37   18   19 1    
    38   18   67 1    
    39   18  143 1    
    40   19   20 am   BACKBONE|DICT|INTERRES
    41   19  144 1    
    42   20   21 2    
    43   20   22 1    
    44   22   23 1    
    45   22   24 1    
    46   22  145 1    
    47   23  146 1    
    48   23  147 1    
    49   23  148 1    
    50   24   25 am   BACKBONE|DICT|INTERRES
    51   24  149 1    
    52   25   26 2    
    53   25   27 1    
    54   27   28 1    
    55   27   29 1    
    56   27  150 1    
    57   28  151 1    
    58   28  152 1    
    59   28  153 1    
    60   29   30 am   BACKBONE|DICT|INTERRES
    61   29  154 1    
    62   30   31 2    
    63   30   32 1    
    64   32   33 1    
    65   32   34 1    
    66   32  155 1    
    67   33  156 1    
    68   33  157 1    
    69   33  158 1    
    70   34   35 am   BACKBONE|DICT|INTERRES
    71   34  159 1    
    72   35   36 2    
    73   35   37 1    
    74   37   38 1    
    75   37   39 1    
    76   37  160 1    
    77   38  161 1    
    78   38  162 1    
    79   38  163 1    
    80   39   40 am   BACKBONE|DICT|INTERRES
    81   39  164 1    
    82   40   41 2    
    83   40   42 1    
    84   42   43 1    
    85   42   44 1    
    86   42  165 1    
    87   43  166 1    
    88   43  167 1    
    89   43  168 1    
    90   44   45 am   BACKBONE|DICT|INTERRES
    91   44  169 1    
    92   45   46 2    
    93   45   47 1    
    94   47   48 1    
    95   47   49 1    
    96   47  170 1    
    97   48  171 1    
    98   48  172 1    
    99   48  173 1    
   100   49   50 am   BACKBONE|DICT|INTERRES
   101   49  174 1    
   102   50   51 2    
   103   50   52 1    
   104   52   53 1    
   105   52   54 1    
   106   52  175 1    
   107   53  176 1    
   108   53  177 1    
   109   53  178 1    
   110   54   55 am   BACKBONE|DICT|INTERRES
   111   54  179 1    
   112   55   56 2    
   113   55   57 1    
   114   57   58 1    
   115   57   59 1    
   116   57  180 1    
   117   58  181 1    
   118   58  182 1    
   119   58  183 1    
   120   59   60 am   BACKBONE|DICT|INTERRES
   121   59  184 1    
   122   60   61 2    
   123   60   62 1    
   124   62   63 1    
   125   62   64 1    
   126   62  185 1    
   127   63  186 1    
   128   63  187 1    
   129   63  188 1    
   130   64   65 am   BACKBONE|DICT|INTERRES
   131   64  189 1    
   132   65   66 2    
   133   67   68 2    
   134   67   69 am   BACKBONE|DICT|INTERRES
   135   69   70 1    
   136   69  190 1    
   137   70   71 1    
   138   70   72 1    
   139   70  191 1    
   140   71  192 1    
   141   71  193 1    
   142   71  194 1    
   143   72   73 2    
   144   72   74 am   BACKBONE|DICT|INTERRES
   145   74   75 1    
   146   74  195 1    
   147   75   76 1    
   148   75   77 1    
   149   75  196 1    
   150   76  197 1    
   151   76  198 1    
   152   76  199 1    
   153   77   78 2    
   154   77   79 am   BACKBONE|DICT|INTERRES
   155   79   80 1    
   156   79  200 1    
   157   80   81 1    
   158   80   82 1    
   159   80  201 1    
   160   81  202 1    
   161   81  203 1    
   162   81  204 1    
   163   82   83 2    
   164   82   84 am   BACKBONE|DICT|INTERRES
   165   84   85 1    
   166   84  205 1    
   167   85   86 1    
   168   85   87 1    
   169   85  206 1    
   170   86  207 1    
   171   86  208 1    
   172   86  209 1    
   173   87   88 2    
   174   87   89 am   BACKBONE|DICT|INTERRES
   175   89   90 1    
   176   89  210 1    
   177   90   91 1    
   178   90   92 1    
   179   90  211 1    
   180   91  212 1    
   181   91  213 1    
   182   91  214 1    
   183   92   93 2    
   184   92   94 am   BACKBONE|DICT|INTERRES
   185   94   95 1    
   186   94  215 1    
   187   95   96 1    
   188   95   97 1    
   189   95  216 1    
   190   96  217 1    
   191   96  218 1    
   192   96  219 1    
   193   97   98 2    
   194   97   99 am   BACKBONE|DICT|INTERRES
   195   99  100 1    
   196   99  220 1    
   197  100  101 1    
   198  100  102 1    
   199  100  221 1    
   200  101  222 1    
   201  101  223 1    
   202  101  224 1    
   203  102  103 2    
   204  102  104 am   BACKBONE|DICT|INTERRES
   205  104  105 1    
   206  104  225 1    
   207  105  106 1    
   208  105  107 1    
   209  105  226 1    
   210  106  227 1    
   211  106  228 1    
   212  106  229 1    
   213  107  108 2    
   214  107  109 am   BACKBONE|DICT|INTERRES
   215  109  110 1    
   216  109  230 1    
   217  110  111 1    
   218  110  112 1    
   219  110  231 1    
   220  111  232 1    
   221  111  233 1    
   222  111  234 1    
   223  112  113 2    
   224  112  114 am   BACKBONE|DICT|INTERRES
   225  114  115 1    
   226  114  235 1    
   227  115  116 1    
   228  115  117 1    
   229  115  236 1    
   230  116  237 1    
   231  116  238 1    
   232  116  239 1    
   233  117  118 2    
   234  117  119 am   BACKBONE|DICT|INTERRES
   235  119  120 1    
   236  119  240 1    
   237  120  121 1    
   238  120  124 1    
   239  120  241 1    
   240  121  122 am   BACKBONE|DICT|INTERRES
   241  121  123 2    
   242  122  242 1    
   243  122  243 1    
   244  124  125 1    
   245  124  244 1    
   246  124  245 1    
   247  125  126 1    
   248  126  246 1    
   249  126  247 1    
@<TRIPOS>SUBSTRUCTURE
     1 UNK         1 GROUP             0       ****    0 ROOT    
