@<TRIPOS>MOLECULE
3R540
247   249    1
SMALL
USER_CHARGES


@<TRIPOS>ATOM
      1 CA          3.0014  -11.8588  -46.0127 C.3       0 UNK        -0.1800 
      2 C           2.5327  -13.2555  -46.3939 C.2       0 UNK         0.5000 
      3 O           2.4269  -14.1249  -45.5277 O.2       0 UNK        -0.5000 
      4 N           2.2757  -13.4824  -47.6887 N.am      1 UNK        -0.5000 
      5 CA          1.9145  -14.7638  -48.3131 C.3       1 UNK         0.1400 
      6 C6          0.6130  -15.4098  -47.7639 C.3       23 UNK        -0.0398 
      7 S7         -0.8500  -14.3211  -47.9145 S.3       23 UNK        -0.2404 
      8 C8         -1.6483  -14.8929  -49.4531 C.3       23 UNK        -0.0205 
      9 C9         -2.0508  -16.3581  -49.3849 C.ar      23 UNK        -0.0193 
     10 C10        -3.1419  -16.7630  -48.6116 C.ar      23 UNK        -0.1150 
     11 C11        -3.4602  -18.1193  -48.4867 C.ar      23 UNK        -0.0193 
     12 C12        -2.6739  -19.0729  -49.1406 C.ar      23 UNK        -0.1150 
     13 C13        -1.5854  -18.6761  -49.9245 C.ar      23 UNK        -0.0193 
     14 C14        -1.2992  -17.3170  -50.0657 C.ar      23 UNK        -0.1150 
     15 C15        -0.6787  -19.7117  -50.5737 C.3       23 UNK        -0.0205 
     16 S16         1.0601  -19.5553  -50.0418 S.3       23 UNK        -0.2404 
     17 C17         0.9294  -19.5492  -48.2206 C.3       23 UNK        -0.0398 
     18 CA          1.1013  -20.9590  -47.6126 C.3       11 UNK         0.1400 
     19 N           1.6351  -20.8986  -46.2518 N.am      11 UNK        -0.5000 
     20 C           2.4965  -21.7811  -45.7288 C.2       10 UNK         0.5000 
     21 O           2.9727  -22.7268  -46.3566 O.2       10 UNK        -0.5000 
     22 CA          2.8877  -21.5871  -44.2499 C.3       10 UNK         0.1400 
     23 CB          4.2035  -20.8046  -44.1303 C.3       10 UNK        -0.1800 
     24 N           1.8602  -20.9079  -43.4594 N.am      10 UNK        -0.5000 
     25 C           0.6752  -21.4430  -43.1405 C.2       9 UNK         0.5000 
     26 O           0.3193  -22.5732  -43.4756 O.2       9 UNK        -0.5000 
     27 CA         -0.2871  -20.5467  -42.3412 C.3       9 UNK         0.1400 
     28 CB          0.0165  -20.6396  -40.8383 C.3       9 UNK        -0.1800 
     29 N          -0.3085  -19.1333  -42.7356 N.am      9 UNK        -0.5000 
     30 C          -0.5196  -18.6472  -43.9686 C.2       8 UNK         0.5000 
     31 O          -0.4706  -19.3363  -44.9871 O.2       8 UNK        -0.5000 
     32 CA         -0.8354  -17.1397  -44.0896 C.3       8 UNK         0.1400 
     33 CB         -1.8174  -16.8467  -45.2410 C.3       8 UNK        -0.1800 
     34 N          -1.3045  -16.5192  -42.8436 N.am      8 UNK        -0.5000 
     35 C          -2.3837  -16.8393  -42.1100 C.2       7 UNK         0.5000 
     36 O          -3.1853  -17.7256  -42.4048 O.2       7 UNK        -0.5000 
     37 CA         -2.5829  -16.0435  -40.8118 C.3       7 UNK         0.1400 
     38 CB         -1.5140  -16.4236  -39.7729 C.3       7 UNK        -0.1800 
     39 N          -2.5095  -14.6087  -41.0751 N.am      7 UNK        -0.5000 
     40 C          -3.5428  -13.7593  -40.9942 C.2       6 UNK         0.5000 
     41 O          -4.6713  -14.0831  -40.6214 O.2       6 UNK        -0.5000 
     42 CA         -3.2793  -12.2942  -41.4001 C.3       6 UNK         0.1400 
     43 CB         -2.9995  -11.4351  -40.1574 C.3       6 UNK        -0.1800 
     44 N          -2.1652  -12.1463  -42.3373 N.am      6 UNK        -0.5000 
     45 C          -2.1586  -12.5974  -43.5992 C.2       5 UNK         0.5000 
     46 O          -3.1383  -13.1018  -44.1479 O.2       5 UNK        -0.5000 
     47 CA         -0.8296  -12.4897  -44.3713 C.3       5 UNK         0.1400 
     48 CB         -0.8899  -11.3383  -45.3871 C.3       5 UNK        -0.1800 
     49 N           0.3627  -12.3268  -43.5283 N.am      5 UNK        -0.5000 
     50 C           0.8265  -13.2447  -42.6706 C.2       4 UNK         0.5000 
     51 O           0.2099  -14.2664  -42.3559 O.2       4 UNK        -0.5000 
     52 CA          2.2069  -12.9941  -42.0547 C.3       4 UNK         0.1400 
     53 CB          2.0805  -12.5974  -40.5759 C.3       4 UNK        -0.1800 
     54 N           2.9349  -14.2520  -42.1646 N.am      4 UNK        -0.5000 
     55 C           4.1117  -14.4177  -42.7756 C.2       3 UNK         0.5000 
     56 O           4.8377  -13.4890  -43.1340 O.2       3 UNK        -0.5000 
     57 CA          4.5280  -15.8613  -43.1006 C.3       3 UNK         0.1400 
     58 CB          3.7367  -16.9463  -42.3338 C.3       3 UNK        -0.1800 
     59 N           4.3511  -16.0448  -44.5374 N.am      3 UNK        -0.5000 
     60 C           5.0213  -16.9225  -45.2972 C.2       2 UNK         0.5000 
     61 O           5.9053  -17.6552  -44.8517 O.2       2 UNK        -0.5000 
     62 CA          4.6438  -17.0257  -46.7914 C.3       2 UNK         0.1400 
     63 CB          4.4816  -18.4905  -47.2400 C.3       2 UNK        -0.1800 
     64 N           3.4324  -16.2641  -47.0998 N.am      2 UNK        -0.5000 
     65 C           3.1168  -15.7344  -48.2872 C.2       1 UNK         0.5000 
     66 O           3.7583  -15.9343  -49.3191 O.2       1 UNK        -0.5000 
     67 C          -0.2286  -21.7334  -47.6306 C.2       11 UNK         0.5000 
     68 O          -0.4618  -22.5209  -48.5467 O.2       11 UNK        -0.5000 
     69 N          -1.0682  -21.5296  -46.6050 N.am      12 UNK        -0.5000 
     70 CA         -2.3755  -22.1672  -46.4198 C.3       12 UNK         0.1400 
     71 CB         -3.0699  -21.5384  -45.2038 C.3       12 UNK        -0.1800 
     72 C          -2.3194  -23.7028  -46.2828 C.2       12 UNK         0.5000 
     73 O          -3.3334  -24.3659  -46.4975 O.2       12 UNK        -0.5000 
     74 N          -1.1348  -24.2441  -45.9686 N.am      13 UNK        -0.5000 
     75 CA         -0.8184  -25.6707  -46.0316 C.3       13 UNK         0.1400 
     76 CB          0.5740  -25.8928  -45.4216 C.3       13 UNK        -0.1800 
     77 C          -0.8796  -26.2440  -47.4652 C.2       13 UNK         0.5000 
     78 O          -1.1833  -27.4267  -47.6257 O.2       13 UNK        -0.5000 
     79 N          -0.6026  -25.4026  -48.4715 N.am      14 UNK        -0.5000 
     80 CA         -0.7250  -25.7184  -49.8929 C.3       14 UNK         0.1400 
     81 CB          0.4833  -25.1425  -50.6495 C.3       14 UNK        -0.1800 
     82 C          -2.0423  -25.1589  -50.4533 C.2       14 UNK         0.5000 
     83 O          -2.7891  -25.9027  -51.0900 O.2       14 UNK        -0.5000 
     84 N          -2.3069  -23.8682  -50.1918 N.am      15 UNK        -0.5000 
     85 CA         -3.5054  -23.1055  -50.5577 C.3       15 UNK         0.1400 
     86 CB         -4.6913  -23.5270  -49.6655 C.3       15 UNK        -0.1800 
     87 C          -3.8171  -23.1748  -52.0665 C.2       15 UNK         0.5000 
     88 O          -3.1680  -22.4835  -52.8532 O.2       15 UNK        -0.5000 
     89 N          -4.7702  -24.0339  -52.4505 N.am      16 UNK        -0.5000 
     90 CA         -5.1437  -24.3140  -53.8366 C.3       16 UNK         0.1400 
     91 CB         -6.3807  -25.2236  -53.8513 C.3       16 UNK        -0.1800 
     92 C          -4.0026  -24.9416  -54.6607 C.2       16 UNK         0.5000 
     93 O          -3.9245  -24.6899  -55.8626 O.2       16 UNK        -0.5000 
     94 N          -3.1044  -25.6952  -54.0073 N.am      17 UNK        -0.5000 
     95 CA         -1.9009  -26.2610  -54.6266 C.3       17 UNK         0.1400 
     96 CB         -1.3317  -27.3716  -53.7311 C.3       17 UNK        -0.1800 
     97 C          -0.8270  -25.1969  -54.9343 C.2       17 UNK         0.5000 
     98 O           0.0121  -25.4223  -55.8063 O.2       17 UNK        -0.5000 
     99 N          -0.8928  -24.0487  -54.2449 N.am      18 UNK        -0.5000 
    100 CA        -0.0959  -22.8516  -54.5220 C.3       18 UNK         0.1400 
    101 CB         0.2549  -22.1716  -53.1875 C.3       18 UNK        -0.1800 
    102 C         -0.8249  -21.8783  -55.4755 C.2       18 UNK         0.5000 
    103 O         -0.2873  -20.8097  -55.7678 O.2       18 UNK        -0.5000 
    104 N         -2.0272  -22.2587  -55.9392 N.am      19 UNK        -0.5000 
    105 CA        -2.9293  -21.5231  -56.8313 C.3       19 UNK         0.1400 
    106 CB        -2.2885  -21.3254  -58.2212 C.3       19 UNK        -0.1800 
    107 C         -3.4760  -20.2119  -56.2273 C.2       19 UNK         0.5000 
    108 O         -3.8406  -19.3016  -56.9747 O.2       19 UNK        -0.5000 
    109 N         -3.5390  -20.1335  -54.8917 N.am      20 UNK        -0.5000 
    110 CA        -4.0971  -18.9957  -54.1657 C.3       20 UNK         0.1400 
    111 CB        -3.4462  -18.9249  -52.7786 C.3       20 UNK        -0.1800 
    112 C         -5.6240  -19.1029  -54.0359 C.2       20 UNK         0.5000 
    113 O         -6.1840  -20.1991  -54.1314 O.2       20 UNK        -0.5000 
    114 N         -6.2623  -17.9606  -53.7446 N.am      21 UNK        -0.5000 
    115 CA        -7.7037  -17.8223  -53.4993 C.3       21 UNK         0.1400 
    116 CB        -8.0357  -16.3335  -53.3145 C.3       21 UNK        -0.1800 
    117 C         -8.2225  -18.6439  -52.3001 C.2       21 UNK         0.5000 
    118 O         -9.4155  -18.9444  -52.2420 O.2       21 UNK        -0.5000 
    119 N         -7.3141  -19.0158  -51.3892 N.am      22 UNK        -0.5000 
    120 CA        -7.5393  -19.9893  -50.3118 C.3       22 UNK         0.1400 
    121 C         -7.8057  -21.4430  -50.8063 C.2       22 UNK         0.5000 
    122 N         -7.4821  -21.8068  -52.0428 N.am      22 UNK        -0.7600 
    123 O         -8.3210  -22.2590  -50.0480 O.2       22 UNK        -0.5000 
    124 C124       -6.3779  -19.9727  -49.2843 C.3       23 UNK        -0.0398 
    125 S125       -6.2243  -18.3640  -48.4391 S.3       23 UNK        -0.2404 
    126 C126       -4.6201  -18.5458  -47.5996 C.3       23 UNK        -0.0205 
    127 H127        2.3105  -11.4018  -45.3074 H         1 UNK         0.0600 
    128 H128        3.0800  -11.2061  -46.8823 H         1 UNK         0.0600 
    129 H129        3.9815  -11.9137  -45.5388 H         1 UNK         0.0600 
    130 H130        2.3960  -12.7208  -48.3414 H         1 UNK         0.3000 
    131 H131        1.7325  -14.5352  -49.3647 H         1 UNK         0.0600 
    132 H132        0.4250  -16.3577  -48.2649 H         1 UNK         0.0800 
    133 H133        0.7154  -15.6615  -46.7086 H         1 UNK         0.0800 
    134 H134       -2.5349  -14.2849  -49.6378 H         1 UNK         0.0800 
    135 H135       -0.9751  -14.7143  -50.2929 H         1 UNK         0.0800 
    136 H136       -3.7256  -16.0233  -48.0817 H         1 UNK         0.1150 
    137 H137       -2.8947  -20.1226  -49.0178 H         1 UNK         0.1150 
    138 H138       -0.4497  -17.0117  -50.6605 H         1 UNK         0.1150 
    139 H139       -1.0323  -20.7224  -50.3725 H         1 UNK         0.0800 
    140 H140       -0.7085  -19.5914  -51.6555 H         1 UNK         0.0800 
    141 H141        0.0136  -19.0659  -47.8776 H         1 UNK         0.0800 
    142 H142        1.7283  -18.8963  -47.8735 H         1 UNK         0.0800 
    143 H143        1.8077  -21.5121  -48.2358 H         1 UNK         0.0600 
    144 H144        1.2260  -20.1983  -45.6438 H         1 UNK         0.3000 
    145 H145        3.0441  -22.5804  -43.8237 H         1 UNK         0.0600 
    146 H146        4.9882  -21.2543  -44.7403 H         1 UNK         0.0600 
    147 H147        4.5612  -20.7913  -43.1007 H         1 UNK         0.0600 
    148 H148        4.0866  -19.7710  -44.4539 H         1 UNK         0.0600 
    149 H149        2.0639  -19.9702  -43.1474 H         1 UNK         0.3000 
    150 H150       -1.2945  -20.9336  -42.5000 H         1 UNK         0.0600 
    151 H151        0.0222  -21.6777  -40.5028 H         1 UNK         0.0600 
    152 H152       -0.7368  -20.1150  -40.2501 H         1 UNK         0.0600 
    153 H153        0.9900  -20.2108  -40.5970 H         1 UNK         0.0600 
    154 H154       -0.3438  -18.4702  -41.9766 H         1 UNK         0.3000 
    155 H155        0.1104  -16.6526  -44.3310 H         1 UNK         0.0600 
    156 H156       -1.4152  -17.1805  -46.1982 H         1 UNK         0.0600 
    157 H157       -2.0151  -15.7784  -45.3293 H         1 UNK         0.0600 
    158 H158       -2.7716  -17.3529  -45.0955 H         1 UNK         0.0600 
    159 H159       -0.7228  -15.7461  -42.5237 H         1 UNK         0.3000 
    160 H160       -3.5588  -16.3147  -40.4039 H         1 UNK         0.0600 
    161 H161       -0.5094  -16.1562  -40.1033 H         1 UNK         0.0600 
    162 H162       -1.5233  -17.4964  -39.5756 H         1 UNK         0.0600 
    163 H163       -1.6958  -15.9182  -38.8243 H         1 UNK         0.0600 
    164 H164       -1.6261  -14.2615  -41.4301 H         1 UNK         0.3000 
    165 H165       -4.1831  -11.9171  -41.8833 H         1 UNK         0.0600 
    166 H166       -2.8811  -10.3842  -40.4221 H         1 UNK         0.0600 
    167 H167       -3.8232  -11.4985  -39.4452 H         1 UNK         0.0600 
    168 H168       -2.0939  -11.7568  -39.6415 H         1 UNK         0.0600 
    169 H169       -1.3176  -11.7352  -41.9756 H         1 UNK         0.3000 
    170 H170       -0.7109  -13.4236  -44.9253 H         1 UNK         0.0600 
    171 H171       -0.9396  -10.3672  -44.8934 H         1 UNK         0.0600 
    172 H172       -0.0201  -11.3421  -46.0432 H         1 UNK         0.0600 
    173 H173       -1.7687  -11.4276  -46.0274 H         1 UNK         0.0600 
    174 H174        0.9125  -11.4977  -43.6964 H         1 UNK         0.3000 
    175 H175        2.7109  -12.1968  -42.6053 H         1 UNK         0.0600 
    176 H176        1.5576  -13.3589  -39.9954 H         1 UNK         0.0600 
    177 H177        3.0621  -12.4503  -40.1253 H         1 UNK         0.0600 
    178 H178        1.5285  -11.6631  -40.4679 H         1 UNK         0.0600 
    179 H179        2.3784  -15.0705  -41.9602 H         1 UNK         0.3000 
    180 H180        5.5860  -15.9511  -42.8456 H         1 UNK         0.0600 
    181 H181        4.1485  -17.9368  -42.5271 H         1 UNK         0.0600 
    182 H182        2.6848  -16.9677  -42.6217 H         1 UNK         0.0600 
    183 H183        3.7898  -16.7858  -41.2562 H         1 UNK         0.0600 
    184 H184        3.7105  -15.3794  -44.9624 H         1 UNK         0.3000 
    185 H185        5.4763  -16.5865  -47.3446 H         1 UNK         0.0600 
    186 H186        4.2339  -18.5619  -48.2991 H         1 UNK         0.0600 
    187 H187        5.4028  -19.0540  -47.0876 H         1 UNK         0.0600 
    188 H188        3.6973  -18.9908  -46.6753 H         1 UNK         0.0600 
    189 H189        2.8749  -15.9771  -46.3052 H         1 UNK         0.3000 
    190 H190       -0.8199  -20.8228  -45.9156 H         1 UNK         0.3000 
    191 H191       -2.9720  -21.9427  -47.3052 H         1 UNK         0.0600 
    192 H192       -2.5389  -21.7702  -44.2813 H         1 UNK         0.0600 
    193 H193       -4.0888  -21.9129  -45.0988 H         1 UNK         0.0600 
    194 H194       -3.1289  -20.4534  -45.2942 H         1 UNK         0.0600 
    195 H195       -0.3747  -23.6191  -45.7393 H         1 UNK         0.3000 
    196 H196       -1.5514  -26.2072  -45.4259 H         1 UNK         0.0600 
    197 H197        0.6104  -25.5500  -44.3872 H         1 UNK         0.0600 
    198 H198        1.3463  -25.3593  -45.9778 H         1 UNK         0.0600 
    199 H199        0.8378  -26.9512  -45.4235 H         1 UNK         0.0600 
    200 H200       -0.4064  -24.4315  -48.2526 H         1 UNK         0.3000 
    201 H201       -0.7295  -26.8000  -50.0431 H         1 UNK         0.0600 
    202 H202        1.4100  -25.6100  -50.3169 H         1 UNK         0.0600 
    203 H203        0.5834  -24.0675  -50.4988 H         1 UNK         0.0600 
    204 H204        0.3991  -25.3164  -51.7225 H         1 UNK         0.0600 
    205 H205       -1.6051  -23.3449  -49.6722 H         1 UNK         0.3000 
    206 H206       -3.2880  -22.0587  -50.3452 H         1 UNK         0.0600 
    207 H207       -4.5093  -23.2634  -48.6254 H         1 UNK         0.0600 
    208 H208       -5.6082  -23.0211  -49.9606 H         1 UNK         0.0600 
    209 H209       -4.8785  -24.6004  -49.7025 H         1 UNK         0.0600 
    210 H210       -5.2174  -24.5948  -51.7402 H         1 UNK         0.3000 
    211 H211       -5.4080  -23.3646  -54.3080 H         1 UNK         0.0600 
    212 H212       -6.7018  -25.4291  -54.8734 H         1 UNK         0.0600 
    213 H213       -7.2210  -24.7591  -53.3358 H         1 UNK         0.0600 
    214 H214       -6.1802  -26.1822  -53.3710 H         1 UNK         0.0600 
    215 H215       -3.2099  -25.8356  -53.0058 H         1 UNK         0.3000 
    216 H216       -2.1905  -26.7151  -55.5768 H         1 UNK         0.0600 
    217 H217       -0.9835  -26.9846  -52.7748 H         1 UNK         0.0600 
    218 H218       -2.0796  -28.1387  -53.5298 H         1 UNK         0.0600 
    219 H219       -0.4842  -27.8621  -54.2115 H         1 UNK         0.0600 
    220 H220       -1.6404  -23.9269  -53.5740 H         1 UNK         0.3000 
    221 H221        0.8399  -23.1327  -55.0089 H         1 UNK         0.0600 
    222 H222       -0.6371  -21.9008  -52.6243 H         1 UNK         0.0600 
    223 H223        0.8596  -22.8265  -52.5618 H         1 UNK         0.0600 
    224 H224        0.8320  -21.2597  -53.3455 H         1 UNK         0.0600 
    225 H225       -2.3775  -23.1604  -55.6438 H         1 UNK         0.3000 
    226 H226       -3.8004  -22.1652  -56.9669 H         1 UNK         0.0600 
    227 H227       -1.9224  -22.2697  -58.6241 H         1 UNK         0.0600 
    228 H228       -3.0132  -20.9307  -58.9342 H         1 UNK         0.0600 
    229 H229       -1.4519  -20.6272  -58.1871 H         1 UNK         0.0600 
    230 H230       -3.2796  -20.9414  -54.3367 H         1 UNK         0.3000 
    231 H231       -3.8613  -18.0728  -54.7002 H         1 UNK         0.0600 
    232 H232       -3.5879  -19.8455  -52.2117 H         1 UNK         0.0600 
    233 H233       -2.3775  -18.7448  -52.8774 H         1 UNK         0.0600 
    234 H234       -3.8520  -18.1059  -52.1831 H         1 UNK         0.0600 
    235 H235       -5.7216  -17.1107  -53.6713 H         1 UNK         0.3000 
    236 H236       -8.2255  -18.1836  -54.3878 H         1 UNK         0.0600 
    237 H237       -7.5194  -15.9110  -52.4515 H         1 UNK         0.0600 
    238 H238       -7.7542  -15.7533  -54.1934 H         1 UNK         0.0600 
    239 H239       -9.1057  -16.1874  -53.1604 H         1 UNK         0.0600 
    240 H240       -6.3664  -18.6924  -51.5042 H         1 UNK         0.3000 
    241 H241       -8.4482  -19.6835  -49.7899 H         1 UNK         0.0600 
    242 H242       -7.6857  -22.7458  -52.3398 H         1 UNK         0.3800 
    243 H243       -7.0639  -21.1559  -52.7011 H         1 UNK         0.3800 
    244 H244       -6.5302  -20.7330  -48.5157 H         1 UNK         0.0800 
    245 H245       -5.4335  -20.2132  -49.7751 H         1 UNK         0.0800 
    246 H246       -4.4920  -19.5738  -47.2582 H         1 UNK         0.0800 
    247 H247       -4.6276  -17.9292  -46.6997 H         1 UNK         0.0800 
@<TRIPOS>BOND
     1    1    2 1    
     2    1  127 1    
     3    1  128 1    
     4    1  129 1    
     5    2    3 2    
     6    2    4 am   BACKBONE|DICT|INTERRES
     7    4    5 1    
     8    4  130 1    
     9    5    6 1    
    10    5   65 1    
    11    5  131 1    
    12    6    7 1    
    13    6  132 1    
    14    6  133 1    
    15    7    8 1    
    16    8    9 1    
    17    8  134 1    
    18    8  135 1    
    19    9   10 ar   
    20    9   14 ar   
    21   10   11 ar   
    22   10  136 1    
    23   11   12 ar   
    24   11  126 1    
    25   12   13 ar   
    26   12  137 1    
    27   13   14 ar   
    28   13   15 1    
    29   14  138 1    
    30   15   16 1    
    31   15  139 1    
    32   15  140 1    
    33   16   17 1    
    34   17   18 1    
    35   17  141 1    
    36   17  142 1    
    37   18   19 1    
    38   18   67 1    
    39   18  143 1    
    40   19   20 am   BACKBONE|DICT|INTERRES
    41   19  144 1    
    42   20   21 2    
    43   20   22 1    
    44   22   23 1    
    45   22   24 1    
    46   22  145 1    
    47   23  146 1    
    48   23  147 1    
    49   23  148 1    
    50   24   25 am   BACKBONE|DICT|INTERRES
    51   24  149 1    
    52   25   26 2    
    53   25   27 1    
    54   27   28 1    
    55   27   29 1    
    56   27  150 1    
    57   28  151 1    
    58   28  152 1    
    59   28  153 1    
    60   29   30 am   BACKBONE|DICT|INTERRES
    61   29  154 1    
    62   30   31 2    
    63   30   32 1    
    64   32   33 1    
    65   32   34 1    
    66   32  155 1    
    67   33  156 1    
    68   33  157 1    
    69   33  158 1    
    70   34   35 am   BACKBONE|DICT|INTERRES
    71   34  159 1    
    72   35   36 2    
    73   35   37 1    
    74   37   38 1    
    75   37   39 1    
    76   37  160 1    
    77   38  161 1    
    78   38  162 1    
    79   38  163 1    
    80   39   40 am   BACKBONE|DICT|INTERRES
    81   39  164 1    
    82   40   41 2    
    83   40   42 1    
    84   42   43 1    
    85   42   44 1    
    86   42  165 1    
    87   43  166 1    
    88   43  167 1    
    89   43  168 1    
    90   44   45 am   BACKBONE|DICT|INTERRES
    91   44  169 1    
    92   45   46 2    
    93   45   47 1    
    94   47   48 1    
    95   47   49 1    
    96   47  170 1    
    97   48  171 1    
    98   48  172 1    
    99   48  173 1    
   100   49   50 am   BACKBONE|DICT|INTERRES
   101   49  174 1    
   102   50   51 2    
   103   50   52 1    
   104   52   53 1    
   105   52   54 1    
   106   52  175 1    
   107   53  176 1    
   108   53  177 1    
   109   53  178 1    
   110   54   55 am   BACKBONE|DICT|INTERRES
   111   54  179 1    
   112   55   56 2    
   113   55   57 1    
   114   57   58 1    
   115   57   59 1    
   116   57  180 1    
   117   58  181 1    
   118   58  182 1    
   119   58  183 1    
   120   59   60 am   BACKBONE|DICT|INTERRES
   121   59  184 1    
   122   60   61 2    
   123   60   62 1    
   124   62   63 1    
   125   62   64 1    
   126   62  185 1    
   127   63  186 1    
   128   63  187 1    
   129   63  188 1    
   130   64   65 am   BACKBONE|DICT|INTERRES
   131   64  189 1    
   132   65   66 2    
   133   67   68 2    
   134   67   69 am   BACKBONE|DICT|INTERRES
   135   69   70 1    
   136   69  190 1    
   137   70   71 1    
   138   70   72 1    
   139   70  191 1    
   140   71  192 1    
   141   71  193 1    
   142   71  194 1    
   143   72   73 2    
   144   72   74 am   BACKBONE|DICT|INTERRES
   145   74   75 1    
   146   74  195 1    
   147   75   76 1    
   148   75   77 1    
   149   75  196 1    
   150   76  197 1    
   151   76  198 1    
   152   76  199 1    
   153   77   78 2    
   154   77   79 am   BACKBONE|DICT|INTERRES
   155   79   80 1    
   156   79  200 1    
   157   80   81 1    
   158   80   82 1    
   159   80  201 1    
   160   81  202 1    
   161   81  203 1    
   162   81  204 1    
   163   82   83 2    
   164   82   84 am   BACKBONE|DICT|INTERRES
   165   84   85 1    
   166   84  205 1    
   167   85   86 1    
   168   85   87 1    
   169   85  206 1    
   170   86  207 1    
   171   86  208 1    
   172   86  209 1    
   173   87   88 2    
   174   87   89 am   BACKBONE|DICT|INTERRES
   175   89   90 1    
   176   89  210 1    
   177   90   91 1    
   178   90   92 1    
   179   90  211 1    
   180   91  212 1    
   181   91  213 1    
   182   91  214 1    
   183   92   93 2    
   184   92   94 am   BACKBONE|DICT|INTERRES
   185   94   95 1    
   186   94  215 1    
   187   95   96 1    
   188   95   97 1    
   189   95  216 1    
   190   96  217 1    
   191   96  218 1    
   192   96  219 1    
   193   97   98 2    
   194   97   99 am   BACKBONE|DICT|INTERRES
   195   99  100 1    
   196   99  220 1    
   197  100  101 1    
   198  100  102 1    
   199  100  221 1    
   200  101  222 1    
   201  101  223 1    
   202  101  224 1    
   203  102  103 2    
   204  102  104 am   BACKBONE|DICT|INTERRES
   205  104  105 1    
   206  104  225 1    
   207  105  106 1    
   208  105  107 1    
   209  105  226 1    
   210  106  227 1    
   211  106  228 1    
   212  106  229 1    
   213  107  108 2    
   214  107  109 am   BACKBONE|DICT|INTERRES
   215  109  110 1    
   216  109  230 1    
   217  110  111 1    
   218  110  112 1    
   219  110  231 1    
   220  111  232 1    
   221  111  233 1    
   222  111  234 1    
   223  112  113 2    
   224  112  114 am   BACKBONE|DICT|INTERRES
   225  114  115 1    
   226  114  235 1    
   227  115  116 1    
   228  115  117 1    
   229  115  236 1    
   230  116  237 1    
   231  116  238 1    
   232  116  239 1    
   233  117  118 2    
   234  117  119 am   BACKBONE|DICT|INTERRES
   235  119  120 1    
   236  119  240 1    
   237  120  121 1    
   238  120  124 1    
   239  120  241 1    
   240  121  122 am   BACKBONE|DICT|INTERRES
   241  121  123 2    
   242  122  242 1    
   243  122  243 1    
   244  124  125 1    
   245  124  244 1    
   246  124  245 1    
   247  125  126 1    
   248  126  246 1    
   249  126  247 1    
@<TRIPOS>SUBSTRUCTURE
     1 UNK         1 GROUP             0       ****    0 ROOT    
