@<TRIPOS>MOLECULE
3R540
247   249    1
SMALL
USER_CHARGES


@<TRIPOS>ATOM
      1 CA          3.5469  -12.0660  -50.6778 C.3       0 UNK        -0.1800 
      2 C           3.4880  -12.8186  -49.3558 C.2       0 UNK         0.5000 
      3 O           4.4806  -12.8576  -48.6277 O.2       0 UNK        -0.5000 
      4 N           2.3336  -13.4217  -49.0493 N.am      1 UNK        -0.5000 
      5 CA          2.0731  -14.1496  -47.8036 C.3       1 UNK         0.1400 
      6 C6          0.8259  -15.0589  -47.9216 C.3       23 UNK        -0.0398 
      7 S7          1.1283  -16.4713  -49.0313 S.3       23 UNK        -0.2404 
      8 C8         -0.0010  -16.1081  -50.4130 C.3       23 UNK        -0.0205 
      9 C9          0.1080  -17.1786  -51.4868 C.ar      23 UNK        -0.0193 
     10 C10         0.6532  -16.8836  -52.7395 C.ar      23 UNK        -0.1150 
     11 C11         0.7836  -17.8844  -53.7079 C.ar      23 UNK        -0.0193 
     12 C12         0.3963  -19.1934  -53.4047 C.ar      23 UNK        -0.1150 
     13 C13        -0.1477  -19.4982  -52.1545 C.ar      23 UNK        -0.0193 
     14 C14        -0.3215  -18.4792  -51.2151 C.ar      23 UNK        -0.1150 
     15 C15        -0.5542  -20.9234  -51.8190 C.3       23 UNK        -0.0205 
     16 S16         0.8118  -21.9033  -51.1128 S.3       23 UNK        -0.2404 
     17 C17         1.1291  -21.1130  -49.4956 C.3       23 UNK        -0.0398 
     18 CA          0.2866  -21.6892  -48.3279 C.3       11 UNK         0.1400 
     19 N           0.9648  -21.5076  -47.0418 N.am      11 UNK        -0.5000 
     20 C           0.5989  -22.0953  -45.8941 C.2       10 UNK         0.5000 
     21 O          -0.3229  -22.9053  -45.8030 O.2       10 UNK        -0.5000 
     22 CA          1.3725  -21.6798  -44.6295 C.3       10 UNK         0.1400 
     23 CB          2.6009  -22.5771  -44.4214 C.3       10 UNK        -0.1800 
     24 N           1.7983  -20.2780  -44.6274 N.am      10 UNK        -0.5000 
     25 C           0.9804  -19.2181  -44.6519 C.2       9 UNK         0.5000 
     26 O          -0.2382  -19.3121  -44.8024 O.2       9 UNK        -0.5000 
     27 CA          1.6307  -17.8285  -44.4767 C.3       9 UNK         0.1400 
     28 CB          0.5890  -16.7358  -44.1791 C.3       9 UNK        -0.1800 
     29 N           2.6277  -17.8091  -43.4057 N.am      9 UNK        -0.5000 
     30 C           3.8910  -18.2462  -43.4853 C.2       8 UNK         0.5000 
     31 O           4.3763  -18.7368  -44.5046 O.2       8 UNK        -0.5000 
     32 CA          4.7251  -18.1752  -42.1967 C.3       8 UNK         0.1400 
     33 CB          5.1924  -16.7376  -41.9201 C.3       8 UNK        -0.1800 
     34 N           3.9450  -18.6575  -41.0588 N.am      8 UNK        -0.5000 
     35 C           3.9599  -19.9164  -40.6004 C.2       7 UNK         0.5000 
     36 O           4.7016  -20.7971  -41.0372 O.2       7 UNK        -0.5000 
     37 CA          2.9717  -20.2544  -39.4654 C.3       7 UNK         0.1400 
     38 CB          3.6182  -19.9997  -38.0954 C.3       7 UNK        -0.1800 
     39 N           1.7231  -19.4952  -39.5536 N.am      7 UNK        -0.5000 
     40 C           0.8032  -19.6579  -40.5145 C.2       6 UNK         0.5000 
     41 O           0.8637  -20.5412  -41.3683 O.2       6 UNK        -0.5000 
     42 CA         -0.3755  -18.6642  -40.5434 C.3       6 UNK         0.1400 
     43 CB         -1.6254  -19.3024  -39.9185 C.3       6 UNK        -0.1800 
     44 N          -0.1321  -17.3742  -39.8864 N.am      6 UNK        -0.5000 
     45 C           0.8416  -16.4979  -40.1656 C.2       5 UNK         0.5000 
     46 O           1.7360  -16.7091  -40.9860 O.2       5 UNK        -0.5000 
     47 CA          0.7852  -15.1601  -39.4030 C.3       5 UNK         0.1400 
     48 CB          2.0892  -14.3556  -39.5216 C.3       5 UNK        -0.1800 
     49 N          -0.3270  -14.3418  -39.8840 N.am      5 UNK        -0.5000 
     50 C          -1.6107  -14.5245  -39.5442 C.2       4 UNK         0.5000 
     51 O          -1.9793  -15.3688  -38.7254 O.2       4 UNK        -0.5000 
     52 CA         -2.6651  -13.6373  -40.2334 C.3       4 UNK         0.1400 
     53 CB         -3.0716  -12.4757  -39.3138 C.3       4 UNK        -0.1800 
     54 N          -2.2419  -13.0921  -41.5247 N.am      4 UNK        -0.5000 
     55 C          -2.0058  -13.8071  -42.6333 C.2       3 UNK         0.5000 
     56 O          -2.0877  -15.0343  -42.6862 O.2       3 UNK        -0.5000 
     57 CA         -1.6273  -13.0232  -43.9066 C.3       3 UNK         0.1400 
     58 CB         -2.0397  -11.5341  -43.8711 C.3       3 UNK        -0.1800 
     59 N          -0.2075  -13.1467  -44.2461 N.am      3 UNK        -0.5000 
     60 C           0.8525  -12.8158  -43.4935 C.2       2 UNK         0.5000 
     61 O           0.7617  -12.4138  -42.3319 O.2       2 UNK        -0.5000 
     62 CA          2.2531  -12.9539  -44.1392 C.3       2 UNK         0.1400 
     63 CB          3.2472  -13.6379  -43.1870 C.3       2 UNK        -0.1800 
     64 N           2.2706  -13.6814  -45.4137 N.am      2 UNK        -0.5000 
     65 C           1.9301  -13.1832  -46.6090 C.2       1 UNK         0.5000 
     66 O           1.4842  -12.0457  -46.7750 O.2       1 UNK        -0.5000 
     67 C          -1.1359  -21.0907  -48.2868 C.2       11 UNK         0.5000 
     68 O          -2.0933  -21.7528  -48.6894 O.2       11 UNK        -0.5000 
     69 N          -1.2562  -19.8608  -47.7637 N.am      12 UNK        -0.5000 
     70 CA         -2.5265  -19.1514  -47.6010 C.3       12 UNK         0.1400 
     71 CB         -2.2646  -17.6893  -47.2150 C.3       12 UNK        -0.1800 
     72 C          -3.4434  -19.8340  -46.5733 C.2       12 UNK         0.5000 
     73 O          -4.6336  -19.9991  -46.8426 O.2       12 UNK        -0.5000 
     74 N          -2.8559  -20.2700  -45.4494 N.am      13 UNK        -0.5000 
     75 CA         -3.5156  -21.0044  -44.3666 C.3       13 UNK         0.1400 
     76 CB         -2.5239  -21.1894  -43.2092 C.3       13 UNK        -0.1800 
     77 C          -4.1020  -22.3628  -44.8009 C.2       13 UNK         0.5000 
     78 O          -5.0824  -22.8142  -44.2094 O.2       13 UNK        -0.5000 
     79 N          -3.5375  -22.9608  -45.8585 N.am      14 UNK        -0.5000 
     80 CA         -4.0320  -24.1646  -46.5296 C.3       14 UNK         0.1400 
     81 CB         -2.8358  -24.9044  -47.1555 C.3       14 UNK        -0.1800 
     82 C          -5.1331  -23.8584  -47.5722 C.2       14 UNK         0.5000 
     83 O          -5.2854  -24.6147  -48.5322 O.2       14 UNK        -0.5000 
     84 N          -5.8658  -22.7487  -47.3900 N.am      15 UNK        -0.5000 
     85 CA         -6.9199  -22.2155  -48.2599 C.3       15 UNK         0.1400 
     86 CB         -8.1417  -23.1580  -48.2845 C.3       15 UNK        -0.1800 
     87 C          -6.3850  -21.8807  -49.6650 C.2       15 UNK         0.5000 
     88 O          -6.9719  -22.2904  -50.6675 O.2       15 UNK        -0.5000 
     89 N          -5.2394  -21.1837  -49.6989 N.am      16 UNK        -0.5000 
     90 CA         -4.4385  -20.8725  -50.8895 C.3       16 UNK         0.1400 
     91 CB         -5.1692  -19.8620  -51.7974 C.3       16 UNK        -0.1800 
     92 C          -3.9982  -22.1507  -51.6361 C.2       16 UNK         0.5000 
     93 O          -4.1424  -22.2346  -52.8561 O.2       16 UNK        -0.5000 
     94 N          -3.5095  -23.1330  -50.8638 N.am      17 UNK        -0.5000 
     95 CA         -3.1600  -24.5016  -51.2621 C.3       17 UNK         0.1400 
     96 CB         -1.8459  -24.5134  -52.0655 C.3       17 UNK        -0.1800 
     97 C          -4.3216  -25.2267  -51.9747 C.2       17 UNK         0.5000 
     98 O          -4.1399  -25.7770  -53.0616 O.2       17 UNK        -0.5000 
     99 N          -5.5033  -25.1816  -51.3430 N.am      18 UNK        -0.5000 
    100 CA        -6.7963  -25.6628  -51.8387 C.3       18 UNK         0.1400 
    101 CB        -6.8127  -27.2036  -51.9169 C.3       18 UNK        -0.1800 
    102 C         -7.2086  -24.9767  -53.1596 C.2       18 UNK         0.5000 
    103 O         -7.5540  -25.6515  -54.1318 O.2       18 UNK        -0.5000 
    104 N         -7.1556  -23.6369  -53.1530 N.am      19 UNK        -0.5000 
    105 CA        -7.4703  -22.7197  -54.2515 C.3       19 UNK         0.1400 
    106 CB        -8.9836  -22.7358  -54.5514 C.3       19 UNK        -0.1800 
    107 C         -6.5986  -22.9479  -55.5052 C.2       19 UNK         0.5000 
    108 O         -7.1197  -23.0251  -56.6199 O.2       19 UNK        -0.5000 
    109 N         -5.2780  -23.0453  -55.3012 N.am      20 UNK        -0.5000 
    110 CA        -4.2843  -23.2040  -56.3655 C.3       20 UNK         0.1400 
    111 CB        -2.9559  -23.6780  -55.7582 C.3       20 UNK        -0.1800 
    112 C         -4.0559  -21.9116  -57.1695 C.2       20 UNK         0.5000 
    113 O         -3.6580  -21.9911  -58.3326 O.2       20 UNK        -0.5000 
    114 N         -4.2834  -20.7515  -56.5307 N.am      21 UNK        -0.5000 
    115 CA        -4.1690  -19.3944  -57.0860 C.3       21 UNK         0.1400 
    116 CB        -5.3270  -19.1278  -58.0696 C.3       21 UNK        -0.1800 
    117 C         -2.7809  -19.0960  -57.6983 C.2       21 UNK         0.5000 
    118 O         -2.6867  -18.4444  -58.7401 O.2       21 UNK        -0.5000 
    119 N         -1.7346  -19.6148  -57.0419 N.am      22 UNK        -0.5000 
    120 CA        -0.3226  -19.5878  -57.4665 C.3       22 UNK         0.1400 
    121 C          0.0096  -20.5003  -58.6885 C.2       22 UNK         0.5000 
    122 N         -0.8911  -21.3545  -59.1611 N.am      22 UNK        -0.7600 
    123 O          1.1240  -20.4609  -59.2032 O.2       22 UNK        -0.5000 
    124 C124        0.2671  -18.1556  -57.6346 C.3       23 UNK        -0.0398 
    125 S125       -0.0189  -17.0624  -56.2007 S.3       23 UNK        -0.2404 
    126 C126        1.3330  -17.5496  -55.0840 C.3       23 UNK        -0.0205 
    127 H127        2.6054  -12.1308  -51.2239 H         1 UNK         0.0600 
    128 H128        4.3345  -12.4774  -51.3092 H         1 UNK         0.0600 
    129 H129        3.7654  -11.0130  -50.5005 H         1 UNK         0.0600 
    130 H130        1.5485  -13.3300  -49.6762 H         1 UNK         0.3000 
    131 H131        2.9395  -14.7848  -47.6039 H         1 UNK         0.0600 
    132 H132        0.5565  -15.4791  -46.9525 H         1 UNK         0.0800 
    133 H133       -0.0441  -14.4904  -48.2553 H         1 UNK         0.0800 
    134 H134       -1.0286  -16.0617  -50.0505 H         1 UNK         0.0800 
    135 H135        0.2331  -15.1249  -50.8236 H         1 UNK         0.0800 
    136 H136        0.9718  -15.8756  -52.9653 H         1 UNK         0.1150 
    137 H137        0.5142  -19.9745  -54.1422 H         1 UNK         0.1150 
    138 H138       -0.7548  -18.7013  -50.2512 H         1 UNK         0.1150 
    139 H139       -1.3900  -20.9195  -51.1259 H         1 UNK         0.0800 
    140 H140       -0.9149  -21.4243  -52.7189 H         1 UNK         0.0800 
    141 H141        1.0547  -20.0287  -49.5604 H         1 UNK         0.0800 
    142 H142        2.1848  -21.3025  -49.2959 H         1 UNK         0.0800 
    143 H143        0.1825  -22.7659  -48.4811 H         1 UNK         0.0600 
    144 H144        1.7366  -20.8577  -47.0167 H         1 UNK         0.3000 
    145 H145        0.7041  -21.8205  -43.7785 H         1 UNK         0.0600 
    146 H146        2.3162  -23.6298  -44.3944 H         1 UNK         0.0600 
    147 H147        3.3312  -22.4530  -45.2219 H         1 UNK         0.0600 
    148 H148        3.0960  -22.3507  -43.4764 H         1 UNK         0.0600 
    149 H149        2.7903  -20.0999  -44.5260 H         1 UNK         0.3000 
    150 H150        2.1216  -17.5795  -45.4195 H         1 UNK         0.0600 
    151 H151        1.0634  -15.7725  -44.0122 H         1 UNK         0.0600 
    152 H152        0.0045  -16.9662  -43.2889 H         1 UNK         0.0600 
    153 H153       -0.1120  -16.6158  -45.0031 H         1 UNK         0.0600 
    154 H154        2.3052  -17.4364  -42.5146 H         1 UNK         0.3000 
    155 H155        5.6131  -18.7955  -42.3360 H         1 UNK         0.0600 
    156 H156        4.3569  -16.0750  -41.6949 H         1 UNK         0.0600 
    157 H157        5.7216  -16.3234  -42.7793 H         1 UNK         0.0600 
    158 H158        5.8756  -16.7066  -41.0713 H         1 UNK         0.0600 
    159 H159        3.2582  -18.0126  -40.6851 H         1 UNK         0.3000 
    160 H160        2.7316  -21.3173  -39.5388 H         1 UNK         0.0600 
    161 H161        4.5418  -20.5701  -37.9879 H         1 UNK         0.0600 
    162 H162        2.9553  -20.3011  -37.2841 H         1 UNK         0.0600 
    163 H163        3.8647  -18.9464  -37.9553 H         1 UNK         0.0600 
    164 H164        1.5869  -18.7564  -38.8801 H         1 UNK         0.3000 
    165 H165       -0.5900  -18.4604  -41.5935 H         1 UNK         0.0600 
    166 H166       -2.5032  -18.6722  -40.0629 H         1 UNK         0.0600 
    167 H167       -1.8438  -20.2703  -40.3713 H         1 UNK         0.0600 
    168 H168       -1.4994  -19.4642  -38.8473 H         1 UNK         0.0600 
    169 H169       -0.8440  -17.0691  -39.2321 H         1 UNK         0.3000 
    170 H170        0.6358  -15.3875  -38.3454 H         1 UNK         0.0600 
    171 H171        2.0530  -13.4542  -38.9098 H         1 UNK         0.0600 
    172 H172        2.9462  -14.9427  -39.1889 H         1 UNK         0.0600 
    173 H173        2.2763  -14.0524  -40.5494 H         1 UNK         0.0600 
    174 H174       -0.1086  -13.6540  -40.5950 H         1 UNK         0.3000 
    175 H175       -3.5458  -14.2590  -40.4074 H         1 UNK         0.0600 
    176 H176       -2.2347  -11.8027  -39.1228 H         1 UNK         0.0600 
    177 H177       -3.8815  -11.8907  -39.7502 H         1 UNK         0.0600 
    178 H178       -3.4231  -12.8445  -38.3492 H         1 UNK         0.0600 
    179 H179       -2.1170  -12.0913  -41.5707 H         1 UNK         0.3000 
    180 H180       -2.1794  -13.4923  -44.7224 H         1 UNK         0.0600 
    181 H181       -1.8657  -11.0624  -44.8383 H         1 UNK         0.0600 
    182 H182       -1.4823  -10.9651  -43.1264 H         1 UNK         0.0600 
    183 H183       -3.1021  -11.4246  -43.6492 H         1 UNK         0.0600 
    184 H184       -0.0158  -13.4765  -45.1791 H         1 UNK         0.3000 
    185 H185        2.6136  -11.9398  -44.3229 H         1 UNK         0.0600 
    186 H186        2.8899  -14.6188  -42.8726 H         1 UNK         0.0600 
    187 H187        4.2229  -13.7692  -43.6552 H         1 UNK         0.0600 
    188 H188        3.4052  -13.0364  -42.2916 H         1 UNK         0.0600 
    189 H189        2.6256  -14.6251  -45.3673 H         1 UNK         0.3000 
    190 H190       -0.4381  -19.4090  -47.3831 H         1 UNK         0.3000 
    191 H191       -3.0401  -19.1542  -48.5636 H         1 UNK         0.0600 
    192 H192       -1.7790  -17.6101  -46.2435 H         1 UNK         0.0600 
    193 H193       -3.1988  -17.1294  -47.1582 H         1 UNK         0.0600 
    194 H194       -1.6333  -17.1925  -47.9499 H         1 UNK         0.0600 
    195 H195       -1.8739  -20.0447  -45.3030 H         1 UNK         0.3000 
    196 H196       -4.3440  -20.3884  -44.0116 H         1 UNK         0.0600 
    197 H197       -3.0041  -21.6655  -42.3536 H         1 UNK         0.0600 
    198 H198       -2.1287  -20.2314  -42.8714 H         1 UNK         0.0600 
    199 H199       -1.6800  -21.8140  -43.5018 H         1 UNK         0.0600 
    200 H200       -2.7253  -22.5241  -46.2747 H         1 UNK         0.3000 
    201 H201       -4.4784  -24.8269  -45.7855 H         1 UNK         0.0600 
    202 H202       -2.0799  -25.1339  -46.4043 H         1 UNK         0.0600 
    203 H203       -2.3583  -24.3119  -47.9359 H         1 UNK         0.0600 
    204 H204       -3.1436  -25.8510  -47.6011 H         1 UNK         0.0600 
    205 H205       -5.6306  -22.1653  -46.5986 H         1 UNK         0.3000 
    206 H206       -7.2386  -21.2703  -47.8183 H         1 UNK         0.0600 
    207 H207       -8.9659  -22.7120  -48.8422 H         1 UNK         0.0600 
    208 H208       -7.9111  -24.1144  -48.7547 H         1 UNK         0.0600 
    209 H209       -8.5037  -23.3592  -47.2764 H         1 UNK         0.0600 
    210 H210       -4.8402  -20.9100  -48.8088 H         1 UNK         0.3000 
    211 H211       -3.5305  -20.3875  -50.5355 H         1 UNK         0.0600 
    212 H212       -6.0816  -20.2800  -52.2222 H         1 UNK         0.0600 
    213 H213       -4.5330  -19.5535  -52.6279 H         1 UNK         0.0600 
    214 H214       -5.4394  -18.9622  -51.2451 H         1 UNK         0.0600 
    215 H215       -3.3804  -22.9198  -49.8815 H         1 UNK         0.3000 
    216 H216       -2.9824  -25.0564  -50.3400 H         1 UNK         0.0600 
    217 H217       -1.5756  -25.5258  -52.3676 H         1 UNK         0.0600 
    218 H218       -1.0236  -24.1308  -51.4637 H         1 UNK         0.0600 
    219 H219       -1.9143  -23.9068  -52.9672 H         1 UNK         0.0600 
    220 H220       -5.5238  -24.7482  -50.4228 H         1 UNK         0.3000 
    221 H221       -7.5366  -25.3641  -51.0950 H         1 UNK         0.0600 
    222 H222       -6.1182  -27.5809  -52.6679 H         1 UNK         0.0600 
    223 H223       -6.5449  -27.6486  -50.9586 H         1 UNK         0.0600 
    224 H224       -7.8064  -27.5693  -52.1780 H         1 UNK         0.0600 
    225 H225       -6.8912  -23.1833  -52.2801 H         1 UNK         0.3000 
    226 H226       -7.2213  -21.7214  -53.8900 H         1 UNK         0.0600 
    227 H227       -9.5646  -22.5305  -53.6522 H         1 UNK         0.0600 
    228 H228       -9.2445  -21.9732  -55.2861 H         1 UNK         0.0600 
    229 H229       -9.3087  -23.6978  -54.9486 H         1 UNK         0.0600 
    230 H230       -4.9156  -22.9403  -54.3546 H         1 UNK         0.3000 
    231 H231       -4.6371  -23.9712  -57.0577 H         1 UNK         0.0600 
    232 H232       -2.5536  -22.9478  -55.0555 H         1 UNK         0.0600 
    233 H233       -3.0781  -24.6232  -55.2305 H         1 UNK         0.0600 
    234 H234       -2.2047  -23.8354  -56.5333 H         1 UNK         0.0600 
    235 H235       -4.5767  -20.8088  -55.5656 H         1 UNK         0.3000 
    236 H236       -4.2831  -18.7064  -56.2472 H         1 UNK         0.0600 
    237 H237       -5.2518  -19.7532  -58.9598 H         1 UNK         0.0600 
    238 H238       -6.2926  -19.3242  -57.6036 H         1 UNK         0.0600 
    239 H239       -5.3321  -18.0878  -58.3982 H         1 UNK         0.0600 
    240 H240       -1.9244  -20.1422  -56.2029 H         1 UNK         0.3000 
    241 H241        0.2180  -20.0513  -56.6413 H         1 UNK         0.0600 
    242 H242       -0.6452  -21.9398  -59.9434 H         1 UNK         0.3800 
    243 H243       -1.8272  -21.4147  -58.7736 H         1 UNK         0.3800 
    244 H244        1.3412  -18.2000  -57.8218 H         1 UNK         0.0800 
    245 H245       -0.1624  -17.6723  -58.5130 H         1 UNK         0.0800 
    246 H246        1.8780  -18.4064  -55.4827 H         1 UNK         0.0800 
    247 H247        2.0544  -16.7339  -55.0167 H         1 UNK         0.0800 
@<TRIPOS>BOND
     1    1    2 1    
     2    1  127 1    
     3    1  128 1    
     4    1  129 1    
     5    2    3 2    
     6    2    4 am   BACKBONE|DICT|INTERRES
     7    4    5 1    
     8    4  130 1    
     9    5    6 1    
    10    5   65 1    
    11    5  131 1    
    12    6    7 1    
    13    6  132 1    
    14    6  133 1    
    15    7    8 1    
    16    8    9 1    
    17    8  134 1    
    18    8  135 1    
    19    9   10 ar   
    20    9   14 ar   
    21   10   11 ar   
    22   10  136 1    
    23   11   12 ar   
    24   11  126 1    
    25   12   13 ar   
    26   12  137 1    
    27   13   14 ar   
    28   13   15 1    
    29   14  138 1    
    30   15   16 1    
    31   15  139 1    
    32   15  140 1    
    33   16   17 1    
    34   17   18 1    
    35   17  141 1    
    36   17  142 1    
    37   18   19 1    
    38   18   67 1    
    39   18  143 1    
    40   19   20 am   BACKBONE|DICT|INTERRES
    41   19  144 1    
    42   20   21 2    
    43   20   22 1    
    44   22   23 1    
    45   22   24 1    
    46   22  145 1    
    47   23  146 1    
    48   23  147 1    
    49   23  148 1    
    50   24   25 am   BACKBONE|DICT|INTERRES
    51   24  149 1    
    52   25   26 2    
    53   25   27 1    
    54   27   28 1    
    55   27   29 1    
    56   27  150 1    
    57   28  151 1    
    58   28  152 1    
    59   28  153 1    
    60   29   30 am   BACKBONE|DICT|INTERRES
    61   29  154 1    
    62   30   31 2    
    63   30   32 1    
    64   32   33 1    
    65   32   34 1    
    66   32  155 1    
    67   33  156 1    
    68   33  157 1    
    69   33  158 1    
    70   34   35 am   BACKBONE|DICT|INTERRES
    71   34  159 1    
    72   35   36 2    
    73   35   37 1    
    74   37   38 1    
    75   37   39 1    
    76   37  160 1    
    77   38  161 1    
    78   38  162 1    
    79   38  163 1    
    80   39   40 am   BACKBONE|DICT|INTERRES
    81   39  164 1    
    82   40   41 2    
    83   40   42 1    
    84   42   43 1    
    85   42   44 1    
    86   42  165 1    
    87   43  166 1    
    88   43  167 1    
    89   43  168 1    
    90   44   45 am   BACKBONE|DICT|INTERRES
    91   44  169 1    
    92   45   46 2    
    93   45   47 1    
    94   47   48 1    
    95   47   49 1    
    96   47  170 1    
    97   48  171 1    
    98   48  172 1    
    99   48  173 1    
   100   49   50 am   BACKBONE|DICT|INTERRES
   101   49  174 1    
   102   50   51 2    
   103   50   52 1    
   104   52   53 1    
   105   52   54 1    
   106   52  175 1    
   107   53  176 1    
   108   53  177 1    
   109   53  178 1    
   110   54   55 am   BACKBONE|DICT|INTERRES
   111   54  179 1    
   112   55   56 2    
   113   55   57 1    
   114   57   58 1    
   115   57   59 1    
   116   57  180 1    
   117   58  181 1    
   118   58  182 1    
   119   58  183 1    
   120   59   60 am   BACKBONE|DICT|INTERRES
   121   59  184 1    
   122   60   61 2    
   123   60   62 1    
   124   62   63 1    
   125   62   64 1    
   126   62  185 1    
   127   63  186 1    
   128   63  187 1    
   129   63  188 1    
   130   64   65 am   BACKBONE|DICT|INTERRES
   131   64  189 1    
   132   65   66 2    
   133   67   68 2    
   134   67   69 am   BACKBONE|DICT|INTERRES
   135   69   70 1    
   136   69  190 1    
   137   70   71 1    
   138   70   72 1    
   139   70  191 1    
   140   71  192 1    
   141   71  193 1    
   142   71  194 1    
   143   72   73 2    
   144   72   74 am   BACKBONE|DICT|INTERRES
   145   74   75 1    
   146   74  195 1    
   147   75   76 1    
   148   75   77 1    
   149   75  196 1    
   150   76  197 1    
   151   76  198 1    
   152   76  199 1    
   153   77   78 2    
   154   77   79 am   BACKBONE|DICT|INTERRES
   155   79   80 1    
   156   79  200 1    
   157   80   81 1    
   158   80   82 1    
   159   80  201 1    
   160   81  202 1    
   161   81  203 1    
   162   81  204 1    
   163   82   83 2    
   164   82   84 am   BACKBONE|DICT|INTERRES
   165   84   85 1    
   166   84  205 1    
   167   85   86 1    
   168   85   87 1    
   169   85  206 1    
   170   86  207 1    
   171   86  208 1    
   172   86  209 1    
   173   87   88 2    
   174   87   89 am   BACKBONE|DICT|INTERRES
   175   89   90 1    
   176   89  210 1    
   177   90   91 1    
   178   90   92 1    
   179   90  211 1    
   180   91  212 1    
   181   91  213 1    
   182   91  214 1    
   183   92   93 2    
   184   92   94 am   BACKBONE|DICT|INTERRES
   185   94   95 1    
   186   94  215 1    
   187   95   96 1    
   188   95   97 1    
   189   95  216 1    
   190   96  217 1    
   191   96  218 1    
   192   96  219 1    
   193   97   98 2    
   194   97   99 am   BACKBONE|DICT|INTERRES
   195   99  100 1    
   196   99  220 1    
   197  100  101 1    
   198  100  102 1    
   199  100  221 1    
   200  101  222 1    
   201  101  223 1    
   202  101  224 1    
   203  102  103 2    
   204  102  104 am   BACKBONE|DICT|INTERRES
   205  104  105 1    
   206  104  225 1    
   207  105  106 1    
   208  105  107 1    
   209  105  226 1    
   210  106  227 1    
   211  106  228 1    
   212  106  229 1    
   213  107  108 2    
   214  107  109 am   BACKBONE|DICT|INTERRES
   215  109  110 1    
   216  109  230 1    
   217  110  111 1    
   218  110  112 1    
   219  110  231 1    
   220  111  232 1    
   221  111  233 1    
   222  111  234 1    
   223  112  113 2    
   224  112  114 am   BACKBONE|DICT|INTERRES
   225  114  115 1    
   226  114  235 1    
   227  115  116 1    
   228  115  117 1    
   229  115  236 1    
   230  116  237 1    
   231  116  238 1    
   232  116  239 1    
   233  117  118 2    
   234  117  119 am   BACKBONE|DICT|INTERRES
   235  119  120 1    
   236  119  240 1    
   237  120  121 1    
   238  120  124 1    
   239  120  241 1    
   240  121  122 am   BACKBONE|DICT|INTERRES
   241  121  123 2    
   242  122  242 1    
   243  122  243 1    
   244  124  125 1    
   245  124  244 1    
   246  124  245 1    
   247  125  126 1    
   248  126  246 1    
   249  126  247 1    
@<TRIPOS>SUBSTRUCTURE
     1 UNK         1 GROUP             0       ****    0 ROOT    
