@<TRIPOS>MOLECULE
3R540
247   249    1
SMALL
USER_CHARGES


@<TRIPOS>ATOM
      1 CA         -3.4754  -12.4458  -43.8242 C.3       0 UNK        -0.1800 
      2 C          -3.0430  -11.9581  -45.1993 C.2       0 UNK         0.5000 
      3 O          -3.7070  -11.1049  -45.7885 O.2       0 UNK        -0.5000 
      4 N          -1.9342  -12.4970  -45.7101 N.am      1 UNK        -0.5000 
      5 CA         -1.3462  -12.1821  -47.0095 C.3       1 UNK         0.1400 
      6 C6         -2.1497  -12.7782  -48.2000 C.3       23 UNK        -0.0398 
      7 S7         -2.1961  -14.6068  -48.2693 S.3       23 UNK        -0.2404 
      8 C8         -1.2838  -14.8966  -49.8156 C.3       23 UNK        -0.0205 
      9 C9         -1.1358  -16.3788  -50.1162 C.ar      23 UNK        -0.0193 
     10 C10        -2.1576  -17.0644  -50.7810 C.ar      23 UNK        -0.1150 
     11 C11        -2.0218  -18.4226  -51.0823 C.ar      23 UNK        -0.0193 
     12 C12        -0.8418  -19.0844  -50.7380 C.ar      23 UNK        -0.1150 
     13 C13         0.1832  -18.4155  -50.0630 C.ar      23 UNK        -0.0193 
     14 C14         0.0296  -17.0615  -49.7518 C.ar      23 UNK        -0.1150 
     15 C15         1.4544  -19.1620  -49.6778 C.3       23 UNK        -0.0205 
     16 S16         1.4963  -19.6192  -47.9120 S.3       23 UNK        -0.2404 
     17 C17        -0.1067  -20.4585  -47.6862 C.3       23 UNK        -0.0398 
     18 CA         -0.0466  -21.7422  -46.8276 C.3       11 UNK         0.1400 
     19 N           0.4133  -21.5126  -45.4526 N.am      11 UNK        -0.5000 
     20 C           0.6466  -22.4853  -44.5571 C.2       10 UNK         0.5000 
     21 O           0.5724  -23.6856  -44.8207 O.2       10 UNK        -0.5000 
     22 CA          0.9593  -22.0544  -43.1122 C.3       10 UNK         0.1400 
     23 CB          2.4451  -21.7045  -42.9379 C.3       10 UNK        -0.1800 
     24 N           0.1211  -20.9349  -42.6817 N.am      10 UNK        -0.5000 
     25 C          -1.1952  -21.0335  -42.4441 C.2       9 UNK         0.5000 
     26 O          -1.8155  -22.0965  -42.4807 O.2       9 UNK        -0.5000 
     27 CA         -1.9570  -19.7280  -42.1442 C.3       9 UNK         0.1400 
     28 CB         -1.9203  -19.4142  -40.6414 C.3       9 UNK        -0.1800 
     29 N          -1.4527  -18.5786  -42.8976 N.am      9 UNK        -0.5000 
     30 C          -1.4926  -18.4644  -44.2328 C.2       8 UNK         0.5000 
     31 O          -2.0100  -19.3014  -44.9709 O.2       8 UNK        -0.5000 
     32 CA         -0.7821  -17.2449  -44.8514 C.3       8 UNK         0.1400 
     33 CB         -1.6824  -16.0048  -44.7989 C.3       8 UNK        -0.1800 
     34 N           0.5021  -16.9504  -44.2106 N.am      8 UNK        -0.5000 
     35 C           1.5354  -17.8040  -44.1671 C.2       7 UNK         0.5000 
     36 O           1.5235  -18.9159  -44.6901 O.2       7 UNK        -0.5000 
     37 CA          2.7538  -17.3804  -43.3334 C.3       7 UNK         0.1400 
     38 CB          3.6514  -16.4016  -44.1081 C.3       7 UNK        -0.1800 
     39 N           2.3352  -16.7926  -42.0611 N.am      7 UNK        -0.5000 
     40 C           1.8399  -17.5033  -41.0364 C.2       6 UNK         0.5000 
     41 O           1.7504  -18.7310  -41.0404 O.2       6 UNK        -0.5000 
     42 CA          1.3300  -16.7130  -39.8149 C.3       6 UNK         0.1400 
     43 CB          2.4740  -16.4614  -38.8215 C.3       6 UNK        -0.1800 
     44 N           0.7183  -15.4336  -40.1765 N.am      6 UNK        -0.5000 
     45 C          -0.4193  -15.3023  -40.8736 C.2       5 UNK         0.5000 
     46 O          -1.1146  -16.2529  -41.2269 O.2       5 UNK        -0.5000 
     47 CA         -0.8132  -13.8743  -41.3030 C.3       5 UNK         0.1400 
     48 CB         -1.7393  -13.2295  -40.2621 C.3       5 UNK        -0.1800 
     49 N           0.3373  -12.9970  -41.5447 N.am      5 UNK        -0.5000 
     50 C           1.2907  -13.2365  -42.4543 C.2       4 UNK         0.5000 
     51 O           1.2841  -14.2171  -43.2018 O.2       4 UNK        -0.5000 
     52 CA          2.4900  -12.2816  -42.4565 C.3       4 UNK         0.1400 
     53 CB          3.3963  -12.6000  -41.2468 C.3       4 UNK        -0.1800 
     54 N           3.2259  -12.4460  -43.7078 N.am      4 UNK        -0.5000 
     55 C           4.2693  -11.7088  -44.1075 C.2       3 UNK         0.5000 
     56 O           4.7020  -10.7384  -43.4840 O.2       3 UNK        -0.5000 
     57 CA          4.9604  -12.1223  -45.4203 C.3       3 UNK         0.1400 
     58 CB          6.0304  -13.1915  -45.1492 C.3       3 UNK        -0.1800 
     59 N           4.0398  -12.6171  -46.4437 N.am      3 UNK        -0.5000 
     60 C           3.1548  -11.8580  -47.1026 C.2       2 UNK         0.5000 
     61 O           2.9998  -10.6532  -46.8912 O.2       2 UNK        -0.5000 
     62 CA          2.3146  -12.5351  -48.2079 C.3       2 UNK         0.1400 
     63 CB          2.5792  -14.0502  -48.3797 C.3       2 UNK        -0.1800 
     64 N           0.8828  -12.2657  -48.0392 N.am      2 UNK        -0.5000 
     65 C           0.1336  -12.6132  -46.9834 C.2       1 UNK         0.5000 
     66 O           0.5664  -13.2450  -46.0163 O.2       1 UNK        -0.5000 
     67 C          -1.4279  -22.4262  -46.8597 C.2       11 UNK         0.5000 
     68 O          -1.6169  -23.3673  -47.6288 O.2       11 UNK        -0.5000 
     69 N          -2.3590  -21.9612  -46.0136 N.am      12 UNK        -0.5000 
     70 CA         -3.7508  -22.4171  -45.9232 C.3       12 UNK         0.1400 
     71 CB         -4.5060  -21.5373  -44.9155 C.3       12 UNK        -0.1800 
     72 C          -3.9396  -23.9101  -45.5843 C.2       12 UNK         0.5000 
     73 O          -5.0256  -24.4405  -45.8184 O.2       12 UNK        -0.5000 
     74 N          -2.8915  -24.5733  -45.0755 N.am      13 UNK        -0.5000 
     75 CA         -2.8448  -26.0247  -44.8881 C.3       13 UNK         0.1400 
     76 CB         -1.6056  -26.3842  -44.0552 C.3       13 UNK        -0.1800 
     77 C          -2.8462  -26.8021  -46.2224 C.2       13 UNK         0.5000 
     78 O          -3.3595  -27.9208  -46.2672 O.2       13 UNK        -0.5000 
     79 N          -2.2874  -26.1938  -47.2773 N.am      14 UNK        -0.5000 
     80 CA         -2.2748  -26.7085  -48.6472 C.3       14 UNK         0.1400 
     81 CB         -0.8360  -26.6433  -49.1814 C.3       14 UNK        -0.1800 
     82 C          -3.2479  -25.9294  -49.5537 C.2       14 UNK         0.5000 
     83 O          -3.8002  -26.5143  -50.4866 O.2       14 UNK        -0.5000 
     84 N          -3.4593  -24.6384  -49.2543 N.am      15 UNK        -0.5000 
     85 CA         -4.3983  -23.7059  -49.8817 C.3       15 UNK         0.1400 
     86 CB         -5.8502  -24.0662  -49.4995 C.3       15 UNK        -0.1800 
     87 C          -4.1595  -23.5889  -51.3971 C.2       15 UNK         0.5000 
     88 O          -3.1484  -23.0147  -51.7996 O.2       15 UNK        -0.5000 
     89 N          -5.0606  -24.1532  -52.2120 N.am      16 UNK        -0.5000 
     90 CA         -4.9755  -24.1833  -53.6750 C.3       16 UNK         0.1400 
     91 CB         -6.2331  -24.8651  -54.2332 C.3       16 UNK        -0.1800 
     92 C          -3.7054  -24.8742  -54.2138 C.2       16 UNK         0.5000 
     93 O          -3.2566  -24.5426  -55.3113 O.2       16 UNK        -0.5000 
     94 N          -3.1381  -25.8035  -53.4303 N.am      17 UNK        -0.5000 
     95 CA         -1.8690  -26.4646  -53.7287 C.3       17 UNK         0.1400 
     96 CB         -1.8429  -27.8433  -53.0508 C.3       17 UNK        -0.1800 
     97 C          -0.6388  -25.6202  -53.3352 C.2       17 UNK         0.5000 
     98 O           0.4520  -25.9063  -53.8305 O.2       17 UNK        -0.5000 
     99 N          -0.8121  -24.6000  -52.4782 N.am      18 UNK        -0.5000 
    100 CA         0.2328  -23.6241  -52.1576 C.3       18 UNK         0.1400 
    101 CB        -0.0114  -22.9904  -50.7777 C.3       18 UNK        -0.1800 
    102 C          0.3238  -22.5509  -53.2547 C.2       18 UNK         0.5000 
    103 O          1.4259  -22.2549  -53.7180 O.2       18 UNK        -0.5000 
    104 N         -0.8318  -22.0270  -53.6843 N.am      19 UNK        -0.5000 
    105 CA        -0.9671  -21.1438  -54.8387 C.3       19 UNK         0.1400 
    106 CB        -0.4933  -19.7163  -54.5078 C.3       19 UNK        -0.1800 
    107 C         -2.4282  -21.1429  -55.3019 C.2       19 UNK         0.5000 
    108 O         -3.3357  -21.1600  -54.4688 O.2       19 UNK        -0.5000 
    109 N         -2.6318  -21.0732  -56.6231 N.am      20 UNK        -0.5000 
    110 CA        -3.9395  -21.1389  -57.2874 C.3       20 UNK         0.1400 
    111 CB        -3.7125  -21.2972  -58.7995 C.3       20 UNK        -0.1800 
    112 C         -4.8791  -19.9473  -57.0016 C.2       20 UNK         0.5000 
    113 O         -6.0620  -20.0199  -57.3361 O.2       20 UNK        -0.5000 
    114 N         -4.3494  -18.8775  -56.3918 N.am      21 UNK        -0.5000 
    115 CA        -5.1058  -17.7191  -55.9129 C.3       21 UNK         0.1400 
    116 CB        -4.1158  -16.6171  -55.5040 C.3       21 UNK        -0.1800 
    117 C         -6.0529  -18.0517  -54.7408 C.2       21 UNK         0.5000 
    118 O         -7.0578  -17.3620  -54.5626 O.2       21 UNK        -0.5000 
    119 N         -5.7187  -19.0923  -53.9685 N.am      22 UNK        -0.5000 
    120 CA        -6.5433  -19.6306  -52.8820 C.3       22 UNK         0.1400 
    121 C         -7.6430  -20.5698  -53.4452 C.2       22 UNK         0.5000 
    122 N         -8.8786  -20.4386  -52.9828 N.am      22 UNK        -0.7600 
    123 O         -7.3774  -21.4464  -54.2636 O.2       22 UNK        -0.5000 
    124 C124       -5.6711  -20.3803  -51.8477 C.3       23 UNK        -0.0398 
    125 S125       -4.6560  -19.2664  -50.8195 S.3       23 UNK        -0.2404 
    126 C126       -3.1297  -19.1742  -51.8043 C.3       23 UNK        -0.0205 
    127 H127       -4.5586  -12.3816  -43.7202 H         1 UNK         0.0600 
    128 H128       -3.0193  -11.8346  -43.0456 H         1 UNK         0.0600 
    129 H129       -3.1878  -13.4848  -43.6670 H         1 UNK         0.0600 
    130 H130       -1.3747  -13.1518  -45.1769 H         1 UNK         0.3000 
    131 H131       -1.3437  -11.0948  -47.1114 H         1 UNK         0.0600 
    132 H132       -3.1808  -12.4261  -48.1573 H         1 UNK         0.0800 
    133 H133       -1.7622  -12.3864  -49.1411 H         1 UNK         0.0800 
    134 H134       -1.8048  -14.4070  -50.6399 H         1 UNK         0.0800 
    135 H135       -0.3020  -14.4275  -49.7512 H         1 UNK         0.0800 
    136 H136       -3.0628  -16.5430  -51.0590 H         1 UNK         0.1150 
    137 H137       -0.7237  -20.1271  -50.9919 H         1 UNK         0.1150 
    138 H138        0.8190  -16.5418  -49.2280 H         1 UNK         0.1150 
    139 H139        1.5691  -20.0608  -50.2843 H         1 UNK         0.0800 
    140 H140        2.3213  -18.5379  -49.8991 H         1 UNK         0.0800 
    141 H141       -0.8071  -19.7350  -47.2675 H         1 UNK         0.0800 
    142 H142       -0.4965  -20.7211  -48.6688 H         1 UNK         0.0800 
    143 H143        0.6635  -22.4265  -47.2969 H         1 UNK         0.0600 
    144 H144        0.5697  -20.5463  -45.1783 H         1 UNK         0.3000 
    145 H145        0.7431  -22.9037  -42.4605 H         1 UNK         0.0600 
    146 H146        2.6635  -21.4132  -41.9103 H         1 UNK         0.0600 
    147 H147        3.0741  -22.5636  -43.1738 H         1 UNK         0.0600 
    148 H148        2.7544  -20.8883  -43.5891 H         1 UNK         0.0600 
    149 H149        0.5662  -20.0287  -42.6162 H         1 UNK         0.3000 
    150 H150       -2.9989  -19.8805  -42.4325 H         1 UNK         0.0600 
    151 H151       -2.3102  -20.2490  -40.0578 H         1 UNK         0.0600 
    152 H152       -2.5291  -18.5411  -40.4061 H         1 UNK         0.0600 
    153 H153       -0.9050  -19.2175  -40.2966 H         1 UNK         0.0600 
    154 H154       -1.0752  -17.8086  -42.3524 H         1 UNK         0.3000 
    155 H155       -0.5801  -17.4730  -45.9003 H         1 UNK         0.0600 
    156 H156       -1.1894  -15.1523  -45.2618 H         1 UNK         0.0600 
    157 H157       -1.9409  -15.7343  -43.7759 H         1 UNK         0.0600 
    158 H158       -2.6136  -16.1757  -45.3403 H         1 UNK         0.0600 
    159 H159        0.6101  -16.0367  -43.7821 H         1 UNK         0.3000 
    160 H160        3.3440  -18.2744  -43.1202 H         1 UNK         0.0600 
    161 H161        3.1083  -15.5185  -44.4423 H         1 UNK         0.0600 
    162 H162        4.0624  -16.8806  -44.9975 H         1 UNK         0.0600 
    163 H163        4.4923  -16.0701  -43.4989 H         1 UNK         0.0600 
    164 H164        2.2952  -15.7837  -42.0244 H         1 UNK         0.3000 
    165 H165        0.5724  -17.3225  -39.3177 H         1 UNK         0.0600 
    166 H166        3.2538  -15.8337  -39.2547 H         1 UNK         0.0600 
    167 H167        2.1111  -15.9714  -37.9178 H         1 UNK         0.0600 
    168 H168        2.9391  -17.3998  -38.5166 H         1 UNK         0.0600 
    169 H169        1.2229  -14.5986  -39.9201 H         1 UNK         0.3000 
    170 H170       -1.3610  -13.9593  -42.2417 H         1 UNK         0.0600 
    171 H171       -2.6199  -13.8491  -40.0871 H         1 UNK         0.0600 
    172 H172       -1.2363  -13.0948  -39.3038 H         1 UNK         0.0600 
    173 H173       -2.0920  -12.2540  -40.5973 H         1 UNK         0.0600 
    174 H174        0.4151  -12.1828  -40.9522 H         1 UNK         0.3000 
    175 H175        2.1224  -11.2558  -42.3929 H         1 UNK         0.0600 
    176 H176        4.2261  -11.8987  -41.1654 H         1 UNK         0.0600 
    177 H177        2.8444  -12.5384  -40.3083 H         1 UNK         0.0600 
    178 H178        3.8162  -13.6045  -41.3153 H         1 UNK         0.0600 
    179 H179        2.8743  -13.1909  -44.2981 H         1 UNK         0.3000 
    180 H180        5.4626  -11.2381  -45.8190 H         1 UNK         0.0600 
    181 H181        6.5913  -13.4274  -46.0536 H         1 UNK         0.0600 
    182 H182        6.7482  -12.8455  -44.4042 H         1 UNK         0.0600 
    183 H183        5.5906  -14.1165  -44.7752 H         1 UNK         0.0600 
    184 H184        4.0973  -13.5985  -46.6716 H         1 UNK         0.3000 
    185 H185        2.6080  -12.0494  -49.1396 H         1 UNK         0.0600 
    186 H186        2.0152  -14.4464  -49.2227 H         1 UNK         0.0600 
    187 H187        3.6308  -14.2483  -48.5903 H         1 UNK         0.0600 
    188 H188        2.3007  -14.6254  -47.4958 H         1 UNK         0.0600 
    189 H189        0.4644  -11.7038  -48.7667 H         1 UNK         0.3000 
    190 H190       -2.1262  -21.1450  -45.4531 H         1 UNK         0.3000 
    191 H191       -4.2005  -22.2610  -46.9055 H         1 UNK         0.0600 
    192 H192       -5.5575  -21.8211  -44.8565 H         1 UNK         0.0600 
    193 H193       -4.4721  -20.4866  -45.2036 H         1 UNK         0.0600 
    194 H194       -4.0864  -21.6261  -43.9137 H         1 UNK         0.0600 
    195 H195       -2.0381  -24.0617  -44.8967 H         1 UNK         0.3000 
    196 H196       -3.7326  -26.3234  -44.3268 H         1 UNK         0.0600 
    197 H197       -1.5737  -27.4541  -43.8457 H         1 UNK         0.0600 
    198 H198       -1.6084  -25.8643  -43.0969 H         1 UNK         0.0600 
    199 H199       -0.6829  -26.1244  -44.5752 H         1 UNK         0.0600 
    200 H200       -1.9122  -25.2596  -47.1516 H         1 UNK         0.3000 
    201 H201       -2.5919  -27.7532  -48.6677 H         1 UNK         0.0600 
    202 H202       -0.2102  -27.3924  -48.6963 H         1 UNK         0.0600 
    203 H203       -0.3834  -25.6718  -48.9930 H         1 UNK         0.0600 
    204 H204       -0.7896  -26.8273  -50.2539 H         1 UNK         0.0600 
    205 H205       -2.8543  -24.2190  -48.5517 H         1 UNK         0.3000 
    206 H206       -4.1816  -22.7206  -49.4661 H         1 UNK         0.0600 
    207 H207       -5.9878  -24.0175  -48.4194 H         1 UNK         0.0600 
    208 H208       -6.5606  -23.3674  -49.9431 H         1 UNK         0.0600 
    209 H209       -6.1255  -25.0723  -49.8174 H         1 UNK         0.0600 
    210 H210       -5.8432  -24.6374  -51.7975 H         1 UNK         0.3000 
    211 H211       -4.9654  -23.1508  -54.0272 H         1 UNK         0.0600 
    212 H212       -6.3160  -25.8981  -53.8931 H         1 UNK         0.0600 
    213 H213       -6.2186  -24.8767  -55.3238 H         1 UNK         0.0600 
    214 H214       -7.1361  -24.3353  -53.9290 H         1 UNK         0.0600 
    215 H215       -3.5630  -26.0184  -52.5342 H         1 UNK         0.3000 
    216 H216       -1.8054  -26.6320  -54.8061 H         1 UNK         0.0600 
    217 H217       -0.9017  -28.3593  -53.2448 H         1 UNK         0.0600 
    218 H218       -2.6438  -28.4791  -53.4285 H         1 UNK         0.0600 
    219 H219       -1.9611  -27.7705  -51.9713 H         1 UNK         0.0600 
    220 H220       -1.7483  -24.3669  -52.1665 H         1 UNK         0.3000 
    221 H221        1.1952  -24.1384  -52.1106 H         1 UNK         0.0600 
    222 H222       -0.9463  -22.4352  -50.7315 H         1 UNK         0.0600 
    223 H223       -0.0367  -23.7428  -49.9941 H         1 UNK         0.0600 
    224 H224        0.7914  -22.2981  -50.5253 H         1 UNK         0.0600 
    225 H225       -1.7078  -22.3116  -53.2545 H         1 UNK         0.3000 
    226 H226       -0.3523  -21.5430  -55.6483 H         1 UNK         0.0600 
    227 H227        0.5557  -19.6992  -54.2132 H         1 UNK         0.0600 
    228 H228       -0.5942  -19.0610  -55.3735 H         1 UNK         0.0600 
    229 H229       -1.0713  -19.2764  -53.6979 H         1 UNK         0.0600 
    230 H230       -1.8302  -21.0318  -57.2360 H         1 UNK         0.3000 
    231 H231       -4.4475  -22.0347  -56.9235 H         1 UNK         0.0600 
    232 H232       -4.6600  -21.3938  -59.3313 H         1 UNK         0.0600 
    233 H233       -3.1281  -22.1908  -59.0196 H         1 UNK         0.0600 
    234 H234       -3.1870  -20.4383  -59.2185 H         1 UNK         0.0600 
    235 H235       -3.3657  -18.9009  -56.1705 H         1 UNK         0.3000 
    236 H236       -5.7168  -17.3462  -56.7375 H         1 UNK         0.0600 
    237 H237       -3.4625  -16.9423  -54.6932 H         1 UNK         0.0600 
    238 H238       -3.4873  -16.3192  -56.3435 H         1 UNK         0.0600 
    239 H239       -4.6433  -15.7255  -55.1622 H         1 UNK         0.0600 
    240 H240       -4.9124  -19.6498  -54.2234 H         1 UNK         0.3000 
    241 H241       -7.0333  -18.7991  -52.3711 H         1 UNK         0.0600 
    242 H242       -9.5976  -21.0537  -53.3311 H         1 UNK         0.3800 
    243 H243       -9.1205  -19.7296  -52.3075 H         1 UNK         0.3800 
    244 H244       -5.0303  -21.1019  -52.3526 H         1 UNK         0.0800 
    245 H245       -6.2964  -20.9550  -51.1622 H         1 UNK         0.0800 
    246 H246       -2.8057  -20.1883  -52.0428 H         1 UNK         0.0800 
    247 H247       -3.3316  -18.6773  -52.7525 H         1 UNK         0.0800 
@<TRIPOS>BOND
     1    1    2 1    
     2    1  127 1    
     3    1  128 1    
     4    1  129 1    
     5    2    3 2    
     6    2    4 am   BACKBONE|DICT|INTERRES
     7    4    5 1    
     8    4  130 1    
     9    5    6 1    
    10    5   65 1    
    11    5  131 1    
    12    6    7 1    
    13    6  132 1    
    14    6  133 1    
    15    7    8 1    
    16    8    9 1    
    17    8  134 1    
    18    8  135 1    
    19    9   10 ar   
    20    9   14 ar   
    21   10   11 ar   
    22   10  136 1    
    23   11   12 ar   
    24   11  126 1    
    25   12   13 ar   
    26   12  137 1    
    27   13   14 ar   
    28   13   15 1    
    29   14  138 1    
    30   15   16 1    
    31   15  139 1    
    32   15  140 1    
    33   16   17 1    
    34   17   18 1    
    35   17  141 1    
    36   17  142 1    
    37   18   19 1    
    38   18   67 1    
    39   18  143 1    
    40   19   20 am   BACKBONE|DICT|INTERRES
    41   19  144 1    
    42   20   21 2    
    43   20   22 1    
    44   22   23 1    
    45   22   24 1    
    46   22  145 1    
    47   23  146 1    
    48   23  147 1    
    49   23  148 1    
    50   24   25 am   BACKBONE|DICT|INTERRES
    51   24  149 1    
    52   25   26 2    
    53   25   27 1    
    54   27   28 1    
    55   27   29 1    
    56   27  150 1    
    57   28  151 1    
    58   28  152 1    
    59   28  153 1    
    60   29   30 am   BACKBONE|DICT|INTERRES
    61   29  154 1    
    62   30   31 2    
    63   30   32 1    
    64   32   33 1    
    65   32   34 1    
    66   32  155 1    
    67   33  156 1    
    68   33  157 1    
    69   33  158 1    
    70   34   35 am   BACKBONE|DICT|INTERRES
    71   34  159 1    
    72   35   36 2    
    73   35   37 1    
    74   37   38 1    
    75   37   39 1    
    76   37  160 1    
    77   38  161 1    
    78   38  162 1    
    79   38  163 1    
    80   39   40 am   BACKBONE|DICT|INTERRES
    81   39  164 1    
    82   40   41 2    
    83   40   42 1    
    84   42   43 1    
    85   42   44 1    
    86   42  165 1    
    87   43  166 1    
    88   43  167 1    
    89   43  168 1    
    90   44   45 am   BACKBONE|DICT|INTERRES
    91   44  169 1    
    92   45   46 2    
    93   45   47 1    
    94   47   48 1    
    95   47   49 1    
    96   47  170 1    
    97   48  171 1    
    98   48  172 1    
    99   48  173 1    
   100   49   50 am   BACKBONE|DICT|INTERRES
   101   49  174 1    
   102   50   51 2    
   103   50   52 1    
   104   52   53 1    
   105   52   54 1    
   106   52  175 1    
   107   53  176 1    
   108   53  177 1    
   109   53  178 1    
   110   54   55 am   BACKBONE|DICT|INTERRES
   111   54  179 1    
   112   55   56 2    
   113   55   57 1    
   114   57   58 1    
   115   57   59 1    
   116   57  180 1    
   117   58  181 1    
   118   58  182 1    
   119   58  183 1    
   120   59   60 am   BACKBONE|DICT|INTERRES
   121   59  184 1    
   122   60   61 2    
   123   60   62 1    
   124   62   63 1    
   125   62   64 1    
   126   62  185 1    
   127   63  186 1    
   128   63  187 1    
   129   63  188 1    
   130   64   65 am   BACKBONE|DICT|INTERRES
   131   64  189 1    
   132   65   66 2    
   133   67   68 2    
   134   67   69 am   BACKBONE|DICT|INTERRES
   135   69   70 1    
   136   69  190 1    
   137   70   71 1    
   138   70   72 1    
   139   70  191 1    
   140   71  192 1    
   141   71  193 1    
   142   71  194 1    
   143   72   73 2    
   144   72   74 am   BACKBONE|DICT|INTERRES
   145   74   75 1    
   146   74  195 1    
   147   75   76 1    
   148   75   77 1    
   149   75  196 1    
   150   76  197 1    
   151   76  198 1    
   152   76  199 1    
   153   77   78 2    
   154   77   79 am   BACKBONE|DICT|INTERRES
   155   79   80 1    
   156   79  200 1    
   157   80   81 1    
   158   80   82 1    
   159   80  201 1    
   160   81  202 1    
   161   81  203 1    
   162   81  204 1    
   163   82   83 2    
   164   82   84 am   BACKBONE|DICT|INTERRES
   165   84   85 1    
   166   84  205 1    
   167   85   86 1    
   168   85   87 1    
   169   85  206 1    
   170   86  207 1    
   171   86  208 1    
   172   86  209 1    
   173   87   88 2    
   174   87   89 am   BACKBONE|DICT|INTERRES
   175   89   90 1    
   176   89  210 1    
   177   90   91 1    
   178   90   92 1    
   179   90  211 1    
   180   91  212 1    
   181   91  213 1    
   182   91  214 1    
   183   92   93 2    
   184   92   94 am   BACKBONE|DICT|INTERRES
   185   94   95 1    
   186   94  215 1    
   187   95   96 1    
   188   95   97 1    
   189   95  216 1    
   190   96  217 1    
   191   96  218 1    
   192   96  219 1    
   193   97   98 2    
   194   97   99 am   BACKBONE|DICT|INTERRES
   195   99  100 1    
   196   99  220 1    
   197  100  101 1    
   198  100  102 1    
   199  100  221 1    
   200  101  222 1    
   201  101  223 1    
   202  101  224 1    
   203  102  103 2    
   204  102  104 am   BACKBONE|DICT|INTERRES
   205  104  105 1    
   206  104  225 1    
   207  105  106 1    
   208  105  107 1    
   209  105  226 1    
   210  106  227 1    
   211  106  228 1    
   212  106  229 1    
   213  107  108 2    
   214  107  109 am   BACKBONE|DICT|INTERRES
   215  109  110 1    
   216  109  230 1    
   217  110  111 1    
   218  110  112 1    
   219  110  231 1    
   220  111  232 1    
   221  111  233 1    
   222  111  234 1    
   223  112  113 2    
   224  112  114 am   BACKBONE|DICT|INTERRES
   225  114  115 1    
   226  114  235 1    
   227  115  116 1    
   228  115  117 1    
   229  115  236 1    
   230  116  237 1    
   231  116  238 1    
   232  116  239 1    
   233  117  118 2    
   234  117  119 am   BACKBONE|DICT|INTERRES
   235  119  120 1    
   236  119  240 1    
   237  120  121 1    
   238  120  124 1    
   239  120  241 1    
   240  121  122 am   BACKBONE|DICT|INTERRES
   241  121  123 2    
   242  122  242 1    
   243  122  243 1    
   244  124  125 1    
   245  124  244 1    
   246  124  245 1    
   247  125  126 1    
   248  126  246 1    
   249  126  247 1    
@<TRIPOS>SUBSTRUCTURE
     1 UNK         1 GROUP             0       ****    0 ROOT    
