@<TRIPOS>MOLECULE
3R540
247   249    1
SMALL
USER_CHARGES


@<TRIPOS>ATOM
      1 CA          2.4815  -14.2358  -50.1849 C.3       0 UNK        -0.1800 
      2 C           1.8227  -13.6660  -48.9365 C.2       0 UNK         0.5000 
      3 O           1.2260  -12.5916  -48.9975 O.2       0 UNK        -0.5000 
      4 N           1.9299  -14.3868  -47.8104 N.am      1 UNK        -0.5000 
      5 CA          1.3756  -14.0361  -46.4926 C.3       1 UNK         0.1400 
      6 C6         -0.1773  -14.0212  -46.4358 C.3       23 UNK        -0.0398 
      7 S7         -0.8854  -15.6672  -46.7915 S.3       23 UNK        -0.2404 
      8 C8         -1.4454  -15.4727  -48.5124 C.3       23 UNK        -0.0205 
      9 C9         -1.1928  -16.7341  -49.3235 C.ar      23 UNK        -0.0193 
     10 C10        -2.2564  -17.4852  -49.8302 C.ar      23 UNK        -0.1150 
     11 C11        -2.0162  -18.6276  -50.6006 C.ar      23 UNK        -0.0193 
     12 C12        -0.6967  -19.0218  -50.8532 C.ar      23 UNK        -0.1150 
     13 C13         0.3751  -18.2674  -50.3669 C.ar      23 UNK        -0.0193 
     14 C14         0.1173  -17.1311  -49.5988 C.ar      23 UNK        -0.1150 
     15 C15         1.8130  -18.6337  -50.7125 C.3       23 UNK        -0.0205 
     16 S16         2.3377  -20.2438  -50.0473 S.3       23 UNK        -0.2404 
     17 C17         2.1834  -20.0072  -48.2421 C.3       23 UNK        -0.0398 
     18 CA          1.6069  -21.2700  -47.5590 C.3       11 UNK         0.1400 
     19 N           1.9234  -21.3238  -46.1300 N.am      11 UNK        -0.5000 
     20 C           1.9397  -22.4564  -45.4130 C.2       10 UNK         0.5000 
     21 O           1.4904  -23.5265  -45.8212 O.2       10 UNK        -0.5000 
     22 CA          2.5848  -22.3921  -44.0193 C.3       10 UNK         0.1400 
     23 CB          4.0066  -21.8040  -44.0651 C.3       10 UNK        -0.1800 
     24 N           1.7551  -21.5939  -43.1293 N.am      10 UNK        -0.5000 
     25 C           0.9005  -22.0957  -42.2288 C.2       9 UNK         0.5000 
     26 O           0.8310  -23.2922  -41.9460 O.2       9 UNK        -0.5000 
     27 CA         -0.0496  -21.1065  -41.5208 C.3       9 UNK         0.1400 
     28 CB          0.3794  -20.9093  -40.0585 C.3       9 UNK        -0.1800 
     29 N          -0.1565  -19.7958  -42.1689 N.am      9 UNK        -0.5000 
     30 C          -0.6164  -19.5780  -43.4093 C.2       8 UNK         0.5000 
     31 O          -1.0318  -20.4695  -44.1474 O.2       8 UNK        -0.5000 
     32 CA         -0.5099  -18.1388  -43.9457 C.3       8 UNK         0.1400 
     33 CB         -1.7034  -17.2963  -43.4762 C.3       8 UNK        -0.1800 
     34 N           0.7438  -17.4877  -43.5567 N.am      8 UNK        -0.5000 
     35 C           1.9640  -17.9107  -43.9200 C.2       7 UNK         0.5000 
     36 O           2.1553  -18.8699  -44.6694 O.2       7 UNK        -0.5000 
     37 CA          3.1725  -17.1800  -43.3125 C.3       7 UNK         0.1400 
     38 CB          3.5758  -15.9607  -44.1519 C.3       7 UNK        -0.1800 
     39 N           2.9127  -16.7631  -41.9354 N.am      7 UNK        -0.5000 
     40 C           3.1213  -17.5412  -40.8651 C.2       6 UNK         0.5000 
     41 O           3.6124  -18.6686  -40.9229 O.2       6 UNK        -0.5000 
     42 CA          2.6924  -16.9734  -39.4990 C.3       6 UNK         0.1400 
     43 CB          3.8483  -16.1997  -38.8480 C.3       6 UNK        -0.1800 
     44 N           1.5136  -16.1081  -39.5772 N.am      6 UNK        -0.5000 
     45 C           0.2824  -16.5409  -39.8849 C.2       5 UNK         0.5000 
     46 O           0.0194  -17.7116  -40.1535 O.2       5 UNK        -0.5000 
     47 CA         -0.8402  -15.4889  -39.9456 C.3       5 UNK         0.1400 
     48 CB         -1.4833  -15.3133  -38.5622 C.3       5 UNK        -0.1800 
     49 N          -0.4140  -14.1817  -40.4464 N.am      5 UNK        -0.5000 
     50 C           0.1886  -13.9456  -41.6193 C.2       4 UNK         0.5000 
     51 O           0.5042  -14.8301  -42.4198 O.2       4 UNK        -0.5000 
     52 CA          0.5285  -12.4801  -41.9526 C.3       4 UNK         0.1400 
     53 CB          0.1101  -11.4568  -40.8720 C.3       4 UNK        -0.1800 
     54 N           1.9470  -12.3340  -42.2789 N.am      4 UNK        -0.5000 
     55 C           2.9977  -12.6268  -41.4960 C.2       3 UNK         0.5000 
     56 O           2.8882  -13.0450  -40.3420 O.2       3 UNK        -0.5000 
     57 CA          4.4046  -12.4521  -42.1079 C.3       3 UNK         0.1400 
     58 CB          5.3504  -13.5905  -41.6857 C.3       3 UNK        -0.1800 
     59 N           4.3629  -12.3792  -43.5720 N.am      3 UNK        -0.5000 
     60 C           4.3047  -11.2466  -44.2853 C.2       2 UNK         0.5000 
     61 O           4.3512  -10.1204  -43.7902 O.2       2 UNK        -0.5000 
     62 CA          4.1224  -11.3997  -45.8077 C.3       2 UNK         0.1400 
     63 CB          5.4870  -11.4645  -46.5100 C.3       2 UNK        -0.1800 
     64 N           3.3281  -12.5702  -46.1963 N.am      2 UNK        -0.5000 
     65 C           2.0295  -12.7589  -45.9111 C.2       1 UNK         0.5000 
     66 O           1.3735  -11.9817  -45.2168 O.2       1 UNK        -0.5000 
     67 C           0.1076  -21.4608  -47.8521 C.2       11 UNK         0.5000 
     68 O          -0.2442  -22.3414  -48.6374 O.2       11 UNK        -0.5000 
     69 N          -0.7528  -20.6613  -47.2078 N.am      12 UNK        -0.5000 
     70 CA         -2.2040  -20.7075  -47.4155 C.3       12 UNK         0.1400 
     71 CB         -2.8626  -19.4603  -46.8060 C.3       12 UNK        -0.1800 
     72 C          -2.8383  -21.9989  -46.8665 C.2       12 UNK         0.5000 
     73 O          -3.8297  -22.4713  -47.4198 O.2       12 UNK        -0.5000 
     74 N          -2.2360  -22.5602  -45.8101 N.am      13 UNK        -0.5000 
     75 CA         -2.5846  -23.8592  -45.2404 C.3       13 UNK         0.1400 
     76 CB         -1.8789  -24.0188  -43.8878 C.3       13 UNK        -0.1800 
     77 C          -2.2352  -25.0351  -46.1730 C.2       13 UNK         0.5000 
     78 O          -2.9840  -26.0113  -46.2129 O.2       13 UNK        -0.5000 
     79 N          -1.1154  -24.9295  -46.9033 N.am      14 UNK        -0.5000 
     80 CA         -0.6899  -25.9122  -47.8996 C.3       14 UNK         0.1400 
     81 CB          0.8104  -25.7489  -48.1903 C.3       14 UNK        -0.1800 
     82 C          -1.5211  -25.7990  -49.1878 C.2       14 UNK         0.5000 
     83 O          -2.1004  -26.7899  -49.6343 O.2       14 UNK        -0.5000 
     84 N          -1.6060  -24.5831  -49.7407 N.am      15 UNK        -0.5000 
     85 CA         -2.3723  -24.2433  -50.9404 C.3       15 UNK         0.1400 
     86 CB         -1.6657  -23.0825  -51.6598 C.3       15 UNK        -0.1800 
     87 C          -3.8471  -23.9371  -50.6042 C.2       15 UNK         0.5000 
     88 O          -4.3858  -22.9139  -51.0316 O.2       15 UNK        -0.5000 
     89 N          -4.4741  -24.8435  -49.8417 N.am      16 UNK        -0.5000 
     90 CA         -5.8114  -24.7111  -49.2563 C.3       16 UNK         0.1400 
     91 CB         -6.0474  -25.8867  -48.2958 C.3       16 UNK        -0.1800 
     92 C          -6.9664  -24.6116  -50.2704 C.2       16 UNK         0.5000 
     93 O          -8.0472  -24.1508  -49.9003 O.2       16 UNK        -0.5000 
     94 N          -6.7313  -25.0393  -51.5198 N.am      17 UNK        -0.5000 
     95 CA         -7.6770  -24.9208  -52.6315 C.3       17 UNK         0.1400 
     96 CB         -7.1217  -25.6650  -53.8555 C.3       17 UNK        -0.1800 
     97 C          -7.9936  -23.4558  -52.9874 C.2       17 UNK         0.5000 
     98 O          -9.1500  -23.1436  -53.2728 O.2       17 UNK        -0.5000 
     99 N          -6.9611  -22.5983  -52.9343 N.am      18 UNK        -0.5000 
    100 CA        -6.9342  -21.1384  -53.1011 C.3       18 UNK         0.1400 
    101 CB        -7.6791  -20.4500  -51.9440 C.3       18 UNK        -0.1800 
    102 C         -7.4139  -20.5896  -54.4622 C.2       18 UNK         0.5000 
    103 O         -6.7343  -19.7409  -55.0391 O.2       18 UNK        -0.5000 
    104 N         -8.5630  -21.0702  -54.9513 N.am      19 UNK        -0.5000 
    105 CA        -9.2865  -20.5925  -56.1332 C.3       19 UNK         0.1400 
    106 CB       -10.6093  -21.3641  -56.2509 C.3       19 UNK        -0.1800 
    107 C         -8.4953  -20.6801  -57.4506 C.2       19 UNK         0.5000 
    108 O         -8.6950  -19.8465  -58.3342 O.2       19 UNK        -0.5000 
    109 N         -7.5759  -21.6485  -57.5449 N.am      20 UNK        -0.5000 
    110 CA        -6.6457  -21.8363  -58.6612 C.3       20 UNK         0.1400 
    111 CB        -6.2724  -23.3281  -58.7370 C.3       20 UNK        -0.1800 
    112 C         -5.4034  -20.9225  -58.5440 C.2       20 UNK         0.5000 
    113 O         -4.2854  -21.3716  -58.8037 O.2       20 UNK        -0.5000 
    114 N         -5.6112  -19.6711  -58.1043 N.am      21 UNK        -0.5000 
    115 CA        -4.6085  -18.6332  -57.8240 C.3       21 UNK         0.1400 
    116 CB        -4.0244  -18.0902  -59.1442 C.3       21 UNK        -0.1800 
    117 C         -3.5170  -19.0932  -56.8308 C.2       21 UNK         0.5000 
    118 O         -2.3518  -18.7171  -56.9719 O.2       21 UNK        -0.5000 
    119 N         -3.9192  -19.9360  -55.8698 N.am      22 UNK        -0.5000 
    120 CA        -3.0578  -20.6614  -54.9203 C.3       22 UNK         0.1400 
    121 C         -2.0452  -21.6518  -55.5831 C.2       22 UNK         0.5000 
    122 N         -2.2318  -22.0689  -56.8303 N.am      22 UNK        -0.7600 
    123 O         -1.0849  -22.0812  -54.9508 O.2       22 UNK        -0.5000 
    124 C124       -2.3931  -19.7230  -53.8754 C.3       23 UNK        -0.0398 
    125 S125       -3.6246  -18.8496  -52.8441 S.3       23 UNK        -0.2404 
    126 C126       -3.1893  -19.4150  -51.1679 C.3       23 UNK        -0.0205 
    127 H127        1.7240  -14.4713  -50.9326 H         1 UNK         0.0600 
    128 H128        3.0419  -15.1460  -49.9701 H         1 UNK         0.0600 
    129 H129        3.1700  -13.5070  -50.6124 H         1 UNK         0.0600 
    130 H130        2.4378  -15.2591  -47.8396 H         1 UNK         0.3000 
    131 H131        1.6869  -14.8399  -45.8299 H         1 UNK         0.0600 
    132 H132       -0.5166  -13.7518  -45.4340 H         1 UNK         0.0800 
    133 H133       -0.5936  -13.2685  -47.1062 H         1 UNK         0.0800 
    134 H134       -2.5049  -15.2128  -48.5113 H         1 UNK         0.0800 
    135 H135       -0.9282  -14.6433  -48.9942 H         1 UNK         0.0800 
    136 H136       -3.2734  -17.1753  -49.6349 H         1 UNK         0.1150 
    137 H137       -0.4941  -19.9051  -51.4401 H         1 UNK         0.1150 
    138 H138        0.9390  -16.5448  -49.2189 H         1 UNK         0.1150 
    139 H139        1.9147  -18.6567  -51.7982 H         1 UNK         0.0800 
    140 H140        2.5058  -17.8678  -50.3606 H         1 UNK         0.0800 
    141 H141        1.5874  -19.1240  -48.0078 H         1 UNK         0.0800 
    142 H142        3.1845  -19.8012  -47.8608 H         1 UNK         0.0800 
    143 H143        2.1164  -22.1275  -48.0061 H         1 UNK         0.0600 
    144 H144        2.2183  -20.4553  -45.6911 H         1 UNK         0.3000 
    145 H145        2.6689  -23.4162  -43.6494 H         1 UNK         0.0600 
    146 H146        4.4799  -21.8571  -43.0846 H         1 UNK         0.0600 
    147 H147        4.0164  -20.7599  -44.3774 H         1 UNK         0.0600 
    148 H148        4.6362  -22.3612  -44.7599 H         1 UNK         0.0600 
    149 H149        1.7229  -20.6013  -43.3201 H         1 UNK         0.3000 
    150 H150       -1.0430  -21.5588  -41.5270 H         1 UNK         0.0600 
    151 H151        0.4804  -21.8654  -39.5433 H         1 UNK         0.0600 
    152 H152       -0.3574  -20.3245  -39.5077 H         1 UNK         0.0600 
    153 H153        1.3383  -20.3939  -39.9889 H         1 UNK         0.0600 
    154 H154        0.1186  -18.9972  -41.6038 H         1 UNK         0.3000 
    155 H155       -0.5324  -18.1842  -45.0360 H         1 UNK         0.0600 
    156 H156       -2.6380  -17.6929  -43.8739 H         1 UNK         0.0600 
    157 H157       -1.6187  -16.2627  -43.8124 H         1 UNK         0.0600 
    158 H158       -1.7871  -17.2923  -42.3906 H         1 UNK         0.0600 
    159 H159        0.6633  -16.6502  -42.9874 H         1 UNK         0.3000 
    160 H160        4.0100  -17.8810  -43.3326 H         1 UNK         0.0600 
    161 H161        2.9138  -15.1151  -43.9682 H         1 UNK         0.0600 
    162 H162        3.5574  -16.1895  -45.2183 H         1 UNK         0.0600 
    163 H163        4.5922  -15.6486  -43.9160 H         1 UNK         0.0600 
    164 H164        2.4407  -15.8783  -41.8044 H         1 UNK         0.3000 
    165 H165        2.4458  -17.8202  -38.8548 H         1 UNK         0.0600 
    166 H166        3.5800  -15.8558  -37.8490 H         1 UNK         0.0600 
    167 H167        4.7330  -16.8298  -38.7481 H         1 UNK         0.0600 
    168 H168        4.1316  -15.3279  -39.4377 H         1 UNK         0.0600 
    169 H169        1.6579  -15.1207  -39.4127 H         1 UNK         0.3000 
    170 H170       -1.6064  -15.8611  -40.6261 H         1 UNK         0.0600 
    171 H171       -0.7780  -14.9006  -37.8397 H         1 UNK         0.0600 
    172 H172       -2.3456  -14.6479  -38.6086 H         1 UNK         0.0600 
    173 H173       -1.8337  -16.2692  -38.1700 H         1 UNK         0.0600 
    174 H174       -0.6048  -13.3921  -39.8470 H         1 UNK         0.3000 
    175 H175       -0.0251  -12.2434  -42.8619 H         1 UNK         0.0600 
    176 H176        0.6077  -11.6334  -39.9178 H         1 UNK         0.0600 
    177 H177        0.3565  -10.4423  -41.1858 H         1 UNK         0.0600 
    178 H178       -0.9666  -11.4814  -40.6994 H         1 UNK         0.0600 
    179 H179        2.1276  -12.0355  -43.2295 H         1 UNK         0.3000 
    180 H180        4.8114  -11.5217  -41.7068 H         1 UNK         0.0600 
    181 H181        6.3145  -13.5139  -42.1885 H         1 UNK         0.0600 
    182 H182        4.9311  -14.5716  -41.9045 H         1 UNK         0.0600 
    183 H183        5.5444  -13.5549  -40.6131 H         1 UNK         0.0600 
    184 H184        4.3156  -13.2562  -44.0680 H         1 UNK         0.3000 
    185 H185        3.5979  -10.5109  -46.1649 H         1 UNK         0.0600 
    186 H186        5.3726  -11.4810  -47.5941 H         1 UNK         0.0600 
    187 H187        6.0957  -10.5938  -46.2625 H         1 UNK         0.0600 
    188 H188        6.0494  -12.3521  -46.2173 H         1 UNK         0.0600 
    189 H189        3.7883  -13.2481  -46.7861 H         1 UNK         0.3000 
    190 H190       -0.4077  -20.0150  -46.5143 H         1 UNK         0.3000 
    191 H191       -2.3841  -20.6876  -48.4923 H         1 UNK         0.0600 
    192 H192       -2.3675  -18.5466  -47.1338 H         1 UNK         0.0600 
    193 H193       -2.8449  -19.4790  -45.7173 H         1 UNK         0.0600 
    194 H194       -3.9074  -19.3912  -47.1104 H         1 UNK         0.0600 
    195 H195       -1.4886  -22.0419  -45.3608 H         1 UNK         0.3000 
    196 H196       -3.6629  -23.8755  -45.0689 H         1 UNK         0.0600 
    197 H197       -2.1417  -23.2101  -43.2057 H         1 UNK         0.0600 
    198 H198       -0.7947  -24.0221  -44.0049 H         1 UNK         0.0600 
    199 H199       -2.1600  -24.9566  -43.4073 H         1 UNK         0.0600 
    200 H200       -0.5315  -24.1098  -46.7959 H         1 UNK         0.3000 
    201 H201       -0.8413  -26.9132  -47.4900 H         1 UNK         0.0600 
    202 H202        1.4039  -25.9236  -47.2928 H         1 UNK         0.0600 
    203 H203        1.0491  -24.7501  -48.5567 H         1 UNK         0.0600 
    204 H204        1.1427  -26.4641  -48.9436 H         1 UNK         0.0600 
    205 H205       -1.1237  -23.8073  -49.2893 H         1 UNK         0.3000 
    206 H206       -2.3747  -25.0964  -51.6218 H         1 UNK         0.0600 
    207 H207       -1.5454  -22.2207  -51.0048 H         1 UNK         0.0600 
    208 H208       -0.6730  -23.3777  -51.9996 H         1 UNK         0.0600 
    209 H209       -2.2252  -22.7614  -52.5383 H         1 UNK         0.0600 
    210 H210       -3.9423  -25.6592  -49.5633 H         1 UNK         0.3000 
    211 H211       -5.8237  -23.7878  -48.6745 H         1 UNK         0.0600 
    212 H212       -5.9905  -26.8456  -48.8124 H         1 UNK         0.0600 
    213 H213       -7.0306  -25.8222  -47.8278 H         1 UNK         0.0600 
    214 H214       -5.3110  -25.8923  -47.4934 H         1 UNK         0.0600 
    215 H215       -5.8208  -25.4211  -51.7280 H         1 UNK         0.3000 
    216 H216       -8.6110  -25.4010  -52.3322 H         1 UNK         0.0600 
    217 H217       -7.8150  -25.6056  -54.6957 H         1 UNK         0.0600 
    218 H218       -6.9676  -26.7220  -53.6377 H         1 UNK         0.0600 
    219 H219       -6.1695  -25.2477  -54.1856 H         1 UNK         0.0600 
    220 H220       -6.0736  -22.9882  -52.6428 H         1 UNK         0.3000 
    221 H221       -5.8828  -20.8624  -53.0131 H         1 UNK         0.0600 
    222 H222       -8.7415  -20.6958  -51.9410 H         1 UNK         0.0600 
    223 H223       -7.2639  -20.7467  -50.9806 H         1 UNK         0.0600 
    224 H224       -7.5926  -19.3649  -52.0147 H         1 UNK         0.0600 
    225 H225       -9.0174  -21.7996  -54.4035 H         1 UNK         0.3000 
    226 H226       -9.5192  -19.5390  -55.9663 H         1 UNK         0.0600 
    227 H227      -11.2263  -21.2262  -55.3628 H         1 UNK         0.0600 
    228 H228      -11.1908  -21.0189  -57.1068 H         1 UNK         0.0600 
    229 H229      -10.4392  -22.4341  -56.3773 H         1 UNK         0.0600 
    230 H230       -7.4610  -22.2653  -56.7543 H         1 UNK         0.3000 
    231 H231       -7.1486  -21.5718  -59.5936 H         1 UNK         0.0600 
    232 H232       -5.6382  -23.5318  -59.6008 H         1 UNK         0.0600 
    233 H233       -7.1606  -23.9521  -58.8370 H         1 UNK         0.0600 
    234 H234       -5.7319  -23.6531  -57.8470 H         1 UNK         0.0600 
    235 H235       -6.5697  -19.4123  -57.9072 H         1 UNK         0.3000 
    236 H236       -5.1399  -17.8167  -57.3330 H         1 UNK         0.0600 
    237 H237       -3.4377  -18.8468  -59.6664 H         1 UNK         0.0600 
    238 H238       -4.8144  -17.7557  -59.8165 H         1 UNK         0.0600 
    239 H239       -3.3715  -17.2357  -58.9630 H         1 UNK         0.0600 
    240 H240       -4.9152  -20.1079  -55.7863 H         1 UNK         0.3000 
    241 H241       -3.7328  -21.3170  -54.3694 H         1 UNK         0.0600 
    242 H242       -2.9988  -21.7266  -57.4015 H         1 UNK         0.3800 
    243 H243       -1.5707  -22.7141  -57.2317 H         1 UNK         0.3800 
    244 H244       -1.7543  -18.9858  -54.3627 H         1 UNK         0.0800 
    245 H245       -1.7393  -20.2999  -53.2239 H         1 UNK         0.0800 
    246 H246       -4.0612  -19.2928  -50.5236 H         1 UNK         0.0800 
    247 H247       -2.9770  -20.4827  -51.1744 H         1 UNK         0.0800 
@<TRIPOS>BOND
     1    1    2 1    
     2    1  127 1    
     3    1  128 1    
     4    1  129 1    
     5    2    3 2    
     6    2    4 am   BACKBONE|DICT|INTERRES
     7    4    5 1    
     8    4  130 1    
     9    5    6 1    
    10    5   65 1    
    11    5  131 1    
    12    6    7 1    
    13    6  132 1    
    14    6  133 1    
    15    7    8 1    
    16    8    9 1    
    17    8  134 1    
    18    8  135 1    
    19    9   10 ar   
    20    9   14 ar   
    21   10   11 ar   
    22   10  136 1    
    23   11   12 ar   
    24   11  126 1    
    25   12   13 ar   
    26   12  137 1    
    27   13   14 ar   
    28   13   15 1    
    29   14  138 1    
    30   15   16 1    
    31   15  139 1    
    32   15  140 1    
    33   16   17 1    
    34   17   18 1    
    35   17  141 1    
    36   17  142 1    
    37   18   19 1    
    38   18   67 1    
    39   18  143 1    
    40   19   20 am   BACKBONE|DICT|INTERRES
    41   19  144 1    
    42   20   21 2    
    43   20   22 1    
    44   22   23 1    
    45   22   24 1    
    46   22  145 1    
    47   23  146 1    
    48   23  147 1    
    49   23  148 1    
    50   24   25 am   BACKBONE|DICT|INTERRES
    51   24  149 1    
    52   25   26 2    
    53   25   27 1    
    54   27   28 1    
    55   27   29 1    
    56   27  150 1    
    57   28  151 1    
    58   28  152 1    
    59   28  153 1    
    60   29   30 am   BACKBONE|DICT|INTERRES
    61   29  154 1    
    62   30   31 2    
    63   30   32 1    
    64   32   33 1    
    65   32   34 1    
    66   32  155 1    
    67   33  156 1    
    68   33  157 1    
    69   33  158 1    
    70   34   35 am   BACKBONE|DICT|INTERRES
    71   34  159 1    
    72   35   36 2    
    73   35   37 1    
    74   37   38 1    
    75   37   39 1    
    76   37  160 1    
    77   38  161 1    
    78   38  162 1    
    79   38  163 1    
    80   39   40 am   BACKBONE|DICT|INTERRES
    81   39  164 1    
    82   40   41 2    
    83   40   42 1    
    84   42   43 1    
    85   42   44 1    
    86   42  165 1    
    87   43  166 1    
    88   43  167 1    
    89   43  168 1    
    90   44   45 am   BACKBONE|DICT|INTERRES
    91   44  169 1    
    92   45   46 2    
    93   45   47 1    
    94   47   48 1    
    95   47   49 1    
    96   47  170 1    
    97   48  171 1    
    98   48  172 1    
    99   48  173 1    
   100   49   50 am   BACKBONE|DICT|INTERRES
   101   49  174 1    
   102   50   51 2    
   103   50   52 1    
   104   52   53 1    
   105   52   54 1    
   106   52  175 1    
   107   53  176 1    
   108   53  177 1    
   109   53  178 1    
   110   54   55 am   BACKBONE|DICT|INTERRES
   111   54  179 1    
   112   55   56 2    
   113   55   57 1    
   114   57   58 1    
   115   57   59 1    
   116   57  180 1    
   117   58  181 1    
   118   58  182 1    
   119   58  183 1    
   120   59   60 am   BACKBONE|DICT|INTERRES
   121   59  184 1    
   122   60   61 2    
   123   60   62 1    
   124   62   63 1    
   125   62   64 1    
   126   62  185 1    
   127   63  186 1    
   128   63  187 1    
   129   63  188 1    
   130   64   65 am   BACKBONE|DICT|INTERRES
   131   64  189 1    
   132   65   66 2    
   133   67   68 2    
   134   67   69 am   BACKBONE|DICT|INTERRES
   135   69   70 1    
   136   69  190 1    
   137   70   71 1    
   138   70   72 1    
   139   70  191 1    
   140   71  192 1    
   141   71  193 1    
   142   71  194 1    
   143   72   73 2    
   144   72   74 am   BACKBONE|DICT|INTERRES
   145   74   75 1    
   146   74  195 1    
   147   75   76 1    
   148   75   77 1    
   149   75  196 1    
   150   76  197 1    
   151   76  198 1    
   152   76  199 1    
   153   77   78 2    
   154   77   79 am   BACKBONE|DICT|INTERRES
   155   79   80 1    
   156   79  200 1    
   157   80   81 1    
   158   80   82 1    
   159   80  201 1    
   160   81  202 1    
   161   81  203 1    
   162   81  204 1    
   163   82   83 2    
   164   82   84 am   BACKBONE|DICT|INTERRES
   165   84   85 1    
   166   84  205 1    
   167   85   86 1    
   168   85   87 1    
   169   85  206 1    
   170   86  207 1    
   171   86  208 1    
   172   86  209 1    
   173   87   88 2    
   174   87   89 am   BACKBONE|DICT|INTERRES
   175   89   90 1    
   176   89  210 1    
   177   90   91 1    
   178   90   92 1    
   179   90  211 1    
   180   91  212 1    
   181   91  213 1    
   182   91  214 1    
   183   92   93 2    
   184   92   94 am   BACKBONE|DICT|INTERRES
   185   94   95 1    
   186   94  215 1    
   187   95   96 1    
   188   95   97 1    
   189   95  216 1    
   190   96  217 1    
   191   96  218 1    
   192   96  219 1    
   193   97   98 2    
   194   97   99 am   BACKBONE|DICT|INTERRES
   195   99  100 1    
   196   99  220 1    
   197  100  101 1    
   198  100  102 1    
   199  100  221 1    
   200  101  222 1    
   201  101  223 1    
   202  101  224 1    
   203  102  103 2    
   204  102  104 am   BACKBONE|DICT|INTERRES
   205  104  105 1    
   206  104  225 1    
   207  105  106 1    
   208  105  107 1    
   209  105  226 1    
   210  106  227 1    
   211  106  228 1    
   212  106  229 1    
   213  107  108 2    
   214  107  109 am   BACKBONE|DICT|INTERRES
   215  109  110 1    
   216  109  230 1    
   217  110  111 1    
   218  110  112 1    
   219  110  231 1    
   220  111  232 1    
   221  111  233 1    
   222  111  234 1    
   223  112  113 2    
   224  112  114 am   BACKBONE|DICT|INTERRES
   225  114  115 1    
   226  114  235 1    
   227  115  116 1    
   228  115  117 1    
   229  115  236 1    
   230  116  237 1    
   231  116  238 1    
   232  116  239 1    
   233  117  118 2    
   234  117  119 am   BACKBONE|DICT|INTERRES
   235  119  120 1    
   236  119  240 1    
   237  120  121 1    
   238  120  124 1    
   239  120  241 1    
   240  121  122 am   BACKBONE|DICT|INTERRES
   241  121  123 2    
   242  122  242 1    
   243  122  243 1    
   244  124  125 1    
   245  124  244 1    
   246  124  245 1    
   247  125  126 1    
   248  126  246 1    
   249  126  247 1    
@<TRIPOS>SUBSTRUCTURE
     1 UNK         1 GROUP             0       ****    0 ROOT    
