@<TRIPOS>MOLECULE
3R540
247   249    1
SMALL
USER_CHARGES


@<TRIPOS>ATOM
      1 CA         -0.9871  -14.2728  -49.2114 C.3       0 UNK        -0.1800 
      2 C           0.5099  -14.0392  -49.0732 C.2       0 UNK         0.5000 
      3 O           0.9300  -12.9617  -48.6492 O.2       0 UNK        -0.5000 
      4 N           1.3188  -15.0511  -49.4153 N.am      1 UNK        -0.5000 
      5 CA          2.7888  -15.0085  -49.3986 C.3       1 UNK         0.1400 
      6 C6          3.4199  -16.2550  -50.0657 C.3       23 UNK        -0.0398 
      7 S7          3.1732  -16.2752  -51.8721 S.3       23 UNK        -0.2404 
      8 C8          2.1960  -17.7901  -52.1070 C.3       23 UNK        -0.0205 
      9 C9          0.7391  -17.5857  -51.7292 C.ar      23 UNK        -0.0193 
     10 C10        -0.1072  -16.8760  -52.5869 C.ar      23 UNK        -0.1150 
     11 C11        -1.4619  -16.7222  -52.2826 C.ar      23 UNK        -0.0193 
     12 C12        -1.9607  -17.2851  -51.1047 C.ar      23 UNK        -0.1150 
     13 C13        -1.1245  -17.9844  -50.2320 C.ar      23 UNK        -0.0193 
     14 C14         0.2286  -18.1291  -50.5465 C.ar      23 UNK        -0.1150 
     15 C15        -1.6951  -18.5795  -48.9566 C.3       23 UNK        -0.0205 
     16 S16        -2.5383  -20.1526  -49.2898 S.3       23 UNK        -0.2404 
     17 C17        -3.1887  -20.6015  -47.6473 C.3       23 UNK        -0.0398 
     18 CA         -2.6195  -21.9576  -47.1645 C.3       11 UNK         0.1400 
     19 N          -1.3173  -21.8405  -46.5020 N.am      11 UNK        -0.5000 
     20 C          -0.4237  -22.8387  -46.4653 C.2       10 UNK         0.5000 
     21 O          -0.6067  -23.9443  -46.9820 O.2       10 UNK        -0.5000 
     22 CA          0.8761  -22.5696  -45.6932 C.3       10 UNK         0.1400 
     23 CB          1.7292  -21.5067  -46.4042 C.3       10 UNK        -0.1800 
     24 N           0.6529  -22.1682  -44.3037 N.am      10 UNK        -0.5000 
     25 C           0.0296  -22.9017  -43.3686 C.2       9 UNK         0.5000 
     26 O          -0.5359  -23.9679  -43.6033 O.2       9 UNK        -0.5000 
     27 CA          0.0416  -22.3615  -41.9257 C.3       9 UNK         0.1400 
     28 CB          1.1895  -22.9990  -41.1289 C.3       9 UNK        -0.1800 
     29 N           0.1813  -20.9068  -41.8861 N.am      9 UNK        -0.5000 
     30 C          -0.8279  -20.0530  -42.0959 C.2       8 UNK         0.5000 
     31 O          -2.0063  -20.4067  -42.1788 O.2       8 UNK        -0.5000 
     32 CA         -0.4632  -18.5585  -42.2562 C.3       8 UNK         0.1400 
     33 CB          1.0331  -18.3060  -42.5320 C.3       8 UNK        -0.1800 
     34 N          -1.2751  -17.8808  -43.2721 N.am      8 UNK        -0.5000 
     35 C          -1.5340  -18.2952  -44.5232 C.2       7 UNK         0.5000 
     36 O          -1.0409  -19.2957  -45.0516 O.2       7 UNK        -0.5000 
     37 CA         -2.5457  -17.4530  -45.3174 C.3       7 UNK         0.1400 
     38 CB         -3.9833  -17.9082  -45.0151 C.3       7 UNK        -0.1800 
     39 N          -2.4394  -16.0220  -45.0591 N.am      7 UNK        -0.5000 
     40 C          -1.4434  -15.2353  -45.4830 C.2       6 UNK         0.5000 
     41 O          -0.5136  -15.6201  -46.1938 O.2       6 UNK        -0.5000 
     42 CA         -1.5017  -13.7609  -45.0423 C.3       6 UNK         0.1400 
     43 CB         -2.9396  -13.2291  -44.8654 C.3       6 UNK        -0.1800 
     44 N          -0.7138  -13.4910  -43.8378 N.am      6 UNK        -0.5000 
     45 C          -0.7739  -14.0916  -42.6378 C.2       5 UNK         0.5000 
     46 O          -1.5241  -15.0329  -42.3745 O.2       5 UNK        -0.5000 
     47 CA          0.1514  -13.5434  -41.5309 C.3       5 UNK         0.1400 
     48 CB          1.2141  -14.5770  -41.1308 C.3       5 UNK        -0.1800 
     49 N           0.8210  -12.2994  -41.9199 N.am      5 UNK        -0.5000 
     50 C           0.3064  -11.0756  -41.7310 C.2       4 UNK         0.5000 
     51 O          -0.7481  -10.8629  -41.1317 O.2       4 UNK        -0.5000 
     52 CA          1.0811   -9.8874  -42.3360 C.3       4 UNK         0.1400 
     53 CB          2.0455   -9.2899  -41.3004 C.3       4 UNK        -0.1800 
     54 N           1.8320  -10.2295  -43.5465 N.am      4 UNK        -0.5000 
     55 C           1.2924  -10.6532  -44.6975 C.2       3 UNK         0.5000 
     56 O           0.0820  -10.7895  -44.8721 O.2       3 UNK        -0.5000 
     57 CA          2.2564  -11.0277  -45.8372 C.3       3 UNK         0.1400 
     58 CB          3.6474  -10.3654  -45.7220 C.3       3 UNK        -0.1800 
     59 N           2.3937  -12.4788  -45.9872 N.am      3 UNK        -0.5000 
     60 C           2.8282  -13.3638  -45.0743 C.2       2 UNK         0.5000 
     61 O           3.0542  -13.0716  -43.8985 O.2       2 UNK        -0.5000 
     62 CA          3.0661  -14.8171  -45.5428 C.3       2 UNK         0.1400 
     63 CB          2.3923  -15.8381  -44.6184 C.3       2 UNK        -0.1800 
     64 N           2.6393  -15.0563  -46.9235 N.am      2 UNK        -0.5000 
     65 C           3.3997  -14.7913  -47.9964 C.2       1 UNK         0.5000 
     66 O           4.5524  -14.3646  -47.9143 O.2       1 UNK        -0.5000 
     67 C          -3.6392  -22.7562  -46.3291 C.2       11 UNK         0.5000 
     68 O          -4.6071  -23.2567  -46.9014 O.2       11 UNK        -0.5000 
     69 N          -3.4065  -22.8958  -45.0175 N.am      12 UNK        -0.5000 
     70 CA         -4.2363  -23.7118  -44.1339 C.3       12 UNK         0.1400 
     71 CB         -3.9920  -23.3067  -42.6723 C.3       12 UNK        -0.1800 
     72 C          -3.9936  -25.2188  -44.3381 C.2       12 UNK         0.5000 
     73 O          -4.9577  -25.9736  -44.4706 O.2       12 UNK        -0.5000 
     74 N          -2.7186  -25.6308  -44.3449 N.am      13 UNK        -0.5000 
     75 CA         -2.3199  -27.0373  -44.3591 C.3       13 UNK         0.1400 
     76 CB         -1.0077  -27.1968  -43.5746 C.3       13 UNK        -0.1800 
     77 C          -2.1596  -27.6157  -45.7737 C.2       13 UNK         0.5000 
     78 O          -2.5529  -28.7621  -45.9947 O.2       13 UNK        -0.5000 
     79 N          -1.5546  -26.8466  -46.6894 N.am      14 UNK        -0.5000 
     80 CA         -1.0761  -27.3454  -47.9849 C.3       14 UNK         0.1400 
     81 CB          0.4631  -27.3187  -47.9658 C.3       14 UNK        -0.1800 
     82 C          -1.6173  -26.5469  -49.1826 C.2       14 UNK         0.5000 
     83 O          -1.1661  -26.7730  -50.3081 O.2       14 UNK        -0.5000 
     84 N          -2.5191  -25.5847  -48.9288 N.am      15 UNK        -0.5000 
     85 CA         -3.0610  -24.6107  -49.8900 C.3       15 UNK         0.1400 
     86 CB         -3.9456  -25.3149  -50.9403 C.3       15 UNK        -0.1800 
     87 C          -1.9770  -23.7230  -50.5480 C.2       15 UNK         0.5000 
     88 O          -2.2414  -23.1332  -51.5945 O.2       15 UNK        -0.5000 
     89 N          -0.7775  -23.6781  -49.9435 N.am      16 UNK        -0.5000 
     90 CA          0.4779  -23.1078  -50.4433 C.3       16 UNK         0.1400 
     91 CB          0.4928  -21.5817  -50.2647 C.3       16 UNK        -0.1800 
     92 C           0.8184  -23.5607  -51.8798 C.2       16 UNK         0.5000 
     93 O           1.1941  -22.7382  -52.7159 O.2       16 UNK        -0.5000 
     94 N           0.6499  -24.8688  -52.1328 N.am      17 UNK        -0.5000 
     95 CA          0.7971  -25.5408  -53.4285 C.3       17 UNK         0.1400 
     96 CB          2.2495  -25.4614  -53.9457 C.3       17 UNK        -0.1800 
     97 C          -0.2516  -25.0565  -54.4522 C.2       17 UNK         0.5000 
     98 O           0.0899  -24.7015  -55.5818 O.2       17 UNK        -0.5000 
     99 N          -1.5190  -25.0688  -54.0155 N.am      18 UNK        -0.5000 
    100 CA        -2.7292  -24.7181  -54.7672 C.3       18 UNK         0.1400 
    101 CB        -2.9342  -25.6654  -55.9686 C.3       18 UNK        -0.1800 
    102 C         -2.8315  -23.2244  -55.1450 C.2       18 UNK         0.5000 
    103 O         -3.4294  -22.8889  -56.1692 O.2       18 UNK        -0.5000 
    104 N         -2.2967  -22.3473  -54.2857 N.am      19 UNK        -0.5000 
    105 CA        -2.5650  -20.9078  -54.3062 C.3       19 UNK         0.1400 
    106 CB        -1.4407  -20.1640  -53.5769 C.3       19 UNK        -0.1800 
    107 C         -3.9297  -20.5917  -53.6610 C.2       19 UNK         0.5000 
    108 O         -4.5828  -19.6314  -54.0698 O.2       19 UNK        -0.5000 
    109 N         -4.3372  -21.4282  -52.6904 N.am      20 UNK        -0.5000 
    110 CA        -5.6744  -21.5419  -52.0965 C.3       20 UNK         0.1400 
    111 CB        -6.6261  -22.2228  -53.1002 C.3       20 UNK        -0.1800 
    112 C         -6.2329  -20.2117  -51.5515 C.2       20 UNK         0.5000 
    113 O         -7.3467  -19.8105  -51.8980 O.2       20 UNK        -0.5000 
    114 N         -5.4155  -19.5300  -50.7359 N.am      21 UNK        -0.5000 
    115 CA        -5.6856  -18.2370  -50.0905 C.3       21 UNK         0.1400 
    116 CB        -6.7991  -18.3814  -49.0332 C.3       21 UNK        -0.1800 
    117 C         -5.9515  -17.0858  -51.0876 C.2       21 UNK         0.5000 
    118 O         -6.5859  -16.0940  -50.7251 O.2       21 UNK        -0.5000 
    119 N         -5.4582  -17.2461  -52.3234 N.am      22 UNK        -0.5000 
    120 CA        -5.6526  -16.3492  -53.4725 C.3       22 UNK         0.1400 
    121 C         -7.1081  -16.3468  -54.0338 C.2       22 UNK         0.5000 
    122 N         -7.9472  -17.3250  -53.7082 N.am      22 UNK        -0.7600 
    123 O         -7.4792  -15.4620  -54.8006 O.2       22 UNK        -0.5000 
    124 C124       -5.0810  -14.9118  -53.2629 C.3       23 UNK        -0.0398 
    125 S125       -3.4453  -14.7648  -52.4427 S.3       23 UNK        -0.2404 
    126 C126       -2.3946  -16.0162  -53.2595 C.3       23 UNK        -0.0205 
    127 H127       -1.3171  -14.0185  -50.2184 H         1 UNK         0.0600 
    128 H128       -1.5378  -13.6552  -48.5021 H         1 UNK         0.0600 
    129 H129       -1.2420  -15.3138  -49.0153 H         1 UNK         0.0600 
    130 H130        0.9114  -15.9015  -49.7797 H         1 UNK         0.3000 
    131 H131        3.0825  -14.1338  -49.9832 H         1 UNK         0.0600 
    132 H132        4.5001  -16.2768  -49.9077 H         1 UNK         0.0800 
    133 H133        3.0342  -17.1701  -49.6139 H         1 UNK         0.0800 
    134 H134        2.6380  -18.6123  -51.5420 H         1 UNK         0.0800 
    135 H135        2.2518  -18.0831  -53.1564 H         1 UNK         0.0800 
    136 H136        0.2893  -16.4643  -53.5044 H         1 UNK         0.1150 
    137 H137       -3.0072  -17.1803  -50.8685 H         1 UNK         0.1150 
    138 H138        0.8772  -18.6809  -49.8811 H         1 UNK         0.1150 
    139 H139       -0.9117  -18.7286  -48.2113 H         1 UNK         0.0800 
    140 H140       -2.4114  -17.8738  -48.5381 H         1 UNK         0.0800 
    141 H141       -4.2758  -20.6304  -47.7448 H         1 UNK         0.0800 
    142 H142       -2.9719  -19.8172  -46.9282 H         1 UNK         0.0800 
    143 H143       -2.4674  -22.5655  -48.0506 H         1 UNK         0.0600 
    144 H144       -1.1125  -20.9645  -46.0263 H         1 UNK         0.3000 
    145 H145        1.4438  -23.5022  -45.6769 H         1 UNK         0.0600 
    146 H146        2.6924  -21.3803  -45.9099 H         1 UNK         0.0600 
    147 H147        1.9326  -21.7952  -47.4361 H         1 UNK         0.0600 
    148 H148        1.2346  -20.5345  -46.4248 H         1 UNK         0.0600 
    149 H149        1.0401  -21.2784  -44.0299 H         1 UNK         0.3000 
    150 H150       -0.8983  -22.6475  -41.4497 H         1 UNK         0.0600 
    151 H151        1.1013  -24.0863  -41.1211 H         1 UNK         0.0600 
    152 H152        1.1811  -22.6660  -40.0909 H         1 UNK         0.0600 
    153 H153        2.1633  -22.7518  -41.5537 H         1 UNK         0.0600 
    154 H154        1.1180  -20.5410  -41.7955 H         1 UNK         0.3000 
    155 H155       -0.7095  -18.0857  -41.3046 H         1 UNK         0.0600 
    156 H156        1.3534  -18.7442  -43.4781 H         1 UNK         0.0600 
    157 H157        1.6674  -18.7025  -41.7387 H         1 UNK         0.0600 
    158 H158        1.2296  -17.2373  -42.5756 H         1 UNK         0.0600 
    159 H159       -1.7010  -17.0118  -42.9682 H         1 UNK         0.3000 
    160 H160       -2.3439  -17.6165  -46.3725 H         1 UNK         0.0600 
    161 H161       -4.2813  -17.6437  -43.9998 H         1 UNK         0.0600 
    162 H162       -4.0919  -18.9892  -45.1064 H         1 UNK         0.0600 
    163 H163       -4.6936  -17.4496  -45.7034 H         1 UNK         0.0600 
    164 H164       -3.1347  -15.6177  -44.4488 H         1 UNK         0.3000 
    165 H165       -1.0385  -13.1872  -45.8468 H         1 UNK         0.0600 
    166 H166       -2.9341  -12.1484  -44.7217 H         1 UNK         0.0600 
    167 H167       -3.5461  -13.4324  -45.7490 H         1 UNK         0.0600 
    168 H168       -3.4436  -13.6701  -44.0049 H         1 UNK         0.0600 
    169 H169       -0.0923  -12.6972  -43.9242 H         1 UNK         0.3000 
    170 H170       -0.4758  -13.3632  -40.6554 H         1 UNK         0.0600 
    171 H171        0.7557  -15.5245  -40.8451 H         1 UNK         0.0600 
    172 H172        1.9088  -14.7743  -41.9448 H         1 UNK         0.0600 
    173 H173        1.7952  -14.2291  -40.2767 H         1 UNK         0.0600 
    174 H174        1.6888  -12.3942  -42.4381 H         1 UNK         0.3000 
    175 H175        0.3497   -9.1223  -42.6041 H         1 UNK         0.0600 
    176 H176        2.8193  -10.0030  -41.0133 H         1 UNK         0.0600 
    177 H177        2.5371   -8.3971  -41.6874 H         1 UNK         0.0600 
    178 H178        1.5138   -8.9992  -40.3934 H         1 UNK         0.0600 
    179 H179        2.8386  -10.1856  -43.4803 H         1 UNK         0.3000 
    180 H180        1.7960  -10.6657  -46.7578 H         1 UNK         0.0600 
    181 H181        4.2132  -10.7285  -44.8636 H         1 UNK         0.0600 
    182 H182        3.5604   -9.2820  -45.6302 H         1 UNK         0.0600 
    183 H183        4.2436  -10.5640  -46.6128 H         1 UNK         0.0600 
    184 H184        2.1468  -12.8323  -46.9050 H         1 UNK         0.3000 
    185 H185        4.1416  -14.9937  -45.4764 H         1 UNK         0.0600 
    186 H186        2.9254  -15.8961  -43.6698 H         1 UNK         0.0600 
    187 H187        1.3592  -15.5727  -44.4007 H         1 UNK         0.0600 
    188 H188        2.3997  -16.8390  -45.0503 H         1 UNK         0.0600 
    189 H189        1.6854  -15.3715  -47.0543 H         1 UNK         0.3000 
    190 H190       -2.5797  -22.4759  -44.6183 H         1 UNK         0.3000 
    191 H191       -5.2855  -23.5087  -44.3601 H         1 UNK         0.0600 
    192 H192       -2.9632  -23.4916  -42.3656 H         1 UNK         0.0600 
    193 H193       -4.6393  -23.8702  -41.9994 H         1 UNK         0.0600 
    194 H194       -4.2025  -22.2485  -42.5157 H         1 UNK         0.0600 
    195 H195       -1.9730  -24.9531  -44.1994 H         1 UNK         0.3000 
    196 H196       -3.0794  -27.6295  -43.8436 H         1 UNK         0.0600 
    197 H197       -0.7114  -28.2449  -43.5171 H         1 UNK         0.0600 
    198 H198       -1.1122  -26.8314  -42.5528 H         1 UNK         0.0600 
    199 H199       -0.1880  -26.6499  -44.0424 H         1 UNK         0.0600 
    200 H200       -1.2679  -25.9055  -46.4416 H         1 UNK         0.3000 
    201 H201       -1.3920  -28.3775  -48.1476 H         1 UNK         0.0600 
    202 H202        0.8561  -27.9173  -47.1438 H         1 UNK         0.0600 
    203 H203        0.8450  -26.3032  -47.8518 H         1 UNK         0.0600 
    204 H204        0.8800  -27.7265  -48.8875 H         1 UNK         0.0600 
    205 H205       -2.8209  -25.4755  -47.9710 H         1 UNK         0.3000 
    206 H206       -3.7126  -23.9409  -49.3312 H         1 UNK         0.0600 
    207 H207       -4.4595  -24.5909  -51.5735 H         1 UNK         0.0600 
    208 H208       -4.7135  -25.9222  -50.4612 H         1 UNK         0.0600 
    209 H209       -3.3658  -25.9664  -51.5939 H         1 UNK         0.0600 
    210 H210       -0.7020  -24.1480  -49.0484 H         1 UNK         0.3000 
    211 H211        1.2660  -23.5135  -49.8074 H         1 UNK         0.0600 
    212 H212        1.4650  -21.1630  -50.5264 H         1 UNK         0.0600 
    213 H213        0.2837  -21.3011  -49.2331 H         1 UNK         0.0600 
    214 H214       -0.2502  -21.1035  -50.8975 H         1 UNK         0.0600 
    215 H215        0.2909  -25.4511  -51.3846 H         1 UNK         0.3000 
    216 H216        0.5781  -26.5942  -53.2476 H         1 UNK         0.0600 
    217 H217        2.3774  -26.0777  -54.8362 H         1 UNK         0.0600 
    218 H218        2.9546  -25.8230  -53.1973 H         1 UNK         0.0600 
    219 H219        2.5356  -24.4440  -54.2129 H         1 UNK         0.0600 
    220 H220       -1.6725  -25.3385  -53.0545 H         1 UNK         0.3000 
    221 H221       -3.5580  -24.8947  -54.0804 H         1 UNK         0.0600 
    222 H222       -2.1891  -25.5015  -56.7474 H         1 UNK         0.0600 
    223 H223       -2.8767  -26.7098  -55.6622 H         1 UNK         0.0600 
    224 H224       -3.9152  -25.5164  -56.4212 H         1 UNK         0.0600 
    225 H225       -1.8734  -22.7087  -53.4361 H         1 UNK         0.3000 
    226 H226       -2.5839  -20.5652  -55.3428 H         1 UNK         0.0600 
    227 H227       -1.5180  -20.2800  -52.4969 H         1 UNK         0.0600 
    228 H228       -0.4551  -20.5119  -53.8870 H         1 UNK         0.0600 
    229 H229       -1.4932  -19.0982  -53.7935 H         1 UNK         0.0600 
    230 H230       -3.6613  -22.1188  -52.3755 H         1 UNK         0.3000 
    231 H231       -5.5743  -22.2044  -51.2355 H         1 UNK         0.0600 
    232 H232       -6.2333  -23.1872  -53.4227 H         1 UNK         0.0600 
    233 H233       -6.7785  -21.6097  -53.9893 H         1 UNK         0.0600 
    234 H234       -7.6044  -22.4044  -52.6536 H         1 UNK         0.0600 
    235 H235       -4.5013  -19.9229  -50.5477 H         1 UNK         0.3000 
    236 H236       -4.7742  -17.9662  -49.5578 H         1 UNK         0.0600 
    237 H237       -6.9033  -17.4684  -48.4459 H         1 UNK         0.0600 
    238 H238       -6.5775  -19.1891  -48.3356 H         1 UNK         0.0600 
    239 H239       -7.7671  -18.5879  -49.4904 H         1 UNK         0.0600 
    240 H240       -5.0062  -18.1239  -52.5478 H         1 UNK         0.3000 
    241 H241       -5.0880  -16.8047  -54.2845 H         1 UNK         0.0600 
    242 H242       -8.8821  -17.3207  -54.0839 H         1 UNK         0.3800 
    243 H243       -7.6586  -18.0763  -53.0918 H         1 UNK         0.3800 
    244 H244       -5.0123  -14.4017  -54.2248 H         1 UNK         0.0800 
    245 H245       -5.7823  -14.3236  -52.6692 H         1 UNK         0.0800 
    246 H246       -1.8262  -15.5219  -54.0485 H         1 UNK         0.0800 
    247 H247       -2.9868  -16.7846  -53.7497 H         1 UNK         0.0800 
@<TRIPOS>BOND
     1    1    2 1    
     2    1  127 1    
     3    1  128 1    
     4    1  129 1    
     5    2    3 2    
     6    2    4 am   BACKBONE|DICT|INTERRES
     7    4    5 1    
     8    4  130 1    
     9    5    6 1    
    10    5   65 1    
    11    5  131 1    
    12    6    7 1    
    13    6  132 1    
    14    6  133 1    
    15    7    8 1    
    16    8    9 1    
    17    8  134 1    
    18    8  135 1    
    19    9   10 ar   
    20    9   14 ar   
    21   10   11 ar   
    22   10  136 1    
    23   11   12 ar   
    24   11  126 1    
    25   12   13 ar   
    26   12  137 1    
    27   13   14 ar   
    28   13   15 1    
    29   14  138 1    
    30   15   16 1    
    31   15  139 1    
    32   15  140 1    
    33   16   17 1    
    34   17   18 1    
    35   17  141 1    
    36   17  142 1    
    37   18   19 1    
    38   18   67 1    
    39   18  143 1    
    40   19   20 am   BACKBONE|DICT|INTERRES
    41   19  144 1    
    42   20   21 2    
    43   20   22 1    
    44   22   23 1    
    45   22   24 1    
    46   22  145 1    
    47   23  146 1    
    48   23  147 1    
    49   23  148 1    
    50   24   25 am   BACKBONE|DICT|INTERRES
    51   24  149 1    
    52   25   26 2    
    53   25   27 1    
    54   27   28 1    
    55   27   29 1    
    56   27  150 1    
    57   28  151 1    
    58   28  152 1    
    59   28  153 1    
    60   29   30 am   BACKBONE|DICT|INTERRES
    61   29  154 1    
    62   30   31 2    
    63   30   32 1    
    64   32   33 1    
    65   32   34 1    
    66   32  155 1    
    67   33  156 1    
    68   33  157 1    
    69   33  158 1    
    70   34   35 am   BACKBONE|DICT|INTERRES
    71   34  159 1    
    72   35   36 2    
    73   35   37 1    
    74   37   38 1    
    75   37   39 1    
    76   37  160 1    
    77   38  161 1    
    78   38  162 1    
    79   38  163 1    
    80   39   40 am   BACKBONE|DICT|INTERRES
    81   39  164 1    
    82   40   41 2    
    83   40   42 1    
    84   42   43 1    
    85   42   44 1    
    86   42  165 1    
    87   43  166 1    
    88   43  167 1    
    89   43  168 1    
    90   44   45 am   BACKBONE|DICT|INTERRES
    91   44  169 1    
    92   45   46 2    
    93   45   47 1    
    94   47   48 1    
    95   47   49 1    
    96   47  170 1    
    97   48  171 1    
    98   48  172 1    
    99   48  173 1    
   100   49   50 am   BACKBONE|DICT|INTERRES
   101   49  174 1    
   102   50   51 2    
   103   50   52 1    
   104   52   53 1    
   105   52   54 1    
   106   52  175 1    
   107   53  176 1    
   108   53  177 1    
   109   53  178 1    
   110   54   55 am   BACKBONE|DICT|INTERRES
   111   54  179 1    
   112   55   56 2    
   113   55   57 1    
   114   57   58 1    
   115   57   59 1    
   116   57  180 1    
   117   58  181 1    
   118   58  182 1    
   119   58  183 1    
   120   59   60 am   BACKBONE|DICT|INTERRES
   121   59  184 1    
   122   60   61 2    
   123   60   62 1    
   124   62   63 1    
   125   62   64 1    
   126   62  185 1    
   127   63  186 1    
   128   63  187 1    
   129   63  188 1    
   130   64   65 am   BACKBONE|DICT|INTERRES
   131   64  189 1    
   132   65   66 2    
   133   67   68 2    
   134   67   69 am   BACKBONE|DICT|INTERRES
   135   69   70 1    
   136   69  190 1    
   137   70   71 1    
   138   70   72 1    
   139   70  191 1    
   140   71  192 1    
   141   71  193 1    
   142   71  194 1    
   143   72   73 2    
   144   72   74 am   BACKBONE|DICT|INTERRES
   145   74   75 1    
   146   74  195 1    
   147   75   76 1    
   148   75   77 1    
   149   75  196 1    
   150   76  197 1    
   151   76  198 1    
   152   76  199 1    
   153   77   78 2    
   154   77   79 am   BACKBONE|DICT|INTERRES
   155   79   80 1    
   156   79  200 1    
   157   80   81 1    
   158   80   82 1    
   159   80  201 1    
   160   81  202 1    
   161   81  203 1    
   162   81  204 1    
   163   82   83 2    
   164   82   84 am   BACKBONE|DICT|INTERRES
   165   84   85 1    
   166   84  205 1    
   167   85   86 1    
   168   85   87 1    
   169   85  206 1    
   170   86  207 1    
   171   86  208 1    
   172   86  209 1    
   173   87   88 2    
   174   87   89 am   BACKBONE|DICT|INTERRES
   175   89   90 1    
   176   89  210 1    
   177   90   91 1    
   178   90   92 1    
   179   90  211 1    
   180   91  212 1    
   181   91  213 1    
   182   91  214 1    
   183   92   93 2    
   184   92   94 am   BACKBONE|DICT|INTERRES
   185   94   95 1    
   186   94  215 1    
   187   95   96 1    
   188   95   97 1    
   189   95  216 1    
   190   96  217 1    
   191   96  218 1    
   192   96  219 1    
   193   97   98 2    
   194   97   99 am   BACKBONE|DICT|INTERRES
   195   99  100 1    
   196   99  220 1    
   197  100  101 1    
   198  100  102 1    
   199  100  221 1    
   200  101  222 1    
   201  101  223 1    
   202  101  224 1    
   203  102  103 2    
   204  102  104 am   BACKBONE|DICT|INTERRES
   205  104  105 1    
   206  104  225 1    
   207  105  106 1    
   208  105  107 1    
   209  105  226 1    
   210  106  227 1    
   211  106  228 1    
   212  106  229 1    
   213  107  108 2    
   214  107  109 am   BACKBONE|DICT|INTERRES
   215  109  110 1    
   216  109  230 1    
   217  110  111 1    
   218  110  112 1    
   219  110  231 1    
   220  111  232 1    
   221  111  233 1    
   222  111  234 1    
   223  112  113 2    
   224  112  114 am   BACKBONE|DICT|INTERRES
   225  114  115 1    
   226  114  235 1    
   227  115  116 1    
   228  115  117 1    
   229  115  236 1    
   230  116  237 1    
   231  116  238 1    
   232  116  239 1    
   233  117  118 2    
   234  117  119 am   BACKBONE|DICT|INTERRES
   235  119  120 1    
   236  119  240 1    
   237  120  121 1    
   238  120  124 1    
   239  120  241 1    
   240  121  122 am   BACKBONE|DICT|INTERRES
   241  121  123 2    
   242  122  242 1    
   243  122  243 1    
   244  124  125 1    
   245  124  244 1    
   246  124  245 1    
   247  125  126 1    
   248  126  246 1    
   249  126  247 1    
@<TRIPOS>SUBSTRUCTURE
     1 UNK         1 GROUP             0       ****    0 ROOT    
