@<TRIPOS>MOLECULE
3R540
247   249    1
SMALL
USER_CHARGES


@<TRIPOS>ATOM
      1 CA         -3.8767  -12.8889  -48.3677 C.3       0 UNK        -0.1800 
      2 C          -4.6794  -14.1798  -48.5130 C.2       0 UNK         0.5000 
      3 O          -5.8977  -14.1199  -48.6635 O.2       0 UNK        -0.5000 
      4 N          -4.0549  -15.3650  -48.4741 N.am      1 UNK        -0.5000 
      5 CA         -2.6164  -15.5999  -48.2767 C.3       1 UNK         0.1400 
      6 C6         -2.1510  -16.9137  -48.9536 C.3       23 UNK        -0.0398 
      7 S7         -2.1313  -16.7471  -50.7690 S.3       23 UNK        -0.2404 
      8 C8         -0.4738  -16.0421  -51.0521 C.3       23 UNK        -0.0205 
      9 C9          0.5924  -17.1200  -51.1725 C.ar      23 UNK        -0.0193 
     10 C10         0.9231  -17.6366  -52.4286 C.ar      23 UNK        -0.1150 
     11 C11         1.8942  -18.6342  -52.5526 C.ar      23 UNK        -0.0193 
     12 C12         2.5315  -19.1214  -51.4093 C.ar      23 UNK        -0.1150 
     13 C13         2.2073  -18.6146  -50.1480 C.ar      23 UNK        -0.0193 
     14 C14         1.2521  -17.6004  -50.0371 C.ar      23 UNK        -0.1150 
     15 C15         2.8724  -19.1832  -48.9048 C.3       23 UNK        -0.0205 
     16 S16         2.1558  -20.7940  -48.4560 S.3       23 UNK        -0.2404 
     17 C17         0.4633  -20.3053  -47.9825 C.3       23 UNK        -0.0398 
     18 CA         -0.2453  -21.4192  -47.1812 C.3       11 UNK         0.1400 
     19 N           0.3448  -21.6124  -45.8523 N.am      11 UNK        -0.5000 
     20 C           0.0654  -22.6435  -45.0441 C.2       10 UNK         0.5000 
     21 O          -0.7024  -23.5558  -45.3470 O.2       10 UNK        -0.5000 
     22 CA          0.7106  -22.6360  -43.6472 C.3       10 UNK         0.1400 
     23 CB          2.1712  -23.1059  -43.7155 C.3       10 UNK        -0.1800 
     24 N           0.6329  -21.3282  -42.9938 N.am      10 UNK        -0.5000 
     25 C          -0.5123  -20.7246  -42.6436 C.2       9 UNK         0.5000 
     26 O          -1.6232  -21.2272  -42.8069 O.2       9 UNK        -0.5000 
     27 CA         -0.4112  -19.3048  -42.0553 C.3       9 UNK         0.1400 
     28 CB         -0.0328  -19.3498  -40.5679 C.3       9 UNK        -0.1800 
     29 N           0.5377  -18.4582  -42.7755 N.am      9 UNK        -0.5000 
     30 C           0.4321  -18.1224  -44.0690 C.2       8 UNK         0.5000 
     31 O          -0.5070  -18.4564  -44.7916 O.2       8 UNK        -0.5000 
     32 CA          1.6137  -17.3398  -44.6662 C.3       8 UNK         0.1400 
     33 CB          1.5753  -15.8655  -44.2433 C.3       8 UNK        -0.1800 
     34 N           2.9015  -17.9163  -44.2809 N.am      8 UNK        -0.5000 
     35 C           3.3186  -19.1420  -44.6258 C.2       7 UNK         0.5000 
     36 O           2.6664  -19.9145  -45.3246 O.2       7 UNK        -0.5000 
     37 CA          4.6703  -19.5943  -44.0483 C.3       7 UNK         0.1400 
     38 CB          5.8338  -18.9969  -44.8538 C.3       7 UNK        -0.1800 
     39 N           4.8157  -19.2372  -42.6362 N.am      7 UNK        -0.5000 
     40 C           4.0762  -19.7601  -41.6477 C.2       6 UNK         0.5000 
     41 O           3.2132  -20.6197  -41.8192 O.2       6 UNK        -0.5000 
     42 CA          4.3107  -19.1951  -40.2358 C.3       6 UNK         0.1400 
     43 CB          5.4977  -19.8983  -39.5607 C.3       6 UNK        -0.1800 
     44 N           4.5278  -17.7457  -40.2206 N.am      6 UNK        -0.5000 
     45 C           3.6181  -16.8410  -40.6033 C.2       5 UNK         0.5000 
     46 O           2.5123  -17.1326  -41.0657 O.2       5 UNK        -0.5000 
     47 CA          4.0200  -15.3676  -40.4759 C.3       5 UNK         0.1400 
     48 CB          4.6593  -14.8560  -41.7782 C.3       5 UNK        -0.1800 
     49 N           2.8264  -14.5905  -40.1671 N.am      5 UNK        -0.5000 
     50 C           2.7922  -13.4393  -39.4904 C.2       4 UNK         0.5000 
     51 O           3.8041  -12.8563  -39.0954 O.2       4 UNK        -0.5000 
     52 CA          1.3924  -12.8406  -39.2230 C.3       4 UNK         0.1400 
     53 CB          1.4477  -11.5503  -38.3845 C.3       4 UNK        -0.1800 
     54 N           0.6622  -12.5612  -40.4619 N.am      4 UNK        -0.5000 
     55 C           0.0457  -13.4752  -41.2191 C.2       3 UNK         0.5000 
     56 O           0.0155  -14.6795  -40.9447 O.2       3 UNK        -0.5000 
     57 CA         -0.6306  -12.9654  -42.5011 C.3       3 UNK         0.1400 
     58 CB          0.4073  -12.4067  -43.4967 C.3       3 UNK        -0.1800 
     59 N          -1.3639  -14.0833  -43.0834 N.am      3 UNK        -0.5000 
     60 C          -2.2750  -14.0282  -44.0567 C.2       2 UNK         0.5000 
     61 O          -2.6236  -12.9890  -44.6222 O.2       2 UNK        -0.5000 
     62 CA         -2.9407  -15.3662  -44.4286 C.3       2 UNK         0.1400 
     63 CB         -4.2825  -15.5128  -43.6938 C.3       2 UNK        -0.1800 
     64 N          -3.1696  -15.4871  -45.8683 N.am      2 UNK        -0.5000 
     65 C          -2.2001  -15.5689  -46.7909 C.2       1 UNK         0.5000 
     66 O          -1.0019  -15.6082  -46.5157 O.2       1 UNK        -0.5000 
     67 C          -1.7671  -21.1748  -47.1117 C.2       11 UNK         0.5000 
     68 O          -2.5017  -21.7049  -47.9464 O.2       11 UNK        -0.5000 
     69 N          -2.2238  -20.4203  -46.1024 N.am      12 UNK        -0.5000 
     70 CA         -3.6422  -20.2034  -45.8176 C.3       12 UNK         0.1400 
     71 CB         -3.7923  -19.0901  -44.7748 C.3       12 UNK        -0.1800 
     72 C          -4.3622  -21.4848  -45.3583 C.2       12 UNK         0.5000 
     73 O          -5.4852  -21.7316  -45.7970 O.2       12 UNK        -0.5000 
     74 N          -3.6993  -22.2872  -44.5127 N.am      13 UNK        -0.5000 
     75 CA         -4.1874  -23.5846  -44.0395 C.3       13 UNK         0.1400 
     76 CB         -3.3056  -24.0807  -42.8836 C.3       13 UNK        -0.1800 
     77 C          -4.2635  -24.6371  -45.1610 C.2       13 UNK         0.5000 
     78 O          -5.2255  -25.4049  -45.2056 O.2       13 UNK        -0.5000 
     79 N          -3.2684  -24.6356  -46.0605 N.am      14 UNK        -0.5000 
     80 CA         -3.2413  -25.4516  -47.2769 C.3       14 UNK         0.1400 
     81 CB         -1.8467  -25.3691  -47.9158 C.3       14 UNK        -0.1800 
     82 C          -4.3220  -25.0383  -48.2942 C.2       14 UNK         0.5000 
     83 O          -4.8067  -25.8873  -49.0423 O.2       14 UNK        -0.5000 
     84 N          -4.6693  -23.7434  -48.3021 N.am      15 UNK        -0.5000 
     85 CA         -5.7355  -23.0585  -49.0434 C.3       15 UNK         0.1400 
     86 CB         -7.1168  -23.6447  -48.6994 C.3       15 UNK        -0.1800 
     87 C          -5.5352  -22.9739  -50.5675 C.2       15 UNK         0.5000 
     88 O          -6.0028  -22.0095  -51.1723 O.2       15 UNK        -0.5000 
     89 N          -4.8303  -23.9453  -51.1626 N.am      16 UNK        -0.5000 
     90 CA         -4.5274  -24.0439  -52.5926 C.3       16 UNK         0.1400 
     91 CB         -3.6827  -25.3015  -52.8439 C.3       16 UNK        -0.1800 
     92 C          -3.8219  -22.7989  -53.1596 C.2       16 UNK         0.5000 
     93 O          -4.1342  -22.3738  -54.2716 O.2       16 UNK        -0.5000 
     94 N          -2.9193  -22.2127  -52.3614 N.am      17 UNK        -0.5000 
     95 CA         -2.2033  -20.9742  -52.6620 C.3       17 UNK         0.1400 
     96 CB         -1.2490  -20.6592  -51.5007 C.3       17 UNK        -0.1800 
     97 C          -3.1540  -19.7929  -52.9265 C.2       17 UNK         0.5000 
     98 O          -3.0486  -19.1468  -53.9717 O.2       17 UNK        -0.5000 
     99 N          -4.1001  -19.5921  -51.9973 N.am      18 UNK        -0.5000 
    100 CA        -5.1422  -18.5656  -52.0505 C.3       18 UNK         0.1400 
    101 CB        -5.7767  -18.4239  -50.6583 C.3       18 UNK        -0.1800 
    102 C         -6.2159  -18.8573  -53.1149 C.2       18 UNK         0.5000 
    103 O         -6.7856  -17.9205  -53.6745 O.2       18 UNK        -0.5000 
    104 N         -6.4361  -20.1451  -53.4138 N.am      19 UNK        -0.5000 
    105 CA        -7.2839  -20.6399  -54.5028 C.3       19 UNK         0.1400 
    106 CB        -7.6873  -22.0929  -54.2055 C.3       19 UNK        -0.1800 
    107 C         -6.6338  -20.5130  -55.9008 C.2       19 UNK         0.5000 
    108 O         -7.2180  -20.9819  -56.8786 O.2       19 UNK        -0.5000 
    109 N         -5.4587  -19.8718  -55.9739 N.am      20 UNK        -0.5000 
    110 CA        -4.6992  -19.5103  -57.1697 C.3       20 UNK         0.1400 
    111 CB        -5.5385  -18.6678  -58.1548 C.3       20 UNK        -0.1800 
    112 C         -3.9711  -20.6926  -57.8350 C.2       20 UNK         0.5000 
    113 O         -3.7198  -20.6477  -59.0409 O.2       20 UNK        -0.5000 
    114 N         -3.5649  -21.6969  -57.0405 N.am      21 UNK        -0.5000 
    115 CA        -2.5770  -22.6999  -57.4613 C.3       21 UNK         0.1400 
    116 CB        -2.5872  -23.8979  -56.5004 C.3       21 UNK        -0.1800 
    117 C         -1.1566  -22.1029  -57.5614 C.2       21 UNK         0.5000 
    118 O         -0.3230  -22.6435  -58.2894 O.2       21 UNK        -0.5000 
    119 N         -0.9199  -20.9871  -56.8591 N.am      22 UNK        -0.5000 
    120 CA         0.2825  -20.1544  -56.9783 C.3       22 UNK         0.1400 
    121 C          0.0150  -18.6387  -56.7522 C.2       22 UNK         0.5000 
    122 N         -1.0362  -18.2231  -56.0503 N.am      22 UNK        -0.7600 
    123 O          0.7720  -17.8105  -57.2501 O.2       22 UNK        -0.5000 
    124 C124        1.4813  -20.6901  -56.1512 C.3       23 UNK        -0.0398 
    125 S125        1.2229  -20.6247  -54.3440 S.3       23 UNK        -0.2404 
    126 C126        2.2498  -19.1836  -53.9221 C.3       23 UNK        -0.0205 
    127 H127       -3.2876  -12.8896  -47.4509 H         1 UNK         0.0600 
    128 H128       -3.2078  -12.7547  -49.2177 H         1 UNK         0.0600 
    129 H129       -4.5433  -12.0271  -48.3296 H         1 UNK         0.0600 
    130 H130       -4.6127  -16.1980  -48.5901 H         1 UNK         0.3000 
    131 H131       -2.0625  -14.7839  -48.7432 H         1 UNK         0.0600 
    132 H132       -1.1573  -17.2103  -48.6213 H         1 UNK         0.0800 
    133 H133       -2.8070  -17.7423  -48.6823 H         1 UNK         0.0800 
    134 H134       -0.2170  -15.3433  -50.2549 H         1 UNK         0.0800 
    135 H135       -0.5023  -15.4519  -51.9693 H         1 UNK         0.0800 
    136 H136        0.4162  -17.2707  -53.3109 H         1 UNK         0.1150 
    137 H137        3.2687  -19.9071  -51.4983 H         1 UNK         0.1150 
    138 H138        1.0148  -17.1982  -49.0632 H         1 UNK         0.1150 
    139 H139        2.7834  -18.4965  -48.0613 H         1 UNK         0.0800 
    140 H140        3.9406  -19.3082  -49.0869 H         1 UNK         0.0800 
    141 H141       -0.0794  -20.0764  -48.9004 H         1 UNK         0.0800 
    142 H142        0.4978  -19.3809  -47.4029 H         1 UNK         0.0800 
    143 H143       -0.1140  -22.3547  -47.7295 H         1 UNK         0.0600 
    144 H144        1.0347  -20.9257  -45.5580 H         1 UNK         0.3000 
    145 H145        0.1601  -23.3466  -43.0274 H         1 UNK         0.0600 
    146 H146        2.6030  -23.1945  -42.7186 H         1 UNK         0.0600 
    147 H147        2.2442  -24.0855  -44.1894 H         1 UNK         0.0600 
    148 H148        2.7915  -22.4171  -44.2888 H         1 UNK         0.0600 
    149 H149        1.5157  -20.8733  -42.7814 H         1 UNK         0.3000 
    150 H150       -1.3958  -18.8405  -42.1405 H         1 UNK         0.0600 
    151 H151        0.9568  -19.7816  -40.4168 H         1 UNK         0.0600 
    152 H152       -0.7450  -19.9509  -40.0014 H         1 UNK         0.0600 
    153 H153       -0.0299  -18.3500  -40.1329 H         1 UNK         0.0600 
    154 H154        1.3308  -18.1105  -42.2431 H         1 UNK         0.3000 
    155 H155        1.5309  -17.3868  -45.7542 H         1 UNK         0.0600 
    156 H156        1.6493  -15.7467  -43.1626 H         1 UNK         0.0600 
    157 H157        0.6431  -15.3987  -44.5555 H         1 UNK         0.0600 
    158 H158        2.3871  -15.3012  -44.7020 H         1 UNK         0.0600 
    159 H159        3.4773  -17.3677  -43.6613 H         1 UNK         0.3000 
    160 H160        4.7214  -20.6820  -44.1317 H         1 UNK         0.0600 
    161 H161        5.8575  -17.9086  -44.7859 H         1 UNK         0.0600 
    162 H162        5.7504  -19.2584  -45.9097 H         1 UNK         0.0600 
    163 H163        6.7928  -19.3765  -44.5009 H         1 UNK         0.0600 
    164 H164        5.5028  -18.5348  -42.4065 H         1 UNK         0.3000 
    165 H165        3.4145  -19.4027  -39.6472 H         1 UNK         0.0600 
    166 H166        5.6136  -19.5719  -38.5270 H         1 UNK         0.0600 
    167 H167        6.4348  -19.7010  -40.0828 H         1 UNK         0.0600 
    168 H168        5.3524  -20.9793  -39.5440 H         1 UNK         0.0600 
    169 H169        5.4167  -17.4279  -39.8616 H         1 UNK         0.3000 
    170 H170        4.7360  -15.2735  -39.6566 H         1 UNK         0.0600 
    171 H171        5.5397  -15.4434  -42.0414 H         1 UNK         0.0600 
    172 H172        3.9639  -14.9089  -42.6161 H         1 UNK         0.0600 
    173 H173        4.9802  -13.8191  -41.6782 H         1 UNK         0.0600 
    174 H174        1.9490  -15.0188  -40.4538 H         1 UNK         0.3000 
    175 H175        0.8340  -13.5814  -38.6466 H         1 UNK         0.0600 
    176 H176        1.9861  -10.7553  -38.9020 H         1 UNK         0.0600 
    177 H177        0.4461  -11.1845  -38.1578 H         1 UNK         0.0600 
    178 H178        1.9505  -11.7232  -37.4320 H         1 UNK         0.0600 
    179 H179        0.6705  -11.6000  -40.7709 H         1 UNK         0.3000 
    180 H180       -1.3416  -12.1828  -42.2290 H         1 UNK         0.0600 
    181 H181        1.1839  -13.1361  -43.7239 H         1 UNK         0.0600 
    182 H182        0.9021  -11.5232  -43.0927 H         1 UNK         0.0600 
    183 H183       -0.0544  -12.1078  -44.4374 H         1 UNK         0.0600 
    184 H184       -1.1624  -14.9623  -42.6205 H         1 UNK         0.3000 
    185 H185       -2.2839  -16.1839  -44.1228 H         1 UNK         0.0600 
    186 H186       -4.7638  -16.4626  -43.9230 H         1 UNK         0.0600 
    187 H187       -4.1411  -15.4746  -42.6129 H         1 UNK         0.0600 
    188 H188       -4.9760  -14.7145  -43.9620 H         1 UNK         0.0600 
    189 H189       -4.1266  -15.4247  -46.1822 H         1 UNK         0.3000 
    190 H190       -1.5590  -19.9657  -45.4826 H         1 UNK         0.3000 
    191 H191       -4.1204  -19.8665  -46.7400 H         1 UNK         0.0600 
    192 H192       -4.8436  -18.8775  -44.5782 H         1 UNK         0.0600 
    193 H193       -3.3304  -18.1707  -45.1285 H         1 UNK         0.0600 
    194 H194       -3.3250  -19.3547  -43.8264 H         1 UNK         0.0600 
    195 H195       -2.8067  -21.9759  -44.1398 H         1 UNK         0.3000 
    196 H196       -5.1985  -23.4399  -43.6533 H         1 UNK         0.0600 
    197 H197       -2.2703  -24.2179  -43.1957 H         1 UNK         0.0600 
    198 H198       -3.3132  -23.3757  -42.0522 H         1 UNK         0.0600 
    199 H199       -3.6635  -25.0377  -42.5018 H         1 UNK         0.0600 
    200 H200       -2.4654  -24.0336  -45.8970 H         1 UNK         0.3000 
    201 H201       -3.4291  -26.4893  -46.9941 H         1 UNK         0.0600 
    202 H202       -1.5991  -24.3492  -48.2110 H         1 UNK         0.0600 
    203 H203       -1.7875  -25.9933  -48.8083 H         1 UNK         0.0600 
    204 H204       -1.0760  -25.7136  -47.2260 H         1 UNK         0.0600 
    205 H205       -4.1187  -23.1289  -47.7141 H         1 UNK         0.3000 
    206 H206       -5.7193  -22.0298  -48.6801 H         1 UNK         0.0600 
    207 H207       -7.2891  -23.6346  -47.6229 H         1 UNK         0.0600 
    208 H208       -7.9132  -23.0603  -49.1620 H         1 UNK         0.0600 
    209 H209       -7.2226  -24.6723  -49.0480 H         1 UNK         0.0600 
    210 H210       -4.5525  -24.7279  -50.5795 H         1 UNK         0.3000 
    211 H211       -5.4747  -24.1623  -53.1191 H         1 UNK         0.0600 
    212 H212       -3.4635  -25.4200  -53.9058 H         1 UNK         0.0600 
    213 H213       -4.2080  -26.2001  -52.5197 H         1 UNK         0.0600 
    214 H214       -2.7306  -25.2604  -52.3134 H         1 UNK         0.0600 
    215 H215       -2.7437  -22.6300  -51.4595 H         1 UNK         0.3000 
    216 H216       -1.6144  -21.1384  -53.5658 H         1 UNK         0.0600 
    217 H217       -1.7805  -20.5781  -50.5520 H         1 UNK         0.0600 
    218 H218       -0.7340  -19.7144  -51.6661 H         1 UNK         0.0600 
    219 H219       -0.4843  -21.4288  -51.3949 H         1 UNK         0.0600 
    220 H220       -4.1410  -20.2266  -51.2136 H         1 UNK         0.3000 
    221 H221       -4.6697  -17.6163  -52.3110 H         1 UNK         0.0600 
    222 H222       -5.0281  -18.1698  -49.9085 H         1 UNK         0.0600 
    223 H223       -6.2682  -19.3453  -50.3436 H         1 UNK         0.0600 
    224 H224       -6.5264  -17.6317  -50.6507 H         1 UNK         0.0600 
    225 H225       -5.9706  -20.8503  -52.8523 H         1 UNK         0.3000 
    226 H226       -8.1952  -20.0389  -54.5201 H         1 UNK         0.0600 
    227 H227       -6.8394  -22.7684  -54.3022 H         1 UNK         0.0600 
    228 H228       -8.0919  -22.1977  -53.1985 H         1 UNK         0.0600 
    229 H229       -8.4544  -22.4348  -54.9010 H         1 UNK         0.0600 
    230 H230       -5.0404  -19.5785  -55.1007 H         1 UNK         0.3000 
    231 H231       -3.9037  -18.8580  -56.8073 H         1 UNK         0.0600 
    232 H232       -6.3031  -19.2638  -58.6532 H         1 UNK         0.0600 
    233 H233       -4.9082  -18.2353  -58.9326 H         1 UNK         0.0600 
    234 H234       -6.0336  -17.8410  -57.6453 H         1 UNK         0.0600 
    235 H235       -3.8491  -21.7208  -56.0638 H         1 UNK         0.3000 
    236 H236       -2.8580  -23.0640  -58.4518 H         1 UNK         0.0600 
    237 H237       -3.5969  -24.2807  -56.3507 H         1 UNK         0.0600 
    238 H238       -1.9840  -24.7153  -56.8970 H         1 UNK         0.0600 
    239 H239       -2.1726  -23.6364  -55.5267 H         1 UNK         0.0600 
    240 H240       -1.6657  -20.6112  -56.2963 H         1 UNK         0.3000 
    241 H241        0.5868  -20.2084  -58.0259 H         1 UNK         0.0600 
    242 H242       -1.1686  -17.2288  -55.9582 H         1 UNK         0.3800 
    243 H243       -1.6297  -18.8322  -55.5054 H         1 UNK         0.3800 
    244 H244        2.3912  -20.1478  -56.4133 H         1 UNK         0.0800 
    245 H245        1.6781  -21.7278  -56.4224 H         1 UNK         0.0800 
    246 H246        2.1208  -18.4000  -54.6700 H         1 UNK         0.0800 
    247 H247        3.3026  -19.4680  -53.9544 H         1 UNK         0.0800 
@<TRIPOS>BOND
     1    1    2 1    
     2    1  127 1    
     3    1  128 1    
     4    1  129 1    
     5    2    3 2    
     6    2    4 am   BACKBONE|DICT|INTERRES
     7    4    5 1    
     8    4  130 1    
     9    5    6 1    
    10    5   65 1    
    11    5  131 1    
    12    6    7 1    
    13    6  132 1    
    14    6  133 1    
    15    7    8 1    
    16    8    9 1    
    17    8  134 1    
    18    8  135 1    
    19    9   10 ar   
    20    9   14 ar   
    21   10   11 ar   
    22   10  136 1    
    23   11   12 ar   
    24   11  126 1    
    25   12   13 ar   
    26   12  137 1    
    27   13   14 ar   
    28   13   15 1    
    29   14  138 1    
    30   15   16 1    
    31   15  139 1    
    32   15  140 1    
    33   16   17 1    
    34   17   18 1    
    35   17  141 1    
    36   17  142 1    
    37   18   19 1    
    38   18   67 1    
    39   18  143 1    
    40   19   20 am   BACKBONE|DICT|INTERRES
    41   19  144 1    
    42   20   21 2    
    43   20   22 1    
    44   22   23 1    
    45   22   24 1    
    46   22  145 1    
    47   23  146 1    
    48   23  147 1    
    49   23  148 1    
    50   24   25 am   BACKBONE|DICT|INTERRES
    51   24  149 1    
    52   25   26 2    
    53   25   27 1    
    54   27   28 1    
    55   27   29 1    
    56   27  150 1    
    57   28  151 1    
    58   28  152 1    
    59   28  153 1    
    60   29   30 am   BACKBONE|DICT|INTERRES
    61   29  154 1    
    62   30   31 2    
    63   30   32 1    
    64   32   33 1    
    65   32   34 1    
    66   32  155 1    
    67   33  156 1    
    68   33  157 1    
    69   33  158 1    
    70   34   35 am   BACKBONE|DICT|INTERRES
    71   34  159 1    
    72   35   36 2    
    73   35   37 1    
    74   37   38 1    
    75   37   39 1    
    76   37  160 1    
    77   38  161 1    
    78   38  162 1    
    79   38  163 1    
    80   39   40 am   BACKBONE|DICT|INTERRES
    81   39  164 1    
    82   40   41 2    
    83   40   42 1    
    84   42   43 1    
    85   42   44 1    
    86   42  165 1    
    87   43  166 1    
    88   43  167 1    
    89   43  168 1    
    90   44   45 am   BACKBONE|DICT|INTERRES
    91   44  169 1    
    92   45   46 2    
    93   45   47 1    
    94   47   48 1    
    95   47   49 1    
    96   47  170 1    
    97   48  171 1    
    98   48  172 1    
    99   48  173 1    
   100   49   50 am   BACKBONE|DICT|INTERRES
   101   49  174 1    
   102   50   51 2    
   103   50   52 1    
   104   52   53 1    
   105   52   54 1    
   106   52  175 1    
   107   53  176 1    
   108   53  177 1    
   109   53  178 1    
   110   54   55 am   BACKBONE|DICT|INTERRES
   111   54  179 1    
   112   55   56 2    
   113   55   57 1    
   114   57   58 1    
   115   57   59 1    
   116   57  180 1    
   117   58  181 1    
   118   58  182 1    
   119   58  183 1    
   120   59   60 am   BACKBONE|DICT|INTERRES
   121   59  184 1    
   122   60   61 2    
   123   60   62 1    
   124   62   63 1    
   125   62   64 1    
   126   62  185 1    
   127   63  186 1    
   128   63  187 1    
   129   63  188 1    
   130   64   65 am   BACKBONE|DICT|INTERRES
   131   64  189 1    
   132   65   66 2    
   133   67   68 2    
   134   67   69 am   BACKBONE|DICT|INTERRES
   135   69   70 1    
   136   69  190 1    
   137   70   71 1    
   138   70   72 1    
   139   70  191 1    
   140   71  192 1    
   141   71  193 1    
   142   71  194 1    
   143   72   73 2    
   144   72   74 am   BACKBONE|DICT|INTERRES
   145   74   75 1    
   146   74  195 1    
   147   75   76 1    
   148   75   77 1    
   149   75  196 1    
   150   76  197 1    
   151   76  198 1    
   152   76  199 1    
   153   77   78 2    
   154   77   79 am   BACKBONE|DICT|INTERRES
   155   79   80 1    
   156   79  200 1    
   157   80   81 1    
   158   80   82 1    
   159   80  201 1    
   160   81  202 1    
   161   81  203 1    
   162   81  204 1    
   163   82   83 2    
   164   82   84 am   BACKBONE|DICT|INTERRES
   165   84   85 1    
   166   84  205 1    
   167   85   86 1    
   168   85   87 1    
   169   85  206 1    
   170   86  207 1    
   171   86  208 1    
   172   86  209 1    
   173   87   88 2    
   174   87   89 am   BACKBONE|DICT|INTERRES
   175   89   90 1    
   176   89  210 1    
   177   90   91 1    
   178   90   92 1    
   179   90  211 1    
   180   91  212 1    
   181   91  213 1    
   182   91  214 1    
   183   92   93 2    
   184   92   94 am   BACKBONE|DICT|INTERRES
   185   94   95 1    
   186   94  215 1    
   187   95   96 1    
   188   95   97 1    
   189   95  216 1    
   190   96  217 1    
   191   96  218 1    
   192   96  219 1    
   193   97   98 2    
   194   97   99 am   BACKBONE|DICT|INTERRES
   195   99  100 1    
   196   99  220 1    
   197  100  101 1    
   198  100  102 1    
   199  100  221 1    
   200  101  222 1    
   201  101  223 1    
   202  101  224 1    
   203  102  103 2    
   204  102  104 am   BACKBONE|DICT|INTERRES
   205  104  105 1    
   206  104  225 1    
   207  105  106 1    
   208  105  107 1    
   209  105  226 1    
   210  106  227 1    
   211  106  228 1    
   212  106  229 1    
   213  107  108 2    
   214  107  109 am   BACKBONE|DICT|INTERRES
   215  109  110 1    
   216  109  230 1    
   217  110  111 1    
   218  110  112 1    
   219  110  231 1    
   220  111  232 1    
   221  111  233 1    
   222  111  234 1    
   223  112  113 2    
   224  112  114 am   BACKBONE|DICT|INTERRES
   225  114  115 1    
   226  114  235 1    
   227  115  116 1    
   228  115  117 1    
   229  115  236 1    
   230  116  237 1    
   231  116  238 1    
   232  116  239 1    
   233  117  118 2    
   234  117  119 am   BACKBONE|DICT|INTERRES
   235  119  120 1    
   236  119  240 1    
   237  120  121 1    
   238  120  124 1    
   239  120  241 1    
   240  121  122 am   BACKBONE|DICT|INTERRES
   241  121  123 2    
   242  122  242 1    
   243  122  243 1    
   244  124  125 1    
   245  124  244 1    
   246  124  245 1    
   247  125  126 1    
   248  126  246 1    
   249  126  247 1    
@<TRIPOS>SUBSTRUCTURE
     1 UNK         1 GROUP             0       ****    0 ROOT    
