@<TRIPOS>MOLECULE
3R540
247   249    1
SMALL
USER_CHARGES


@<TRIPOS>ATOM
      1 CA          5.9462  -18.4624  -45.1986 C.3       0 UNK        -0.1800 
      2 C           5.8254  -17.3126  -46.1883 C.2       0 UNK         0.5000 
      3 O           6.7146  -17.1234  -47.0175 O.2       0 UNK        -0.5000 
      4 N           4.7309  -16.5435  -46.1000 N.am      1 UNK        -0.5000 
      5 CA          4.4182  -15.3845  -46.9543 C.3       1 UNK         0.1400 
      6 C6          4.2410  -15.7622  -48.4581 C.3       23 UNK        -0.0398 
      7 S7          2.6495  -15.1834  -49.1455 S.3       23 UNK        -0.2404 
      8 C8          1.6926  -16.7312  -49.1092 C.3       23 UNK        -0.0205 
      9 C9          0.2584  -16.5331  -49.5728 C.ar      23 UNK        -0.0193 
     10 C10        -0.0816  -16.7063  -50.9169 C.ar      23 UNK        -0.1150 
     11 C11        -1.4070  -16.5607  -51.3390 C.ar      23 UNK        -0.0193 
     12 C12        -2.3959  -16.2478  -50.4020 C.ar      23 UNK        -0.1150 
     13 C13        -2.0724  -16.0756  -49.0528 C.ar      23 UNK        -0.0193 
     14 C14        -0.7376  -16.2051  -48.6498 C.ar      23 UNK        -0.1150 
     15 C15        -3.1711  -15.7226  -48.0543 C.3       23 UNK        -0.0205 
     16 S16        -3.0106  -16.5691  -46.4467 S.3       23 UNK        -0.2404 
     17 C17        -3.4988  -18.2806  -46.8308 C.3       23 UNK        -0.0398 
     18 CA         -2.3796  -19.1937  -47.4005 C.3       11 UNK         0.1400 
     19 N          -1.1722  -19.2828  -46.5602 N.am      11 UNK        -0.5000 
     20 C          -0.0984  -20.0380  -46.8507 C.2       10 UNK         0.5000 
     21 O          -0.0041  -20.7053  -47.8806 O.2       10 UNK        -0.5000 
     22 CA          1.0476  -20.1339  -45.8269 C.3       10 UNK         0.1400 
     23 CB          2.2387  -19.2618  -46.2449 C.3       10 UNK        -0.1800 
     24 N           0.6698  -19.8246  -44.4491 N.am      10 UNK        -0.5000 
     25 C          -0.1540  -20.5615  -43.6919 C.2       9 UNK         0.5000 
     26 O          -0.7271  -21.5760  -44.0920 O.2       9 UNK        -0.5000 
     27 CA         -0.3880  -20.0679  -42.2513 C.3       9 UNK         0.1400 
     28 CB          0.8070  -20.4150  -41.3502 C.3       9 UNK        -0.1800 
     29 N          -0.6335  -18.6277  -42.1973 N.am      9 UNK        -0.5000 
     30 C          -1.7449  -18.0382  -42.6597 C.2       8 UNK         0.5000 
     31 O          -2.7213  -18.6564  -43.0859 O.2       8 UNK        -0.5000 
     32 CA         -1.7532  -16.4977  -42.6841 C.3       8 UNK         0.1400 
     33 CB         -2.1932  -15.9387  -41.3228 C.3       8 UNK        -0.1800 
     34 N          -0.4666  -15.9067  -43.0644 N.am      8 UNK        -0.5000 
     35 C           0.1770  -16.1543  -44.2149 C.2       7 UNK         0.5000 
     36 O          -0.2207  -16.9337  -45.0750 O.2       7 UNK        -0.5000 
     37 CA          1.5384  -15.4817  -44.4190 C.3       7 UNK         0.1400 
     38 CB          1.3907  -13.9884  -44.7453 C.3       7 UNK        -0.1800 
     39 N           2.4264  -15.6636  -43.2758 N.am      7 UNK        -0.5000 
     40 C           2.8581  -16.8438  -42.8124 C.2       6 UNK         0.5000 
     41 O           2.6214  -17.9196  -43.3580 O.2       6 UNK        -0.5000 
     42 CA          3.6624  -16.8151  -41.5040 C.3       6 UNK         0.1400 
     43 CB          5.1311  -16.4468  -41.7689 C.3       6 UNK        -0.1800 
     44 N           3.0839  -15.8802  -40.5397 N.am      6 UNK        -0.5000 
     45 C           1.9086  -16.0617  -39.9204 C.2       5 UNK         0.5000 
     46 O           1.2048  -17.0625  -40.0639 O.2       5 UNK        -0.5000 
     47 CA          1.4286  -14.9129  -39.0141 C.3       5 UNK         0.1400 
     48 CB          2.0710  -15.0154  -37.6226 C.3       5 UNK        -0.1800 
     49 N           1.7088  -13.5919  -39.5822 N.am      5 UNK        -0.5000 
     50 C           1.0970  -13.0969  -40.6671 C.2       4 UNK         0.5000 
     51 O           0.2234  -13.6980  -41.2916 O.2       4 UNK        -0.5000 
     52 CA          1.5709  -11.7178  -41.1660 C.3       4 UNK         0.1400 
     53 CB          0.8831  -10.5935  -40.3771 C.3       4 UNK        -0.1800 
     54 N           3.0253  -11.5230  -41.1251 N.am      4 UNK        -0.5000 
     55 C           3.9195  -12.3088  -41.7390 C.2       3 UNK         0.5000 
     56 O           3.6210  -13.3533  -42.3191 O.2       3 UNK        -0.5000 
     57 CA          5.3972  -11.8823  -41.6603 C.3       3 UNK         0.1400 
     58 CB          6.0027  -12.3191  -40.3172 C.3       3 UNK        -0.1800 
     59 N           6.1874  -12.4749  -42.7422 N.am      3 UNK        -0.5000 
     60 C           6.0509  -12.1895  -44.0449 C.2       2 UNK         0.5000 
     61 O           5.3205  -11.2960  -44.4765 O.2       2 UNK        -0.5000 
     62 CA          6.8403  -13.0622  -45.0361 C.3       2 UNK         0.1400 
     63 CB          8.1072  -13.6977  -44.4283 C.3       2 UNK        -0.1800 
     64 N           5.9637  -14.1281  -45.5120 N.am      2 UNK        -0.5000 
     65 C           5.3545  -14.1737  -46.7048 C.2       1 UNK         0.5000 
     66 O           5.4952  -13.3108  -47.5729 O.2       1 UNK        -0.5000 
     67 C          -2.9871  -20.5800  -47.6998 C.2       11 UNK         0.5000 
     68 O          -3.3697  -20.8388  -48.8382 O.2       11 UNK        -0.5000 
     69 N          -3.0225  -21.4557  -46.6850 N.am      12 UNK        -0.5000 
     70 CA         -3.5468  -22.8190  -46.7817 C.3       12 UNK         0.1400 
     71 CB         -3.7762  -23.3603  -45.3624 C.3       12 UNK        -0.1800 
     72 C          -2.6452  -23.7769  -47.5851 C.2       12 UNK         0.5000 
     73 O          -3.1299  -24.8139  -48.0384 O.2       12 UNK        -0.5000 
     74 N          -1.3604  -23.4300  -47.7388 N.am      13 UNK        -0.5000 
     75 CA         -0.4003  -24.1667  -48.5572 C.3       13 UNK         0.1400 
     76 CB          1.0012  -24.0479  -47.9370 C.3       13 UNK        -0.1800 
     77 C          -0.4074  -23.6505  -50.0049 C.2       13 UNK         0.5000 
     78 O          -0.3809  -24.4569  -50.9345 O.2       13 UNK        -0.5000 
     79 N          -0.4490  -22.3202  -50.1685 N.am      14 UNK        -0.5000 
     80 CA         -0.4917  -21.6314  -51.4573 C.3       14 UNK         0.1400 
     81 CB         -0.2523  -20.1310  -51.2373 C.3       14 UNK        -0.1800 
     82 C          -1.8105  -21.8925  -52.2052 C.2       14 UNK         0.5000 
     83 O          -1.7854  -22.3282  -53.3568 O.2       14 UNK        -0.5000 
     84 N          -2.9392  -21.6938  -51.5147 N.am      15 UNK        -0.5000 
     85 CA         -4.2621  -22.1227  -51.9464 C.3       15 UNK         0.1400 
     86 CB         -5.3019  -21.0458  -51.5901 C.3       15 UNK        -0.1800 
     87 C          -4.5463  -23.4799  -51.2876 C.2       15 UNK         0.5000 
     88 O          -5.3520  -23.5661  -50.3595 O.2       15 UNK        -0.5000 
     89 N          -3.8381  -24.5108  -51.7699 N.am      16 UNK        -0.5000 
     90 CA         -3.9443  -25.9092  -51.3541 C.3       16 UNK         0.1400 
     91 CB         -3.0346  -26.7685  -52.2452 C.3       16 UNK        -0.1800 
     92 C          -5.3971  -26.4156  -51.4006 C.2       16 UNK         0.5000 
     93 O          -6.0080  -26.4191  -52.4729 O.2       16 UNK        -0.5000 
     94 N          -5.9278  -26.7661  -50.2197 N.am      17 UNK        -0.5000 
     95 CA         -7.3130  -27.1780  -49.9565 C.3       17 UNK         0.1400 
     96 CB         -7.5924  -28.5563  -50.5917 C.3       17 UNK        -0.1800 
     97 C          -8.3621  -26.1166  -50.3621 C.2       17 UNK         0.5000 
     98 O          -9.4928  -26.4727  -50.6983 O.2       17 UNK        -0.5000 
     99 N          -7.9573  -24.8362  -50.3691 N.am      18 UNK        -0.5000 
    100 CA        -8.6570  -23.6354  -50.8444 C.3       18 UNK         0.1400 
    101 CB        -9.9763  -23.4015  -50.0851 C.3       18 UNK        -0.1800 
    102 C         -8.8734  -23.5988  -52.3707 C.2       18 UNK         0.5000 
    103 O         -8.6550  -22.5548  -52.9854 O.2       18 UNK        -0.5000 
    104 N         -9.2768  -24.7345  -52.9530 N.am      19 UNK        -0.5000 
    105 CA        -9.6536  -24.9318  -54.3532 C.3       19 UNK         0.1400 
    106 CB       -10.0859  -26.3938  -54.5425 C.3       19 UNK        -0.1800 
    107 C         -8.5752  -24.5559  -55.3861 C.2       19 UNK         0.5000 
    108 O         -8.9296  -24.1573  -56.4964 O.2       19 UNK        -0.5000 
    109 N         -7.2905  -24.6729  -55.0171 N.am      20 UNK        -0.5000 
    110 CA        -6.1633  -24.2738  -55.8654 C.3       20 UNK         0.1400 
    111 CB        -4.8589  -24.8275  -55.2789 C.3       20 UNK        -0.1800 
    112 C         -6.0597  -22.7482  -56.0678 C.2       20 UNK         0.5000 
    113 O         -5.5311  -22.3172  -57.0932 O.2       20 UNK        -0.5000 
    114 N         -6.5631  -21.9670  -55.0967 N.am      21 UNK        -0.5000 
    115 CA        -6.7465  -20.5082  -55.1214 C.3       21 UNK         0.1400 
    116 CB        -7.9560  -20.1654  -56.0146 C.3       21 UNK        -0.1800 
    117 C         -5.4901  -19.6841  -55.4920 C.2       21 UNK         0.5000 
    118 O         -5.6189  -18.6090  -56.0803 O.2       21 UNK        -0.5000 
    119 N         -4.3023  -20.2090  -55.1598 N.am      22 UNK        -0.5000 
    120 CA        -2.9790  -19.6763  -55.5366 C.3       22 UNK         0.1400 
    121 C         -2.6594  -19.7654  -57.0632 C.2       22 UNK         0.5000 
    122 N         -3.3769  -20.5554  -57.8537 N.am      22 UNK        -0.7600 
    123 O         -1.7215  -19.1338  -57.5429 O.2       22 UNK        -0.5000 
    124 C124       -2.6838  -18.2666  -54.9464 C.3       23 UNK        -0.0398 
    125 S125       -2.7182  -18.2372  -53.1229 S.3       23 UNK        -0.2404 
    126 C126       -1.7663  -16.7176  -52.8090 C.3       23 UNK        -0.0205 
    127 H127        6.8515  -18.3504  -44.6019 H         1 UNK         0.0600 
    128 H128        6.0030  -19.4111  -45.7321 H         1 UNK         0.0600 
    129 H129        5.0953  -18.5070  -44.5193 H         1 UNK         0.0600 
    130 H130        4.0398  -16.7675  -45.3984 H         1 UNK         0.3000 
    131 H131        3.4575  -15.0278  -46.5913 H         1 UNK         0.0600 
    132 H132        5.0512  -15.3718  -49.0760 H         1 UNK         0.0800 
    133 H133        4.2929  -16.8431  -48.5946 H         1 UNK         0.0800 
    134 H134        1.6912  -17.1221  -48.0931 H         1 UNK         0.0800 
    135 H135        2.1840  -17.4823  -49.7298 H         1 UNK         0.0800 
    136 H136        0.6879  -16.9564  -51.6337 H         1 UNK         0.1150 
    137 H137       -3.4201  -16.1372  -50.7300 H         1 UNK         0.1150 
    138 H138       -0.4726  -16.0673  -47.6110 H         1 UNK         0.1150 
    139 H139       -3.1371  -14.6466  -47.8805 H         1 UNK         0.0800 
    140 H140       -4.1573  -15.9362  -48.4693 H         1 UNK         0.0800 
    141 H141       -4.3434  -18.2394  -47.5214 H         1 UNK         0.0800 
    142 H142       -3.8902  -18.7071  -45.9052 H         1 UNK         0.0800 
    143 H143       -2.0600  -18.7812  -48.3586 H         1 UNK         0.0600 
    144 H144       -1.1276  -18.6694  -45.7529 H         1 UNK         0.3000 
    145 H145        1.3847  -21.1725  -45.8424 H         1 UNK         0.0600 
    146 H146        3.1174  -19.4938  -45.6444 H         1 UNK         0.0600 
    147 H147        2.5075  -19.4268  -47.2891 H         1 UNK         0.0600 
    148 H148        2.0188  -18.2036  -46.1182 H         1 UNK         0.0600 
    149 H149        1.1162  -19.0106  -44.0382 H         1 UNK         0.3000 
    150 H150       -1.2682  -20.5818  -41.8594 H         1 UNK         0.0600 
    151 H151        1.0021  -21.4880  -41.3566 H         1 UNK         0.0600 
    152 H152        0.6177  -20.1238  -40.3168 H         1 UNK         0.0600 
    153 H153        1.7188  -19.9127  -41.6750 H         1 UNK         0.0600 
    154 H154        0.1118  -18.0463  -41.8347 H         1 UNK         0.3000 
    155 H155       -2.4866  -16.1872  -43.4304 H         1 UNK         0.0600 
    156 H156       -1.4660  -16.1642  -40.5421 H         1 UNK         0.0600 
    157 H157       -3.1499  -16.3628  -41.0153 H         1 UNK         0.0600 
    158 H158       -2.3165  -14.8564  -41.3630 H         1 UNK         0.0600 
    159 H159       -0.0728  -15.2296  -42.4165 H         1 UNK         0.3000 
    160 H160        1.9973  -15.9739  -45.2742 H         1 UNK         0.0600 
    161 H161        0.9127  -13.4431  -43.9320 H         1 UNK         0.0600 
    162 H162        0.7831  -13.8446  -45.6398 H         1 UNK         0.0600 
    163 H163        2.3600  -13.5246  -44.9297 H         1 UNK         0.0600 
    164 H164        2.7231  -14.8162  -42.7935 H         1 UNK         0.3000 
    165 H165        3.6335  -17.8169  -41.0701 H         1 UNK         0.0600 
    166 H166        5.7084  -16.4434  -40.8443 H         1 UNK         0.0600 
    167 H167        5.5988  -17.1694  -42.4379 H         1 UNK         0.0600 
    168 H168        5.2307  -15.4634  -42.2281 H         1 UNK         0.0600 
    169 H169        3.5648  -15.0021  -40.4142 H         1 UNK         0.3000 
    170 H170        0.3472  -15.0122  -38.8974 H         1 UNK         0.0600 
    171 H171        1.8644  -15.9855  -37.1685 H         1 UNK         0.0600 
    172 H172        3.1544  -14.8978  -37.6675 H         1 UNK         0.0600 
    173 H173        1.6778  -14.2528  -36.9501 H         1 UNK         0.0600 
    174 H174        2.4202  -13.0360  -39.1311 H         1 UNK         0.3000 
    175 H175        1.2645  -11.6310  -42.2104 H         1 UNK         0.0600 
    176 H176        1.1862  -10.5921  -39.3294 H         1 UNK         0.0600 
    177 H177        1.1190   -9.6154  -40.7967 H         1 UNK         0.0600 
    178 H178       -0.2019  -10.7037  -40.4051 H         1 UNK         0.0600 
    179 H179        3.3510  -10.6938  -40.6496 H         1 UNK         0.3000 
    180 H180        5.4538  -10.7951  -41.7438 H         1 UNK         0.0600 
    181 H181        5.9665  -13.4023  -40.1921 H         1 UNK         0.0600 
    182 H182        5.4655  -11.8737  -39.4789 H         1 UNK         0.0600 
    183 H183        7.0439  -12.0069  -40.2344 H         1 UNK         0.0600 
    184 H184        6.8001  -13.2322  -42.4811 H         1 UNK         0.3000 
    185 H185        7.1515  -12.4187  -45.8616 H         1 UNK         0.0600 
    186 H186        8.7587  -12.9383  -43.9937 H         1 UNK         0.0600 
    187 H187        7.8755  -14.4274  -43.6515 H         1 UNK         0.0600 
    188 H188        8.6841  -14.2135  -45.1962 H         1 UNK         0.0600 
    189 H189        5.7598  -14.8639  -44.8528 H         1 UNK         0.3000 
    190 H190       -2.6359  -21.1818  -45.7912 H         1 UNK         0.3000 
    191 H191       -4.5112  -22.7784  -47.2930 H         1 UNK         0.0600 
    192 H192       -2.8445  -23.4112  -44.7972 H         1 UNK         0.0600 
    193 H193       -4.1994  -24.3652  -45.3901 H         1 UNK         0.0600 
    194 H194       -4.4718  -22.7309  -44.8072 H         1 UNK         0.0600 
    195 H195       -1.0516  -22.5403  -47.3701 H         1 UNK         0.3000 
    196 H196       -0.6672  -25.2257  -48.5748 H         1 UNK         0.0600 
    197 H197        1.7288  -24.6228  -48.5110 H         1 UNK         0.0600 
    198 H198        1.0137  -24.4332  -46.9173 H         1 UNK         0.0600 
    199 H199        1.3506  -23.0157  -47.9085 H         1 UNK         0.0600 
    200 H200       -0.4166  -21.7263  -49.3430 H         1 UNK         0.3000 
    201 H201        0.3246  -22.0173  -52.0712 H         1 UNK         0.0600 
    202 H202        0.6913  -19.9515  -50.7217 H         1 UNK         0.0600 
    203 H203       -1.0459  -19.6761  -50.6428 H         1 UNK         0.0600 
    204 H204       -0.2064  -19.6019  -52.1893 H         1 UNK         0.0600 
    205 H205       -2.8868  -21.3679  -50.5516 H         1 UNK         0.3000 
    206 H206       -4.2903  -22.2614  -53.0281 H         1 UNK         0.0600 
    207 H207       -5.0610  -20.0947  -52.0649 H         1 UNK         0.0600 
    208 H208       -6.2951  -21.3387  -51.9304 H         1 UNK         0.0600 
    209 H209       -5.3647  -20.8745  -50.5157 H         1 UNK         0.0600 
    210 H210       -3.1622  -24.3207  -52.4964 H         1 UNK         0.3000 
    211 H211       -3.5735  -25.9778  -50.3309 H         1 UNK         0.0600 
    212 H212       -3.3226  -26.7072  -53.2952 H         1 UNK         0.0600 
    213 H213       -3.0815  -27.8182  -51.9527 H         1 UNK         0.0600 
    214 H214       -1.9934  -26.4556  -52.1643 H         1 UNK         0.0600 
    215 H215       -5.3446  -26.6767  -49.3983 H         1 UNK         0.3000 
    216 H216       -7.3999  -27.2880  -48.8748 H         1 UNK         0.0600 
    217 H217       -8.5648  -28.9416  -50.2826 H         1 UNK         0.0600 
    218 H218       -6.8448  -29.2892  -50.2887 H         1 UNK         0.0600 
    219 H219       -7.5919  -28.5072  -51.6811 H         1 UNK         0.0600 
    220 H220       -6.9849  -24.6598  -50.1314 H         1 UNK         0.3000 
    221 H221       -7.9963  -22.8008  -50.6054 H         1 UNK         0.0600 
    222 H222      -10.7170  -24.1721  -50.2995 H         1 UNK         0.0600 
    223 H223       -9.8126  -23.3828  -49.0077 H         1 UNK         0.0600 
    224 H224      -10.4171  -22.4436  -50.3637 H         1 UNK         0.0600 
    225 H225       -9.4211  -25.5278  -52.3346 H         1 UNK         0.3000 
    226 H226      -10.5176  -24.2925  -54.5446 H         1 UNK         0.0600 
    227 H227      -10.9258  -26.6443  -53.8941 H         1 UNK         0.0600 
    228 H228      -10.4021  -26.5808  -55.5696 H         1 UNK         0.0600 
    229 H229       -9.2714  -27.0836  -54.3170 H         1 UNK         0.0600 
    230 H230       -7.0737  -25.0539  -54.1042 H         1 UNK         0.3000 
    231 H231       -6.3057  -24.7245  -56.8499 H         1 UNK         0.0600 
    232 H232       -4.8997  -25.9122  -55.1778 H         1 UNK         0.0600 
    233 H233       -4.6578  -24.4059  -54.2972 H         1 UNK         0.0600 
    234 H234       -4.0082  -24.5904  -55.9190 H         1 UNK         0.0600 
    235 H235       -7.0257  -22.4298  -54.3224 H         1 UNK         0.3000 
    236 H236       -7.0022  -20.2183  -54.1016 H         1 UNK         0.0600 
    237 H237       -7.7568  -20.3921  -57.0627 H         1 UNK         0.0600 
    238 H238       -8.8388  -20.7294  -55.7124 H         1 UNK         0.0600 
    239 H239       -8.2119  -19.1074  -55.9479 H         1 UNK         0.0600 
    240 H240       -4.2908  -21.1075  -54.7042 H         1 UNK         0.3000 
    241 H241       -2.2598  -20.3590  -55.0854 H         1 UNK         0.0600 
    242 H242       -4.1507  -21.1085  -57.4927 H         1 UNK         0.3800 
    243 H243       -3.1486  -20.6080  -58.8334 H         1 UNK         0.3800 
    244 H244       -3.3837  -17.5229  -55.3279 H         1 UNK         0.0800 
    245 H245       -1.6933  -17.9338  -55.2598 H         1 UNK         0.0800 
    246 H246       -2.3486  -15.8547  -53.1354 H         1 UNK         0.0800 
    247 H247       -0.8592  -16.7249  -53.4151 H         1 UNK         0.0800 
@<TRIPOS>BOND
     1    1    2 1    
     2    1  127 1    
     3    1  128 1    
     4    1  129 1    
     5    2    3 2    
     6    2    4 am   BACKBONE|DICT|INTERRES
     7    4    5 1    
     8    4  130 1    
     9    5    6 1    
    10    5   65 1    
    11    5  131 1    
    12    6    7 1    
    13    6  132 1    
    14    6  133 1    
    15    7    8 1    
    16    8    9 1    
    17    8  134 1    
    18    8  135 1    
    19    9   10 ar   
    20    9   14 ar   
    21   10   11 ar   
    22   10  136 1    
    23   11   12 ar   
    24   11  126 1    
    25   12   13 ar   
    26   12  137 1    
    27   13   14 ar   
    28   13   15 1    
    29   14  138 1    
    30   15   16 1    
    31   15  139 1    
    32   15  140 1    
    33   16   17 1    
    34   17   18 1    
    35   17  141 1    
    36   17  142 1    
    37   18   19 1    
    38   18   67 1    
    39   18  143 1    
    40   19   20 am   BACKBONE|DICT|INTERRES
    41   19  144 1    
    42   20   21 2    
    43   20   22 1    
    44   22   23 1    
    45   22   24 1    
    46   22  145 1    
    47   23  146 1    
    48   23  147 1    
    49   23  148 1    
    50   24   25 am   BACKBONE|DICT|INTERRES
    51   24  149 1    
    52   25   26 2    
    53   25   27 1    
    54   27   28 1    
    55   27   29 1    
    56   27  150 1    
    57   28  151 1    
    58   28  152 1    
    59   28  153 1    
    60   29   30 am   BACKBONE|DICT|INTERRES
    61   29  154 1    
    62   30   31 2    
    63   30   32 1    
    64   32   33 1    
    65   32   34 1    
    66   32  155 1    
    67   33  156 1    
    68   33  157 1    
    69   33  158 1    
    70   34   35 am   BACKBONE|DICT|INTERRES
    71   34  159 1    
    72   35   36 2    
    73   35   37 1    
    74   37   38 1    
    75   37   39 1    
    76   37  160 1    
    77   38  161 1    
    78   38  162 1    
    79   38  163 1    
    80   39   40 am   BACKBONE|DICT|INTERRES
    81   39  164 1    
    82   40   41 2    
    83   40   42 1    
    84   42   43 1    
    85   42   44 1    
    86   42  165 1    
    87   43  166 1    
    88   43  167 1    
    89   43  168 1    
    90   44   45 am   BACKBONE|DICT|INTERRES
    91   44  169 1    
    92   45   46 2    
    93   45   47 1    
    94   47   48 1    
    95   47   49 1    
    96   47  170 1    
    97   48  171 1    
    98   48  172 1    
    99   48  173 1    
   100   49   50 am   BACKBONE|DICT|INTERRES
   101   49  174 1    
   102   50   51 2    
   103   50   52 1    
   104   52   53 1    
   105   52   54 1    
   106   52  175 1    
   107   53  176 1    
   108   53  177 1    
   109   53  178 1    
   110   54   55 am   BACKBONE|DICT|INTERRES
   111   54  179 1    
   112   55   56 2    
   113   55   57 1    
   114   57   58 1    
   115   57   59 1    
   116   57  180 1    
   117   58  181 1    
   118   58  182 1    
   119   58  183 1    
   120   59   60 am   BACKBONE|DICT|INTERRES
   121   59  184 1    
   122   60   61 2    
   123   60   62 1    
   124   62   63 1    
   125   62   64 1    
   126   62  185 1    
   127   63  186 1    
   128   63  187 1    
   129   63  188 1    
   130   64   65 am   BACKBONE|DICT|INTERRES
   131   64  189 1    
   132   65   66 2    
   133   67   68 2    
   134   67   69 am   BACKBONE|DICT|INTERRES
   135   69   70 1    
   136   69  190 1    
   137   70   71 1    
   138   70   72 1    
   139   70  191 1    
   140   71  192 1    
   141   71  193 1    
   142   71  194 1    
   143   72   73 2    
   144   72   74 am   BACKBONE|DICT|INTERRES
   145   74   75 1    
   146   74  195 1    
   147   75   76 1    
   148   75   77 1    
   149   75  196 1    
   150   76  197 1    
   151   76  198 1    
   152   76  199 1    
   153   77   78 2    
   154   77   79 am   BACKBONE|DICT|INTERRES
   155   79   80 1    
   156   79  200 1    
   157   80   81 1    
   158   80   82 1    
   159   80  201 1    
   160   81  202 1    
   161   81  203 1    
   162   81  204 1    
   163   82   83 2    
   164   82   84 am   BACKBONE|DICT|INTERRES
   165   84   85 1    
   166   84  205 1    
   167   85   86 1    
   168   85   87 1    
   169   85  206 1    
   170   86  207 1    
   171   86  208 1    
   172   86  209 1    
   173   87   88 2    
   174   87   89 am   BACKBONE|DICT|INTERRES
   175   89   90 1    
   176   89  210 1    
   177   90   91 1    
   178   90   92 1    
   179   90  211 1    
   180   91  212 1    
   181   91  213 1    
   182   91  214 1    
   183   92   93 2    
   184   92   94 am   BACKBONE|DICT|INTERRES
   185   94   95 1    
   186   94  215 1    
   187   95   96 1    
   188   95   97 1    
   189   95  216 1    
   190   96  217 1    
   191   96  218 1    
   192   96  219 1    
   193   97   98 2    
   194   97   99 am   BACKBONE|DICT|INTERRES
   195   99  100 1    
   196   99  220 1    
   197  100  101 1    
   198  100  102 1    
   199  100  221 1    
   200  101  222 1    
   201  101  223 1    
   202  101  224 1    
   203  102  103 2    
   204  102  104 am   BACKBONE|DICT|INTERRES
   205  104  105 1    
   206  104  225 1    
   207  105  106 1    
   208  105  107 1    
   209  105  226 1    
   210  106  227 1    
   211  106  228 1    
   212  106  229 1    
   213  107  108 2    
   214  107  109 am   BACKBONE|DICT|INTERRES
   215  109  110 1    
   216  109  230 1    
   217  110  111 1    
   218  110  112 1    
   219  110  231 1    
   220  111  232 1    
   221  111  233 1    
   222  111  234 1    
   223  112  113 2    
   224  112  114 am   BACKBONE|DICT|INTERRES
   225  114  115 1    
   226  114  235 1    
   227  115  116 1    
   228  115  117 1    
   229  115  236 1    
   230  116  237 1    
   231  116  238 1    
   232  116  239 1    
   233  117  118 2    
   234  117  119 am   BACKBONE|DICT|INTERRES
   235  119  120 1    
   236  119  240 1    
   237  120  121 1    
   238  120  124 1    
   239  120  241 1    
   240  121  122 am   BACKBONE|DICT|INTERRES
   241  121  123 2    
   242  122  242 1    
   243  122  243 1    
   244  124  125 1    
   245  124  244 1    
   246  124  245 1    
   247  125  126 1    
   248  126  246 1    
   249  126  247 1    
@<TRIPOS>SUBSTRUCTURE
     1 UNK         1 GROUP             0       ****    0 ROOT    
