@<TRIPOS>MOLECULE
3R540
247   249    1
SMALL
USER_CHARGES


@<TRIPOS>ATOM
      1 CA          5.1735  -12.4872  -44.2697 C.3       0 UNK        -0.1800 
      2 C           5.6120  -13.2007  -45.5402 C.2       0 UNK         0.5000 
      3 O           6.8029  -13.4603  -45.7191 O.2       0 UNK        -0.5000 
      4 N           4.6604  -13.5123  -46.4285 N.am      1 UNK        -0.5000 
      5 CA          4.8646  -14.2228  -47.6950 C.3       1 UNK         0.1400 
      6 C6          3.7459  -13.9305  -48.7314 C.3       23 UNK        -0.0398 
      7 S7          2.0423  -13.9665  -48.0732 S.3       23 UNK        -0.2404 
      8 C8          1.1092  -13.3780  -49.5279 C.3       23 UNK        -0.0205 
      9 C9          0.3092  -14.4641  -50.2439 C.ar      23 UNK        -0.0193 
     10 C10        -0.9274  -14.1340  -50.8044 C.ar      23 UNK        -0.1150 
     11 C11        -1.6869  -15.0914  -51.4800 C.ar      23 UNK        -0.0193 
     12 C12        -1.2078  -16.4003  -51.5804 C.ar      23 UNK        -0.1150 
     13 C13         0.0231  -16.7569  -51.0205 C.ar      23 UNK        -0.0193 
     14 C14         0.7866  -15.7735  -50.3763 C.ar      23 UNK        -0.1150 
     15 C15         0.4978  -18.2066  -51.1465 C.3       23 UNK        -0.0205 
     16 S16         1.6198  -18.7832  -49.8224 S.3       23 UNK        -0.2404 
     17 C17         0.6049  -18.5114  -48.3310 C.3       23 UNK        -0.0398 
     18 CA          0.0972  -19.8157  -47.6763 C.3       11 UNK         0.1400 
     19 N          -0.3482  -19.5761  -46.3033 N.am      11 UNK        -0.5000 
     20 C          -0.7214  -20.5223  -45.4324 C.2       10 UNK         0.5000 
     21 O          -0.6742  -21.7285  -45.6681 O.2       10 UNK        -0.5000 
     22 CA         -1.2906  -20.0391  -44.0890 C.3       10 UNK         0.1400 
     23 CB         -0.1784  -19.8084  -43.0606 C.3       10 UNK        -0.1800 
     24 N          -2.0906  -18.8238  -44.2329 N.am      10 UNK        -0.5000 
     25 C          -3.3044  -18.7938  -44.7981 C.2       9 UNK         0.5000 
     26 O          -3.8814  -19.7904  -45.2346 O.2       9 UNK        -0.5000 
     27 CA         -3.9618  -17.4096  -44.9319 C.3       9 UNK         0.1400 
     28 CB         -4.5139  -16.9325  -43.5801 C.3       9 UNK        -0.1800 
     29 N          -3.0427  -16.4043  -45.4657 N.am      9 UNK        -0.5000 
     30 C          -2.5424  -16.4270  -46.7090 C.2       8 UNK         0.5000 
     31 O          -2.7959  -17.3040  -47.5324 O.2       8 UNK        -0.5000 
     32 CA         -1.5650  -15.3027  -47.0905 C.3       8 UNK         0.1400 
     33 CB         -2.3376  -14.0712  -47.5841 C.3       8 UNK        -0.1800 
     34 N          -0.6551  -14.8940  -46.0200 N.am      8 UNK        -0.5000 
     35 C           0.1606  -15.6949  -45.3207 C.2       7 UNK         0.5000 
     36 O           0.1629  -16.9223  -45.4181 O.2       7 UNK        -0.5000 
     37 CA          1.1449  -15.0167  -44.3459 C.3       7 UNK         0.1400 
     38 CB          1.0650  -13.4732  -44.3310 C.3       7 UNK        -0.1800 
     39 N           1.0248  -15.5144  -42.9770 N.am      7 UNK        -0.5000 
     40 C          -0.0807  -15.5701  -42.2174 C.2       6 UNK         0.5000 
     41 O          -1.2202  -15.3492  -42.6312 O.2       6 UNK        -0.5000 
     42 CA          0.1277  -15.8800  -40.7205 C.3       6 UNK         0.1400 
     43 CB         -0.1039  -17.3672  -40.4265 C.3       6 UNK        -0.1800 
     44 N           1.4590  -15.5026  -40.2411 N.am      6 UNK        -0.5000 
     45 C           1.9008  -14.2423  -40.1140 C.2       5 UNK         0.5000 
     46 O           1.1893  -13.2504  -40.2760 O.2       5 UNK        -0.5000 
     47 CA          3.3910  -14.0535  -39.7632 C.3       5 UNK         0.1400 
     48 CB          3.5538  -13.7028  -38.2761 C.3       5 UNK        -0.1800 
     49 N           4.2211  -15.2233  -40.0678 N.am      5 UNK        -0.5000 
     50 C           4.4987  -15.6749  -41.2987 C.2       4 UNK         0.5000 
     51 O           4.1029  -15.1194  -42.3260 O.2       4 UNK        -0.5000 
     52 CA          5.3627  -16.9542  -41.3871 C.3       4 UNK         0.1400 
     53 CB          5.1462  -17.9165  -40.1972 C.3       4 UNK        -0.1800 
     54 N           5.1990  -17.6823  -42.6491 N.am      4 UNK        -0.5000 
     55 C           4.0704  -18.1837  -43.1702 C.2       3 UNK         0.5000 
     56 O           2.9648  -18.0762  -42.6359 O.2       3 UNK        -0.5000 
     57 CA          4.2210  -18.9416  -44.5089 C.3       3 UNK         0.1400 
     58 CB          2.8743  -19.3234  -45.1405 C.3       3 UNK        -0.1800 
     59 N           4.9993  -18.2006  -45.5023 N.am      3 UNK        -0.5000 
     60 C           6.3318  -18.1198  -45.5611 C.2       2 UNK         0.5000 
     61 O           7.0756  -18.6125  -44.7119 O.2       2 UNK        -0.5000 
     62 CA          6.9439  -17.3499  -46.7449 C.3       2 UNK         0.1400 
     63 CB          6.9723  -18.2185  -48.0171 C.3       2 UNK        -0.1800 
     64 N           6.3393  -16.0376  -47.0038 N.am      2 UNK        -0.5000 
     65 C           5.1179  -15.7280  -47.4604 C.2       1 UNK         0.5000 
     66 O           4.2305  -16.5557  -47.6719 O.2       1 UNK        -0.5000 
     67 C          -1.0058  -20.4974  -48.5131 C.2       11 UNK         0.5000 
     68 O          -0.7358  -21.5061  -49.1643 O.2       11 UNK        -0.5000 
     69 N          -2.2388  -19.9747  -48.4319 N.am      12 UNK        -0.5000 
     70 CA         -3.4260  -20.5561  -49.0559 C.3       12 UNK         0.1400 
     71 CB         -4.6171  -19.6044  -48.8891 C.3       12 UNK        -0.1800 
     72 C          -3.7606  -21.9473  -48.4939 C.2       12 UNK         0.5000 
     73 O          -4.0329  -22.8587  -49.2727 O.2       12 UNK        -0.5000 
     74 N          -3.6994  -22.1048  -47.1627 N.am      13 UNK        -0.5000 
     75 CA         -3.9147  -23.3807  -46.4759 C.3       13 UNK         0.1400 
     76 CB         -3.8770  -23.1768  -44.9545 C.3       13 UNK        -0.1800 
     77 C          -2.9173  -24.4692  -46.9151 C.2       13 UNK         0.5000 
     78 O          -3.3391  -25.5805  -47.2418 O.2       13 UNK        -0.5000 
     79 N          -1.6266  -24.1074  -46.9662 N.am      14 UNK        -0.5000 
     80 CA         -0.5326  -24.9490  -47.4534 C.3       14 UNK         0.1400 
     81 CB          0.8086  -24.2433  -47.2023 C.3       14 UNK        -0.1800 
     82 C          -0.6787  -25.3263  -48.9389 C.2       14 UNK         0.5000 
     83 O          -0.3784  -26.4627  -49.3080 O.2       14 UNK        -0.5000 
     84 N          -1.1891  -24.3960  -49.7564 N.am      15 UNK        -0.5000 
     85 CA         -1.5390  -24.5882  -51.1647 C.3       15 UNK         0.1400 
     86 CB         -1.5514  -23.2209  -51.8665 C.3       15 UNK        -0.1800 
     87 C          -2.8653  -25.3627  -51.3390 C.2       15 UNK         0.5000 
     88 O          -3.7858  -24.8846  -52.0065 O.2       15 UNK        -0.5000 
     89 N          -2.9203  -26.5559  -50.7296 N.am      16 UNK        -0.5000 
     90 CA         -3.9801  -27.5648  -50.7954 C.3       16 UNK         0.1400 
     91 CB         -3.9270  -28.2879  -52.1563 C.3       16 UNK        -0.1800 
     92 C          -5.3822  -27.0252  -50.4435 C.2       16 UNK         0.5000 
     93 O          -6.3469  -27.3101  -51.1555 O.2       16 UNK        -0.5000 
     94 N          -5.4608  -26.2611  -49.3428 N.am      17 UNK        -0.5000 
     95 CA         -6.6685  -25.6244  -48.8056 C.3       17 UNK         0.1400 
     96 CB         -7.6592  -26.6834  -48.2772 C.3       17 UNK        -0.1800 
     97 C          -7.3058  -24.6326  -49.8017 C.2       17 UNK         0.5000 
     98 O          -8.4929  -24.7379  -50.1164 O.2       17 UNK        -0.5000 
     99 N          -6.4825  -23.6855  -50.2696 N.am      18 UNK        -0.5000 
    100 CA        -6.7864  -22.6117  -51.2151 C.3       18 UNK         0.1400 
    101 CB        -7.7989  -21.6160  -50.6114 C.3       18 UNK        -0.1800 
    102 C         -7.2064  -23.1467  -52.5959 C.2       18 UNK         0.5000 
    103 O         -8.2440  -22.7463  -53.1302 O.2       18 UNK        -0.5000 
    104 N         -6.3881  -24.0460  -53.1607 N.am      19 UNK        -0.5000 
    105 CA        -6.5412  -24.5702  -54.5180 C.3       19 UNK         0.1400 
    106 CB        -5.7164  -25.8588  -54.6615 C.3       19 UNK        -0.1800 
    107 C         -6.1347  -23.4943  -55.5424 C.2       19 UNK         0.5000 
    108 O         -4.9908  -23.4720  -55.9999 O.2       19 UNK        -0.5000 
    109 N         -7.0632  -22.5641  -55.8027 N.am      20 UNK        -0.5000 
    110 CA        -6.9546  -21.3278  -56.5895 C.3       20 UNK         0.1400 
    111 CB        -6.5075  -21.6000  -58.0383 C.3       20 UNK        -0.1800 
    112 C         -6.0847  -20.2428  -55.9231 C.2       20 UNK         0.5000 
    113 O         -6.4687  -19.0721  -55.9416 O.2       20 UNK        -0.5000 
    114 N         -4.9553  -20.6469  -55.3271 N.am      21 UNK        -0.5000 
    115 CA        -4.0096  -19.8285  -54.5696 C.3       21 UNK         0.1400 
    116 CB        -2.8952  -20.7393  -54.0343 C.3       21 UNK        -0.1800 
    117 C         -4.6909  -19.0616  -53.4212 C.2       21 UNK         0.5000 
    118 O         -5.0500  -19.6640  -52.4081 O.2       21 UNK        -0.5000 
    119 N         -4.8743  -17.7523  -53.6274 N.am      22 UNK        -0.5000 
    120 CA        -5.5924  -16.8295  -52.7341 C.3       22 UNK         0.1400 
    121 C         -7.1281  -17.0893  -52.6247 C.2       22 UNK         0.5000 
    122 N         -7.7406  -17.8093  -53.5581 N.am      22 UNK        -0.7600 
    123 O         -7.7851  -16.6046  -51.7074 O.2       22 UNK        -0.5000 
    124 C124       -4.8729  -16.6453  -51.3602 C.3       23 UNK        -0.0398 
    125 S125       -4.4340  -14.9063  -51.0331 S.3       23 UNK        -0.2404 
    126 C126       -2.9998  -14.6894  -52.1360 C.3       23 UNK        -0.0205 
    127 H127        4.0882  -12.4226  -44.1955 H         1 UNK         0.0600 
    128 H128        5.5790  -11.4757  -44.2482 H         1 UNK         0.0600 
    129 H129        5.5411  -13.0213  -43.3935 H         1 UNK         0.0600 
    130 H130        3.6976  -13.2832  -46.2278 H         1 UNK         0.3000 
    131 H131        5.7836  -13.8346  -48.1406 H         1 UNK         0.0600 
    132 H132        3.9120  -12.9322  -49.1383 H         1 UNK         0.0800 
    133 H133        3.8150  -14.6075  -49.5849 H         1 UNK         0.0800 
    134 H134        0.4363  -12.5915  -49.1836 H         1 UNK         0.0800 
    135 H135        1.7795  -12.9067  -50.2473 H         1 UNK         0.0800 
    136 H136       -1.2990  -13.1219  -50.7246 H         1 UNK         0.1150 
    137 H137       -1.7903  -17.1431  -52.1065 H         1 UNK         0.1150 
    138 H138        1.7504  -16.0297  -49.9616 H         1 UNK         0.1150 
    139 H139       -0.3632  -18.8769  -51.1740 H         1 UNK         0.0800 
    140 H140        1.0071  -18.3197  -52.1041 H         1 UNK         0.0800 
    141 H141       -0.2266  -17.8407  -48.5456 H         1 UNK         0.0800 
    142 H142        1.2434  -17.9714  -47.6306 H         1 UNK         0.0800 
    143 H143        0.9366  -20.5114  -47.6126 H         1 UNK         0.0600 
    144 H144       -0.3614  -18.6062  -45.9954 H         1 UNK         0.3000 
    145 H145       -1.9356  -20.8313  -43.7041 H         1 UNK         0.0600 
    146 H146       -0.5995  -19.6801  -42.0649 H         1 UNK         0.0600 
    147 H147        0.4982  -20.6623  -43.0115 H         1 UNK         0.0600 
    148 H148        0.4148  -18.9244  -43.2980 H         1 UNK         0.0600 
    149 H149       -1.6548  -17.9514  -43.9675 H         1 UNK         0.3000 
    150 H150       -4.7987  -17.5054  -45.6271 H         1 UNK         0.0600 
    151 H151       -5.2098  -17.6618  -43.1634 H         1 UNK         0.0600 
    152 H152       -5.0543  -15.9917  -43.6857 H         1 UNK         0.0600 
    153 H153       -3.7188  -16.7813  -42.8487 H         1 UNK         0.0600 
    154 H154       -2.7372  -15.6774  -44.8332 H         1 UNK         0.3000 
    155 H155       -0.9490  -15.6693  -47.9124 H         1 UNK         0.0600 
    156 H156       -2.9565  -13.6404  -46.7963 H         1 UNK         0.0600 
    157 H157       -1.6607  -13.2957  -47.9415 H         1 UNK         0.0600 
    158 H158       -2.9955  -14.3326  -48.4134 H         1 UNK         0.0600 
    159 H159       -0.5911  -13.9012  -45.8523 H         1 UNK         0.3000 
    160 H160        2.1443  -15.2949  -44.6846 H         1 UNK         0.0600 
    161 H161        0.0865  -13.1176  -44.0059 H         1 UNK         0.0600 
    162 H162        1.2688  -13.0489  -45.3140 H         1 UNK         0.0600 
    163 H163        1.8033  -13.0569  -43.6455 H         1 UNK         0.0600 
    164 H164        1.9037  -15.7768  -42.5478 H         1 UNK         0.3000 
    165 H165       -0.6128  -15.3034  -40.1622 H         1 UNK         0.0600 
    166 H166       -0.0729  -17.5662  -39.3552 H         1 UNK         0.0600 
    167 H167       -1.0815  -17.6887  -40.7880 H         1 UNK         0.0600 
    168 H168        0.6537  -17.9892  -40.9040 H         1 UNK         0.0600 
    169 H169        2.1144  -16.2550  -40.0906 H         1 UNK         0.3000 
    170 H170        3.7603  -13.2140  -40.3560 H         1 UNK         0.0600 
    171 H171        3.2155  -14.5151  -37.6317 H         1 UNK         0.0600 
    172 H172        4.5949  -13.4902  -38.0320 H         1 UNK         0.0600 
    173 H173        2.9740  -12.8157  -38.0177 H         1 UNK         0.0600 
    174 H174        4.5875  -15.7293  -39.2745 H         1 UNK         0.3000 
    175 H175        6.4011  -16.6211  -41.3644 H         1 UNK         0.0600 
    176 H176        5.7261  -18.8309  -40.3241 H         1 UNK         0.0600 
    177 H177        4.0988  -18.2024  -40.0925 H         1 UNK         0.0600 
    178 H178        5.4668  -17.4713  -39.2550 H         1 UNK         0.0600 
    179 H179        6.0467  -17.8278  -43.1870 H         1 UNK         0.3000 
    180 H180        4.7478  -19.8712  -44.2838 H         1 UNK         0.0600 
    181 H181        3.0119  -19.8496  -46.0852 H         1 UNK         0.0600 
    182 H182        2.2642  -18.4423  -45.3343 H         1 UNK         0.0600 
    183 H183        2.3110  -19.9851  -44.4843 H         1 UNK         0.0600 
    184 H184        4.4764  -17.7225  -46.2322 H         1 UNK         0.3000 
    185 H185        7.9802  -17.1414  -46.4744 H         1 UNK         0.0600 
    186 H186        7.5138  -19.1485  -47.8398 H         1 UNK         0.0600 
    187 H187        5.9701  -18.4866  -48.3531 H         1 UNK         0.0600 
    188 H188        7.4734  -17.7021  -48.8358 H         1 UNK         0.0600 
    189 H189        6.9259  -15.2482  -46.7520 H         1 UNK         0.3000 
    190 H190       -2.3844  -19.1150  -47.9085 H         1 UNK         0.3000 
    191 H191       -3.2240  -20.6609  -50.1240 H         1 UNK         0.0600 
    192 H192       -4.3816  -18.6181  -49.2834 H         1 UNK         0.0600 
    193 H193       -5.4876  -19.9707  -49.4327 H         1 UNK         0.0600 
    194 H194       -4.9003  -19.4847  -47.8428 H         1 UNK         0.0600 
    195 H195       -3.5105  -21.2967  -46.5788 H         1 UNK         0.3000 
    196 H196       -4.9166  -23.7216  -46.7372 H         1 UNK         0.0600 
    197 H197       -4.0953  -24.1091  -44.4323 H         1 UNK         0.0600 
    198 H198       -4.6187  -22.4444  -44.6353 H         1 UNK         0.0600 
    199 H199       -2.9000  -22.8348  -44.6157 H         1 UNK         0.0600 
    200 H200       -1.3679  -23.1765  -46.6468 H         1 UNK         0.3000 
    201 H201       -0.5446  -25.8747  -46.8748 H         1 UNK         0.0600 
    202 H202        0.9586  -24.0494  -46.1401 H         1 UNK         0.0600 
    203 H203        0.8649  -23.2886  -47.7266 H         1 UNK         0.0600 
    204 H204        1.6439  -24.8564  -47.5428 H         1 UNK         0.0600 
    205 H205       -1.3856  -23.4769  -49.3750 H         1 UNK         0.3000 
    206 H206       -0.7576  -25.1878  -51.6358 H         1 UNK         0.0600 
    207 H207       -0.5919  -22.7141  -51.7638 H         1 UNK         0.0600 
    208 H208       -1.7464  -23.3337  -52.9334 H         1 UNK         0.0600 
    209 H209       -2.3197  -22.5677  -51.4530 H         1 UNK         0.0600 
    210 H210       -2.1059  -26.8141  -50.1807 H         1 UNK         0.3000 
    211 H211       -3.7462  -28.3025  -50.0265 H         1 UNK         0.0600 
    212 H212       -4.1092  -27.6030  -52.9830 H         1 UNK         0.0600 
    213 H213       -4.6720  -29.0823  -52.2133 H         1 UNK         0.0600 
    214 H214       -2.9524  -28.7487  -52.3168 H         1 UNK         0.0600 
    215 H215       -4.6057  -26.0731  -48.8287 H         1 UNK         0.3000 
    216 H216       -6.3483  -25.0319  -47.9496 H         1 UNK         0.0600 
    217 H217       -8.5057  -26.2091  -47.7793 H         1 UNK         0.0600 
    218 H218       -7.1821  -27.3401  -47.5498 H         1 UNK         0.0600 
    219 H219       -8.0596  -27.3050  -49.0784 H         1 UNK         0.0600 
    220 H220       -5.5172  -23.6830  -49.9439 H         1 UNK         0.3000 
    221 H221       -5.8500  -22.0733  -51.3680 H         1 UNK         0.0600 
    222 H222       -8.7915  -22.0556  -50.5095 H         1 UNK         0.0600 
    223 H223       -7.4821  -21.2775  -49.6254 H         1 UNK         0.0600 
    224 H224       -7.8942  -20.7324  -51.2441 H         1 UNK         0.0600 
    225 H225       -5.5421  -24.3226  -52.6673 H         1 UNK         0.3000 
    226 H226       -7.5891  -24.8276  -54.6857 H         1 UNK         0.0600 
    227 H227       -6.0633  -26.6212  -53.9641 H         1 UNK         0.0600 
    228 H228       -5.8077  -26.2709  -55.6669 H         1 UNK         0.0600 
    229 H229       -4.6566  -25.6852  -54.4719 H         1 UNK         0.0600 
    230 H230       -7.9169  -22.6357  -55.2599 H         1 UNK         0.3000 
    231 H231       -7.9679  -20.9255  -56.6346 H         1 UNK         0.0600 
    232 H232       -5.4790  -21.9572  -58.0917 H         1 UNK         0.0600 
    233 H233       -6.5637  -20.6896  -58.6364 H         1 UNK         0.0600 
    234 H234       -7.1469  -22.3424  -58.5157 H         1 UNK         0.0600 
    235 H235       -4.7384  -21.6360  -55.3951 H         1 UNK         0.3000 
    236 H236       -3.5602  -19.1110  -55.2588 H         1 UNK         0.0600 
    237 H237       -2.3409  -21.2084  -54.8474 H         1 UNK         0.0600 
    238 H238       -2.1805  -20.1783  -53.4306 H         1 UNK         0.0600 
    239 H239       -3.3066  -21.5321  -53.4091 H         1 UNK         0.0600 
    240 H240       -4.5945  -17.3628  -54.5163 H         1 UNK         0.3000 
    241 H241       -5.5513  -15.8805  -53.2691 H         1 UNK         0.0600 
    242 H242       -7.2243  -18.1922  -54.3437 H         1 UNK         0.3800 
    243 H243       -8.7341  -17.9615  -53.4912 H         1 UNK         0.3800 
    244 H244       -3.9629  -17.2410  -51.2983 H         1 UNK         0.0800 
    245 H245       -5.4913  -16.9967  -50.5335 H         1 UNK         0.0800 
    246 H246       -3.1440  -15.2506  -53.0600 H         1 UNK         0.0800 
    247 H247       -2.9518  -13.6406  -52.4328 H         1 UNK         0.0800 
@<TRIPOS>BOND
     1    1    2 1    
     2    1  127 1    
     3    1  128 1    
     4    1  129 1    
     5    2    3 2    
     6    2    4 am   BACKBONE|DICT|INTERRES
     7    4    5 1    
     8    4  130 1    
     9    5    6 1    
    10    5   65 1    
    11    5  131 1    
    12    6    7 1    
    13    6  132 1    
    14    6  133 1    
    15    7    8 1    
    16    8    9 1    
    17    8  134 1    
    18    8  135 1    
    19    9   10 ar   
    20    9   14 ar   
    21   10   11 ar   
    22   10  136 1    
    23   11   12 ar   
    24   11  126 1    
    25   12   13 ar   
    26   12  137 1    
    27   13   14 ar   
    28   13   15 1    
    29   14  138 1    
    30   15   16 1    
    31   15  139 1    
    32   15  140 1    
    33   16   17 1    
    34   17   18 1    
    35   17  141 1    
    36   17  142 1    
    37   18   19 1    
    38   18   67 1    
    39   18  143 1    
    40   19   20 am   BACKBONE|DICT|INTERRES
    41   19  144 1    
    42   20   21 2    
    43   20   22 1    
    44   22   23 1    
    45   22   24 1    
    46   22  145 1    
    47   23  146 1    
    48   23  147 1    
    49   23  148 1    
    50   24   25 am   BACKBONE|DICT|INTERRES
    51   24  149 1    
    52   25   26 2    
    53   25   27 1    
    54   27   28 1    
    55   27   29 1    
    56   27  150 1    
    57   28  151 1    
    58   28  152 1    
    59   28  153 1    
    60   29   30 am   BACKBONE|DICT|INTERRES
    61   29  154 1    
    62   30   31 2    
    63   30   32 1    
    64   32   33 1    
    65   32   34 1    
    66   32  155 1    
    67   33  156 1    
    68   33  157 1    
    69   33  158 1    
    70   34   35 am   BACKBONE|DICT|INTERRES
    71   34  159 1    
    72   35   36 2    
    73   35   37 1    
    74   37   38 1    
    75   37   39 1    
    76   37  160 1    
    77   38  161 1    
    78   38  162 1    
    79   38  163 1    
    80   39   40 am   BACKBONE|DICT|INTERRES
    81   39  164 1    
    82   40   41 2    
    83   40   42 1    
    84   42   43 1    
    85   42   44 1    
    86   42  165 1    
    87   43  166 1    
    88   43  167 1    
    89   43  168 1    
    90   44   45 am   BACKBONE|DICT|INTERRES
    91   44  169 1    
    92   45   46 2    
    93   45   47 1    
    94   47   48 1    
    95   47   49 1    
    96   47  170 1    
    97   48  171 1    
    98   48  172 1    
    99   48  173 1    
   100   49   50 am   BACKBONE|DICT|INTERRES
   101   49  174 1    
   102   50   51 2    
   103   50   52 1    
   104   52   53 1    
   105   52   54 1    
   106   52  175 1    
   107   53  176 1    
   108   53  177 1    
   109   53  178 1    
   110   54   55 am   BACKBONE|DICT|INTERRES
   111   54  179 1    
   112   55   56 2    
   113   55   57 1    
   114   57   58 1    
   115   57   59 1    
   116   57  180 1    
   117   58  181 1    
   118   58  182 1    
   119   58  183 1    
   120   59   60 am   BACKBONE|DICT|INTERRES
   121   59  184 1    
   122   60   61 2    
   123   60   62 1    
   124   62   63 1    
   125   62   64 1    
   126   62  185 1    
   127   63  186 1    
   128   63  187 1    
   129   63  188 1    
   130   64   65 am   BACKBONE|DICT|INTERRES
   131   64  189 1    
   132   65   66 2    
   133   67   68 2    
   134   67   69 am   BACKBONE|DICT|INTERRES
   135   69   70 1    
   136   69  190 1    
   137   70   71 1    
   138   70   72 1    
   139   70  191 1    
   140   71  192 1    
   141   71  193 1    
   142   71  194 1    
   143   72   73 2    
   144   72   74 am   BACKBONE|DICT|INTERRES
   145   74   75 1    
   146   74  195 1    
   147   75   76 1    
   148   75   77 1    
   149   75  196 1    
   150   76  197 1    
   151   76  198 1    
   152   76  199 1    
   153   77   78 2    
   154   77   79 am   BACKBONE|DICT|INTERRES
   155   79   80 1    
   156   79  200 1    
   157   80   81 1    
   158   80   82 1    
   159   80  201 1    
   160   81  202 1    
   161   81  203 1    
   162   81  204 1    
   163   82   83 2    
   164   82   84 am   BACKBONE|DICT|INTERRES
   165   84   85 1    
   166   84  205 1    
   167   85   86 1    
   168   85   87 1    
   169   85  206 1    
   170   86  207 1    
   171   86  208 1    
   172   86  209 1    
   173   87   88 2    
   174   87   89 am   BACKBONE|DICT|INTERRES
   175   89   90 1    
   176   89  210 1    
   177   90   91 1    
   178   90   92 1    
   179   90  211 1    
   180   91  212 1    
   181   91  213 1    
   182   91  214 1    
   183   92   93 2    
   184   92   94 am   BACKBONE|DICT|INTERRES
   185   94   95 1    
   186   94  215 1    
   187   95   96 1    
   188   95   97 1    
   189   95  216 1    
   190   96  217 1    
   191   96  218 1    
   192   96  219 1    
   193   97   98 2    
   194   97   99 am   BACKBONE|DICT|INTERRES
   195   99  100 1    
   196   99  220 1    
   197  100  101 1    
   198  100  102 1    
   199  100  221 1    
   200  101  222 1    
   201  101  223 1    
   202  101  224 1    
   203  102  103 2    
   204  102  104 am   BACKBONE|DICT|INTERRES
   205  104  105 1    
   206  104  225 1    
   207  105  106 1    
   208  105  107 1    
   209  105  226 1    
   210  106  227 1    
   211  106  228 1    
   212  106  229 1    
   213  107  108 2    
   214  107  109 am   BACKBONE|DICT|INTERRES
   215  109  110 1    
   216  109  230 1    
   217  110  111 1    
   218  110  112 1    
   219  110  231 1    
   220  111  232 1    
   221  111  233 1    
   222  111  234 1    
   223  112  113 2    
   224  112  114 am   BACKBONE|DICT|INTERRES
   225  114  115 1    
   226  114  235 1    
   227  115  116 1    
   228  115  117 1    
   229  115  236 1    
   230  116  237 1    
   231  116  238 1    
   232  116  239 1    
   233  117  118 2    
   234  117  119 am   BACKBONE|DICT|INTERRES
   235  119  120 1    
   236  119  240 1    
   237  120  121 1    
   238  120  124 1    
   239  120  241 1    
   240  121  122 am   BACKBONE|DICT|INTERRES
   241  121  123 2    
   242  122  242 1    
   243  122  243 1    
   244  124  125 1    
   245  124  244 1    
   246  124  245 1    
   247  125  126 1    
   248  126  246 1    
   249  126  247 1    
@<TRIPOS>SUBSTRUCTURE
     1 UNK         1 GROUP             0       ****    0 ROOT    
