@<TRIPOS>MOLECULE
3R540
247   249    1
SMALL
USER_CHARGES


@<TRIPOS>ATOM
      1 CA         -3.5218  -12.4621  -44.9226 C.3       0 UNK        -0.1800 
      2 C          -2.6118  -12.9131  -46.0551 C.2       0 UNK         0.5000 
      3 O          -1.4677  -13.2866  -45.8068 O.2       0 UNK        -0.5000 
      4 N          -3.1040  -12.8605  -47.3014 N.am      1 UNK        -0.5000 
      5 CA         -2.4315  -13.3404  -48.5232 C.3       1 UNK         0.1400 
      6 C6         -2.2791  -14.8865  -48.5569 C.3       23 UNK        -0.0398 
      7 S7         -3.8853  -15.7509  -48.4375 S.3       23 UNK        -0.2404 
      8 C8         -3.4051  -17.2938  -47.6016 C.3       23 UNK        -0.0205 
      9 C9         -2.7109  -18.2583  -48.5496 C.ar      23 UNK        -0.0193 
     10 C10        -3.4509  -19.2353  -49.2215 C.ar      23 UNK        -0.1150 
     11 C11        -2.8155  -20.1505  -50.0658 C.ar      23 UNK        -0.0193 
     12 C12        -1.4350  -20.0701  -50.2491 C.ar      23 UNK        -0.1150 
     13 C13        -0.6858  -19.0909  -49.5954 C.ar      23 UNK        -0.0193 
     14 C14        -1.3278  -18.1906  -48.7406 C.ar      23 UNK        -0.1150 
     15 C15         0.8186  -19.0198  -49.8051 C.3       23 UNK        -0.0205 
     16 S16         1.6711  -20.5109  -49.1993 S.3       23 UNK        -0.2404 
     17 C17         1.2832  -20.4492  -47.4179 C.3       23 UNK        -0.0398 
     18 CA          0.8401  -21.8112  -46.8353 C.3       11 UNK         0.1400 
     19 N           0.9394  -21.8060  -45.3754 N.am      11 UNK        -0.5000 
     20 C           0.8743  -22.8912  -44.5948 C.2       10 UNK         0.5000 
     21 O           0.7429  -24.0364  -45.0254 O.2       10 UNK        -0.5000 
     22 CA          0.9307  -22.6496  -43.0752 C.3       10 UNK         0.1400 
     23 CB          2.3771  -22.4220  -42.6114 C.3       10 UNK        -0.1800 
     24 N           0.0943  -21.5258  -42.6486 N.am      10 UNK        -0.5000 
     25 C          -1.2410  -21.4940  -42.7671 C.2       9 UNK         0.5000 
     26 O          -1.9074  -22.4195  -43.2279 O.2       9 UNK        -0.5000 
     27 CA         -1.9535  -20.2009  -42.3370 C.3       9 UNK         0.1400 
     28 CB         -2.0836  -20.1322  -40.8083 C.3       9 UNK        -0.1800 
     29 N          -1.2906  -18.9960  -42.8335 N.am      9 UNK        -0.5000 
     30 C          -1.1371  -18.6911  -44.1308 C.2       8 UNK         0.5000 
     31 O          -1.5568  -19.3840  -45.0561 O.2       8 UNK        -0.5000 
     32 CA         -0.3274  -17.4244  -44.4481 C.3       8 UNK         0.1400 
     33 CB         -1.1523  -16.1633  -44.1516 C.3       8 UNK        -0.1800 
     34 N           0.9226  -17.3676  -43.6949 N.am      8 UNK        -0.5000 
     35 C           1.9055  -18.2763  -43.7388 C.2       7 UNK         0.5000 
     36 O           1.8969  -19.2663  -44.4681 O.2       7 UNK        -0.5000 
     37 CA          3.0698  -18.0693  -42.7575 C.3       7 UNK         0.1400 
     38 CB          4.0583  -17.0183  -43.2861 C.3       7 UNK        -0.1800 
     39 N           2.5966  -17.6785  -41.4298 N.am      7 UNK        -0.5000 
     40 C           1.9173  -18.4823  -40.5998 C.2       6 UNK         0.5000 
     41 O           1.6381  -19.6541  -40.8554 O.2       6 UNK        -0.5000 
     42 CA          1.4436  -17.8571  -39.2750 C.3       6 UNK         0.1400 
     43 CB          2.5820  -17.8410  -38.2438 C.3       6 UNK        -0.1800 
     44 N           0.9239  -16.4990  -39.4476 N.am      6 UNK        -0.5000 
     45 C          -0.2131  -16.2089  -40.0946 C.2       5 UNK         0.5000 
     46 O          -0.9473  -17.0580  -40.5998 O.2       5 UNK        -0.5000 
     47 CA         -0.5707  -14.7165  -40.2377 C.3       5 UNK         0.1400 
     48 CB         -1.2702  -14.2060  -38.9690 C.3       5 UNK        -0.1800 
     49 N           0.5622  -13.8379  -40.5561 N.am      5 UNK        -0.5000 
     50 C           1.3777  -13.9922  -41.6071 C.2       4 UNK         0.5000 
     51 O           1.3630  -14.9797  -42.3425 O.2       4 UNK        -0.5000 
     52 CA          2.4025  -12.8763  -41.8788 C.3       4 UNK         0.1400 
     53 CB          3.7181  -13.1715  -41.1425 C.3       4 UNK        -0.1800 
     54 N           2.6729  -12.7765  -43.3149 N.am      4 UNK        -0.5000 
     55 C           1.7850  -12.3398  -44.2179 C.2       3 UNK         0.5000 
     56 O           0.7302  -11.7741  -43.9159 O.2       3 UNK        -0.5000 
     57 CA          2.1409  -12.5947  -45.6931 C.3       3 UNK         0.1400 
     58 CB          2.1487  -14.1025  -46.0079 C.3       3 UNK        -0.1800 
     59 N           1.1591  -11.9517  -46.5621 N.am      3 UNK        -0.5000 
     60 C           1.4316  -11.1058  -47.5630 C.2       2 UNK         0.5000 
     61 O           2.5770  -10.7772  -47.8787 O.2       2 UNK        -0.5000 
     62 CA          0.2253  -10.5145  -48.3315 C.3       2 UNK         0.1400 
     63 CB          0.5790  -10.0950  -49.7742 C.3       2 UNK        -0.1800 
     64 N          -0.9671  -11.3714  -48.3130 N.am      2 UNK        -0.5000 
     65 C          -1.0922  -12.6129  -48.8109 C.2       1 UNK         0.5000 
     66 O          -0.2092  -13.1809  -49.4554 O.2       1 UNK        -0.5000 
     67 C          -0.5603  -22.2587  -47.3149 C.2       11 UNK         0.5000 
     68 O          -0.6529  -23.0573  -48.2478 O.2       11 UNK        -0.5000 
     69 N          -1.6194  -21.8029  -46.6288 N.am      12 UNK        -0.5000 
     70 CA         -2.9973  -22.2361  -46.8601 C.3       12 UNK         0.1400 
     71 CB         -3.9661  -21.3354  -46.0803 C.3       12 UNK        -0.1800 
     72 C          -3.2201  -23.7195  -46.5117 C.2       12 UNK         0.5000 
     73 O          -3.8502  -24.4342  -47.2914 O.2       12 UNK        -0.5000 
     74 N          -2.6704  -24.1717  -45.3745 N.am      13 UNK        -0.5000 
     75 CA         -2.7209  -25.5639  -44.9140 C.3       13 UNK         0.1400 
     76 CB         -2.1683  -25.6544  -43.4838 C.3       13 UNK        -0.1800 
     77 C          -1.9810  -26.5461  -45.8430 C.2       13 UNK         0.5000 
     78 O          -2.3875  -27.7035  -45.9496 O.2       13 UNK        -0.5000 
     79 N          -0.9383  -26.0599  -46.5291 N.am      14 UNK        -0.5000 
     80 CA         -0.1955  -26.7795  -47.5656 C.3       14 UNK         0.1400 
     81 CB          1.1743  -26.1056  -47.7503 C.3       14 UNK        -0.1800 
     82 C          -0.9461  -26.8789  -48.9130 C.2       14 UNK         0.5000 
     83 O          -0.4253  -27.5013  -49.8401 O.2       14 UNK        -0.5000 
     84 N          -2.1317  -26.2586  -49.0163 N.am      15 UNK        -0.5000 
     85 CA         -3.0479  -26.1747  -50.1604 C.3       15 UNK         0.1400 
     86 CB         -3.4775  -27.5655  -50.6645 C.3       15 UNK        -0.1800 
     87 C          -2.5333  -25.2905  -51.3089 C.2       15 UNK         0.5000 
     88 O          -3.2963  -24.4632  -51.8048 O.2       15 UNK        -0.5000 
     89 N          -1.2616  -25.4686  -51.6910 N.am      16 UNK        -0.5000 
     90 CA         -0.4440  -24.7085  -52.6452 C.3       16 UNK         0.1400 
     91 CB         -0.2282  -23.2698  -52.1453 C.3       16 UNK        -0.1800 
     92 C          -0.9303  -24.7190  -54.1106 C.2       16 UNK         0.5000 
     93 O          -0.1305  -25.0274  -54.9943 O.2       16 UNK        -0.5000 
     94 N          -2.2141  -24.3995  -54.3241 N.am      17 UNK        -0.5000 
     95 CA         -2.9455  -24.2301  -55.5832 C.3       17 UNK         0.1400 
     96 CB         -2.9043  -25.5051  -56.4474 C.3       17 UNK        -0.1800 
     97 C          -2.4872  -22.9888  -56.3740 C.2       17 UNK         0.5000 
     98 O          -1.3271  -22.9011  -56.7781 O.2       17 UNK        -0.5000 
     99 N          -3.4232  -22.0532  -56.5940 N.am      18 UNK        -0.5000 
    100 CA        -3.2884  -20.8182  -57.3823 C.3       18 UNK         0.1400 
    101 CB        -3.0111  -21.1478  -58.8644 C.3       18 UNK        -0.1800 
    102 C         -2.2921  -19.7768  -56.8223 C.2       18 UNK         0.5000 
    103 O         -1.9758  -18.8123  -57.5211 O.2       18 UNK        -0.5000 
    104 N         -1.8123  -19.9697  -55.5866 N.am      19 UNK        -0.5000 
    105 CA        -0.7959  -19.1234  -54.9599 C.3       19 UNK         0.1400 
    106 CB        -0.0827  -19.9269  -53.8642 C.3       19 UNK        -0.1800 
    107 C         -1.3613  -17.8088  -54.3927 C.2       19 UNK         0.5000 
    108 O         -0.6568  -16.7983  -54.4038 O.2       19 UNK        -0.5000 
    109 N         -2.6103  -17.8406  -53.9135 N.am      20 UNK        -0.5000 
    110 CA        -3.3129  -16.7086  -53.3148 C.3       20 UNK         0.1400 
    111 CB        -2.7438  -16.3952  -51.9153 C.3       20 UNK        -0.1800 
    112 C         -4.8196  -17.0110  -53.3300 C.2       20 UNK         0.5000 
    113 O         -5.3864  -17.1509  -54.4146 O.2       20 UNK        -0.5000 
    114 N         -5.4452  -17.1461  -52.1500 N.am      21 UNK        -0.5000 
    115 CA        -6.8684  -17.4721  -51.9675 C.3       21 UNK         0.1400 
    116 CB        -7.1927  -17.4442  -50.4660 C.3       21 UNK        -0.1800 
    117 C         -7.2822  -18.8258  -52.5855 C.2       21 UNK         0.5000 
    118 O         -8.4292  -18.9942  -52.9995 O.2       21 UNK        -0.5000 
    119 N         -6.3130  -19.7407  -52.6665 N.am      22 UNK        -0.5000 
    120 CA        -6.3280  -21.0057  -53.4142 C.3       22 UNK         0.1400 
    121 C         -6.2670  -20.8622  -54.9657 C.2       22 UNK         0.5000 
    122 N         -6.2014  -19.6681  -55.5406 N.am      22 UNK        -0.7600 
    123 O         -6.2630  -21.8669  -55.6725 O.2       22 UNK        -0.5000 
    124 C124       -5.2283  -21.9695  -52.8874 C.3       23 UNK        -0.0398 
    125 S125       -3.6346  -21.1319  -52.5444 S.3       23 UNK        -0.2404 
    126 C126       -3.6094  -21.2634  -50.7257 C.3       23 UNK        -0.0205 
    127 H127       -3.0648  -11.6322  -44.3836 H         1 UNK         0.0600 
    128 H128       -3.6763  -13.2816  -44.2207 H         1 UNK         0.0600 
    129 H129       -4.4960  -12.1377  -45.2889 H         1 UNK         0.0600 
    130 H130       -4.0495  -12.5313  -47.4377 H         1 UNK         0.3000 
    131 H131       -3.0858  -13.0625  -49.3508 H         1 UNK         0.0600 
    132 H132       -1.8003  -15.2128  -49.4806 H         1 UNK         0.0800 
    133 H133       -1.6265  -15.2130  -47.7460 H         1 UNK         0.0800 
    134 H134       -2.7622  -17.0775  -46.7491 H         1 UNK         0.0800 
    135 H135       -4.3006  -17.7613  -47.1898 H         1 UNK         0.0800 
    136 H136       -4.5182  -19.2974  -49.0642 H         1 UNK         0.1150 
    137 H137       -0.9350  -20.7873  -50.8812 H         1 UNK         0.1150 
    138 H138       -0.7507  -17.4412  -48.2187 H         1 UNK         0.1150 
    139 H139        1.0224  -18.9035  -50.8701 H         1 UNK         0.0800 
    140 H140        1.2406  -18.1419  -49.3135 H         1 UNK         0.0800 
    141 H141        0.5421  -19.6800  -47.1978 H         1 UNK         0.0800 
    142 H142        2.1997  -20.1225  -46.9258 H         1 UNK         0.0800 
    143 H143        1.5492  -22.5638  -47.1876 H         1 UNK         0.0600 
    144 H144        1.0880  -20.8988  -44.9396 H         1 UNK         0.3000 
    145 H145        0.5556  -23.5493  -42.5833 H         1 UNK         0.0600 
    146 H146        2.4335  -22.3393  -41.5259 H         1 UNK         0.0600 
    147 H147        3.0183  -23.2527  -42.9085 H         1 UNK         0.0600 
    148 H148        2.7988  -21.5112  -43.0375 H         1 UNK         0.0600 
    149 H149        0.5718  -20.7349  -42.2284 H         1 UNK         0.3000 
    150 H150       -2.9594  -20.2221  -42.7612 H         1 UNK         0.0600 
    151 H151       -2.5739  -21.0243  -40.4165 H         1 UNK         0.0600 
    152 H152       -2.6809  -19.2730  -40.5030 H         1 UNK         0.0600 
    153 H153       -1.1101  -20.0511  -40.3237 H         1 UNK         0.0600 
    154 H154       -0.9401  -18.3511  -42.1319 H         1 UNK         0.3000 
    155 H155       -0.0769  -17.4348  -45.5108 H         1 UNK         0.0600 
    156 H156       -1.4688  -16.1211  -43.1099 H         1 UNK         0.0600 
    157 H157       -2.0503  -16.1199  -44.7670 H         1 UNK         0.0600 
    158 H158       -0.5752  -15.2620  -44.3524 H         1 UNK         0.0600 
    159 H159        1.0439  -16.5579  -43.0878 H         1 UNK         0.3000 
    160 H160        3.6013  -19.0188  -42.6642 H         1 UNK         0.0600 
    161 H161        3.5942  -16.0371  -43.3856 H         1 UNK         0.0600 
    162 H162        4.4381  -17.3015  -44.2685 H         1 UNK         0.0600 
    163 H163        4.9170  -16.9165  -42.6225 H         1 UNK         0.0600 
    164 H164        2.7148  -16.7095  -41.1743 H         1 UNK         0.3000 
    165 H165        0.6389  -18.4826  -38.8825 H         1 UNK         0.0600 
    166 H166        2.2334  -17.4747  -37.2781 H         1 UNK         0.0600 
    167 H167        2.9785  -18.8449  -38.0856 H         1 UNK         0.0600 
    168 H168        3.4099  -17.2076  -38.5647 H         1 UNK         0.0600 
    169 H169        1.4738  -15.7413  -39.0705 H         1 UNK         0.3000 
    170 H170       -1.2780  -14.6356  -41.0656 H         1 UNK         0.0600 
    171 H171       -2.1285  -14.8308  -38.7174 H         1 UNK         0.0600 
    172 H172       -0.5987  -14.2089  -38.1096 H         1 UNK         0.0600 
    173 H173       -1.6399  -13.1893  -39.1036 H         1 UNK         0.0600 
    174 H174        0.6563  -13.0096  -39.9862 H         1 UNK         0.3000 
    175 H175        2.0001  -11.9243  -41.5264 H         1 UNK         0.0600 
    176 H176        4.1558  -14.1185  -41.4615 H         1 UNK         0.0600 
    177 H177        4.4532  -12.3860  -41.3190 H         1 UNK         0.0600 
    178 H178        3.5592  -13.2298  -40.0650 H         1 UNK         0.0600 
    179 H179        3.5052  -13.2441  -43.6413 H         1 UNK         0.3000 
    180 H180        3.1389  -12.1876  -45.8667 H         1 UNK         0.0600 
    181 H181        1.1757  -14.5561  -45.8168 H         1 UNK         0.0600 
    182 H182        2.8830  -14.6356  -45.4038 H         1 UNK         0.0600 
    183 H183        2.3981  -14.2832  -47.0536 H         1 UNK         0.0600 
    184 H184        0.1925  -12.1605  -46.3302 H         1 UNK         0.3000 
    185 H185       -0.0513   -9.6089  -47.7900 H         1 UNK         0.0600 
    186 H186        1.3571   -9.3309  -49.7803 H         1 UNK         0.0600 
    187 H187        0.9446  -10.9362  -50.3635 H         1 UNK         0.0600 
    188 H188       -0.2870   -9.6766  -50.2871 H         1 UNK         0.0600 
    189 H189       -1.7529  -11.0084  -47.7917 H         1 UNK         0.3000 
    190 H190       -1.4810  -21.1014  -45.9063 H         1 UNK         0.3000 
    191 H191       -3.2090  -22.1141  -47.9231 H         1 UNK         0.0600 
    192 H192       -3.8657  -20.2941  -46.3859 H         1 UNK         0.0600 
    193 H193       -5.0014  -21.6285  -46.2579 H         1 UNK         0.0600 
    194 H194       -3.7877  -21.3857  -45.0060 H         1 UNK         0.0600 
    195 H195       -2.2120  -23.5088  -44.7540 H         1 UNK         0.3000 
    196 H196       -3.7700  -25.8655  -44.8908 H         1 UNK         0.0600 
    197 H197       -2.2080  -26.6791  -43.1123 H         1 UNK         0.0600 
    198 H198       -2.7488  -25.0381  -42.7972 H         1 UNK         0.0600 
    199 H199       -1.1299  -25.3262  -43.4329 H         1 UNK         0.0600 
    200 H200       -0.6350  -25.1128  -46.3331 H         1 UNK         0.3000 
    201 H201       -0.0240  -27.8005  -47.2189 H         1 UNK         0.0600 
    202 H202        1.7250  -26.0669  -46.8103 H         1 UNK         0.0600 
    203 H203        1.0749  -25.0859  -48.1219 H         1 UNK         0.0600 
    204 H204        1.7902  -26.6550  -48.4632 H         1 UNK         0.0600 
    205 H205       -2.4422  -25.7281  -48.2104 H         1 UNK         0.3000 
    206 H206       -3.9426  -25.6848  -49.7732 H         1 UNK         0.0600 
    207 H207       -4.2530  -27.4765  -51.4262 H         1 UNK         0.0600 
    208 H208       -3.8857  -28.1692  -49.8539 H         1 UNK         0.0600 
    209 H209       -2.6496  -28.1166  -51.1106 H         1 UNK         0.0600 
    210 H210       -0.7686  -26.2167  -51.2109 H         1 UNK         0.3000 
    211 H211        0.5304  -25.1995  -52.6375 H         1 UNK         0.0600 
    212 H212       -1.1572  -22.7025  -52.1543 H         1 UNK         0.0600 
    213 H213        0.4870  -22.7414  -52.7756 H         1 UNK         0.0600 
    214 H214        0.1617  -23.2561  -51.1270 H         1 UNK         0.0600 
    215 H215       -2.7555  -24.2114  -53.4811 H         1 UNK         0.3000 
    216 H216       -3.9864  -24.0794  -55.2944 H         1 UNK         0.0600 
    217 H217       -3.5591  -25.4045  -57.3137 H         1 UNK         0.0600 
    218 H218       -3.2406  -26.3752  -55.8835 H         1 UNK         0.0600 
    219 H219       -1.9026  -25.7141  -56.8233 H         1 UNK         0.0600 
    220 H220       -4.3575  -22.2055  -56.2253 H         1 UNK         0.3000 
    221 H221       -4.2635  -20.3351  -57.3465 H         1 UNK         0.0600 
    222 H222       -2.0152  -21.5675  -59.0079 H         1 UNK         0.0600 
    223 H223       -3.7364  -21.8634  -59.2517 H         1 UNK         0.0600 
    224 H224       -3.0791  -20.2539  -59.4854 H         1 UNK         0.0600 
    225 H225       -2.1145  -20.7843  -55.0730 H         1 UNK         0.3000 
    226 H226       -0.0501  -18.8598  -55.7132 H         1 UNK         0.0600 
    227 H227        0.4116  -20.8040  -54.2817 H         1 UNK         0.0600 
    228 H228        0.6815  -19.3265  -53.3695 H         1 UNK         0.0600 
    229 H229       -0.7814  -20.2657  -53.1015 H         1 UNK         0.0600 
    230 H230       -3.1336  -18.7019  -53.9828 H         1 UNK         0.3000 
    231 H231       -3.1676  -15.8322  -53.9495 H         1 UNK         0.0600 
    232 H232       -2.8021  -17.2586  -51.2538 H         1 UNK         0.0600 
    233 H233       -3.2820  -15.5692  -51.4498 H         1 UNK         0.0600 
    234 H234       -1.6969  -16.0972  -51.9686 H         1 UNK         0.0600 
    235 H235       -4.9054  -17.0173  -51.3059 H         1 UNK         0.3000 
    236 H236       -7.4531  -16.6939  -52.4621 H         1 UNK         0.0600 
    237 H237       -6.9750  -16.4678  -50.0325 H         1 UNK         0.0600 
    238 H238       -8.2496  -17.6490  -50.2902 H         1 UNK         0.0600 
    239 H239       -6.6176  -18.1901  -49.9163 H         1 UNK         0.0600 
    240 H240       -5.4105  -19.4959  -52.2863 H         1 UNK         0.3000 
    241 H241       -7.2923  -21.4779  -53.2195 H         1 UNK         0.0600 
    242 H242       -6.2115  -19.6070  -56.5450 H         1 UNK         0.3800 
    243 H243       -6.1312  -18.8138  -54.9966 H         1 UNK         0.3800 
    244 H244       -5.5881  -22.4513  -51.9781 H         1 UNK         0.0800 
    245 H245       -5.0471  -22.7990  -53.5712 H         1 UNK         0.0800 
    246 H246       -3.1760  -22.2228  -50.4419 H         1 UNK         0.0800 
    247 H247       -4.6282  -21.2610  -50.3362 H         1 UNK         0.0800 
@<TRIPOS>BOND
     1    1    2 1    
     2    1  127 1    
     3    1  128 1    
     4    1  129 1    
     5    2    3 2    
     6    2    4 am   BACKBONE|DICT|INTERRES
     7    4    5 1    
     8    4  130 1    
     9    5    6 1    
    10    5   65 1    
    11    5  131 1    
    12    6    7 1    
    13    6  132 1    
    14    6  133 1    
    15    7    8 1    
    16    8    9 1    
    17    8  134 1    
    18    8  135 1    
    19    9   10 ar   
    20    9   14 ar   
    21   10   11 ar   
    22   10  136 1    
    23   11   12 ar   
    24   11  126 1    
    25   12   13 ar   
    26   12  137 1    
    27   13   14 ar   
    28   13   15 1    
    29   14  138 1    
    30   15   16 1    
    31   15  139 1    
    32   15  140 1    
    33   16   17 1    
    34   17   18 1    
    35   17  141 1    
    36   17  142 1    
    37   18   19 1    
    38   18   67 1    
    39   18  143 1    
    40   19   20 am   BACKBONE|DICT|INTERRES
    41   19  144 1    
    42   20   21 2    
    43   20   22 1    
    44   22   23 1    
    45   22   24 1    
    46   22  145 1    
    47   23  146 1    
    48   23  147 1    
    49   23  148 1    
    50   24   25 am   BACKBONE|DICT|INTERRES
    51   24  149 1    
    52   25   26 2    
    53   25   27 1    
    54   27   28 1    
    55   27   29 1    
    56   27  150 1    
    57   28  151 1    
    58   28  152 1    
    59   28  153 1    
    60   29   30 am   BACKBONE|DICT|INTERRES
    61   29  154 1    
    62   30   31 2    
    63   30   32 1    
    64   32   33 1    
    65   32   34 1    
    66   32  155 1    
    67   33  156 1    
    68   33  157 1    
    69   33  158 1    
    70   34   35 am   BACKBONE|DICT|INTERRES
    71   34  159 1    
    72   35   36 2    
    73   35   37 1    
    74   37   38 1    
    75   37   39 1    
    76   37  160 1    
    77   38  161 1    
    78   38  162 1    
    79   38  163 1    
    80   39   40 am   BACKBONE|DICT|INTERRES
    81   39  164 1    
    82   40   41 2    
    83   40   42 1    
    84   42   43 1    
    85   42   44 1    
    86   42  165 1    
    87   43  166 1    
    88   43  167 1    
    89   43  168 1    
    90   44   45 am   BACKBONE|DICT|INTERRES
    91   44  169 1    
    92   45   46 2    
    93   45   47 1    
    94   47   48 1    
    95   47   49 1    
    96   47  170 1    
    97   48  171 1    
    98   48  172 1    
    99   48  173 1    
   100   49   50 am   BACKBONE|DICT|INTERRES
   101   49  174 1    
   102   50   51 2    
   103   50   52 1    
   104   52   53 1    
   105   52   54 1    
   106   52  175 1    
   107   53  176 1    
   108   53  177 1    
   109   53  178 1    
   110   54   55 am   BACKBONE|DICT|INTERRES
   111   54  179 1    
   112   55   56 2    
   113   55   57 1    
   114   57   58 1    
   115   57   59 1    
   116   57  180 1    
   117   58  181 1    
   118   58  182 1    
   119   58  183 1    
   120   59   60 am   BACKBONE|DICT|INTERRES
   121   59  184 1    
   122   60   61 2    
   123   60   62 1    
   124   62   63 1    
   125   62   64 1    
   126   62  185 1    
   127   63  186 1    
   128   63  187 1    
   129   63  188 1    
   130   64   65 am   BACKBONE|DICT|INTERRES
   131   64  189 1    
   132   65   66 2    
   133   67   68 2    
   134   67   69 am   BACKBONE|DICT|INTERRES
   135   69   70 1    
   136   69  190 1    
   137   70   71 1    
   138   70   72 1    
   139   70  191 1    
   140   71  192 1    
   141   71  193 1    
   142   71  194 1    
   143   72   73 2    
   144   72   74 am   BACKBONE|DICT|INTERRES
   145   74   75 1    
   146   74  195 1    
   147   75   76 1    
   148   75   77 1    
   149   75  196 1    
   150   76  197 1    
   151   76  198 1    
   152   76  199 1    
   153   77   78 2    
   154   77   79 am   BACKBONE|DICT|INTERRES
   155   79   80 1    
   156   79  200 1    
   157   80   81 1    
   158   80   82 1    
   159   80  201 1    
   160   81  202 1    
   161   81  203 1    
   162   81  204 1    
   163   82   83 2    
   164   82   84 am   BACKBONE|DICT|INTERRES
   165   84   85 1    
   166   84  205 1    
   167   85   86 1    
   168   85   87 1    
   169   85  206 1    
   170   86  207 1    
   171   86  208 1    
   172   86  209 1    
   173   87   88 2    
   174   87   89 am   BACKBONE|DICT|INTERRES
   175   89   90 1    
   176   89  210 1    
   177   90   91 1    
   178   90   92 1    
   179   90  211 1    
   180   91  212 1    
   181   91  213 1    
   182   91  214 1    
   183   92   93 2    
   184   92   94 am   BACKBONE|DICT|INTERRES
   185   94   95 1    
   186   94  215 1    
   187   95   96 1    
   188   95   97 1    
   189   95  216 1    
   190   96  217 1    
   191   96  218 1    
   192   96  219 1    
   193   97   98 2    
   194   97   99 am   BACKBONE|DICT|INTERRES
   195   99  100 1    
   196   99  220 1    
   197  100  101 1    
   198  100  102 1    
   199  100  221 1    
   200  101  222 1    
   201  101  223 1    
   202  101  224 1    
   203  102  103 2    
   204  102  104 am   BACKBONE|DICT|INTERRES
   205  104  105 1    
   206  104  225 1    
   207  105  106 1    
   208  105  107 1    
   209  105  226 1    
   210  106  227 1    
   211  106  228 1    
   212  106  229 1    
   213  107  108 2    
   214  107  109 am   BACKBONE|DICT|INTERRES
   215  109  110 1    
   216  109  230 1    
   217  110  111 1    
   218  110  112 1    
   219  110  231 1    
   220  111  232 1    
   221  111  233 1    
   222  111  234 1    
   223  112  113 2    
   224  112  114 am   BACKBONE|DICT|INTERRES
   225  114  115 1    
   226  114  235 1    
   227  115  116 1    
   228  115  117 1    
   229  115  236 1    
   230  116  237 1    
   231  116  238 1    
   232  116  239 1    
   233  117  118 2    
   234  117  119 am   BACKBONE|DICT|INTERRES
   235  119  120 1    
   236  119  240 1    
   237  120  121 1    
   238  120  124 1    
   239  120  241 1    
   240  121  122 am   BACKBONE|DICT|INTERRES
   241  121  123 2    
   242  122  242 1    
   243  122  243 1    
   244  124  125 1    
   245  124  244 1    
   246  124  245 1    
   247  125  126 1    
   248  126  246 1    
   249  126  247 1    
@<TRIPOS>SUBSTRUCTURE
     1 UNK         1 GROUP             0       ****    0 ROOT    
