@<TRIPOS>MOLECULE
3R540
247   249    1
SMALL
USER_CHARGES


@<TRIPOS>ATOM
      1 CA          2.8052  -10.9987  -49.0945 C.3       0 UNK        -0.1800 
      2 C           1.9787  -11.8588  -48.1495 C.2       0 UNK         0.5000 
      3 O           2.5396  -12.6541  -47.3968 O.2       0 UNK        -0.5000 
      4 N           0.6490  -11.7026  -48.1852 N.am      1 UNK        -0.5000 
      5 CA         -0.3006  -12.4447  -47.3445 C.3       1 UNK         0.1400 
      6 C6         -1.7498  -12.3699  -47.8823 C.3       23 UNK        -0.0398 
      7 S7         -1.8800  -13.0586  -49.5655 S.3       23 UNK        -0.2404 
      8 C8         -2.3758  -14.7698  -49.2008 C.3       23 UNK        -0.0205 
      9 C9         -1.9313  -15.7058  -50.3115 C.ar      23 UNK        -0.0193 
     10 C10        -2.7267  -15.8887  -51.4473 C.ar      23 UNK        -0.1150 
     11 C11        -2.3104  -16.7402  -52.4759 C.ar      23 UNK        -0.0193 
     12 C12        -1.0891  -17.4113  -52.3511 C.ar      23 UNK        -0.1150 
     13 C13        -0.2928  -17.2484  -51.2166 C.ar      23 UNK        -0.0193 
     14 C14        -0.7159  -16.3874  -50.2023 C.ar      23 UNK        -0.1150 
     15 C15         1.0247  -18.0001  -51.1041 C.3       23 UNK        -0.0205 
     16 S16         0.7789  -19.7052  -50.5134 S.3       23 UNK        -0.2404 
     17 C17         0.6805  -19.4402  -48.7139 C.3       23 UNK        -0.0398 
     18 CA          0.5057  -20.7635  -47.9253 C.3       11 UNK         0.1400 
     19 N           1.1313  -20.6856  -46.6054 N.am      11 UNK        -0.5000 
     20 C           2.1162  -21.4766  -46.1628 C.2       10 UNK         0.5000 
     21 O           2.7178  -22.2850  -46.8704 O.2       10 UNK        -0.5000 
     22 CA          2.4827  -21.3722  -44.6661 C.3       10 UNK         0.1400 
     23 CB          3.7970  -20.6005  -44.4701 C.3       10 UNK        -0.1800 
     24 N           1.4393  -20.7824  -43.8185 N.am      10 UNK        -0.5000 
     25 C           0.2254  -21.3209  -43.6240 C.2       9 UNK         0.5000 
     26 O          -0.1717  -22.3125  -44.2336 O.2       9 UNK        -0.5000 
     27 CA         -0.7134  -20.6275  -42.6163 C.3       9 UNK         0.1400 
     28 CB         -1.7808  -21.5784  -42.0387 C.3       9 UNK        -0.1800 
     29 N          -0.0139  -19.9217  -41.5437 N.am      9 UNK        -0.5000 
     30 C           0.8412  -20.4119  -40.6330 C.2       8 UNK         0.5000 
     31 O           1.1359  -21.6034  -40.5357 O.2       8 UNK        -0.5000 
     32 CA          1.4897  -19.3853  -39.6810 C.3       8 UNK         0.1400 
     33 CB          3.0248  -19.4817  -39.7237 C.3       8 UNK        -0.1800 
     34 N           1.0910  -18.0192  -40.0353 N.am      8 UNK        -0.5000 
     35 C           0.2803  -17.2401  -39.3087 C.2       7 UNK         0.5000 
     36 O          -0.1333  -17.5353  -38.1872 O.2       7 UNK        -0.5000 
     37 CA         -0.1730  -15.9177  -39.9557 C.3       7 UNK         0.1400 
     38 CB          0.8078  -14.7853  -39.6159 C.3       7 UNK        -0.1800 
     39 N          -0.3543  -15.9962  -41.4111 N.am      7 UNK        -0.5000 
     40 C          -1.3297  -16.6969  -42.0123 C.2       6 UNK         0.5000 
     41 O          -2.0968  -17.4426  -41.4050 O.2       6 UNK        -0.5000 
     42 CA         -1.4738  -16.5753  -43.5380 C.3       6 UNK         0.1400 
     43 CB         -2.3212  -15.3468  -43.8969 C.3       6 UNK        -0.1800 
     44 N          -0.1714  -16.4827  -44.1939 N.am      6 UNK        -0.5000 
     45 C           0.3311  -17.4111  -45.0189 C.2       5 UNK         0.5000 
     46 O          -0.2676  -18.4301  -45.3728 O.2       5 UNK        -0.5000 
     47 CA          1.7815  -17.2007  -45.4940 C.3       5 UNK         0.1400 
     48 CB          1.8114  -16.2728  -46.7156 C.3       5 UNK        -0.1800 
     49 N           2.6737  -16.6616  -44.4672 N.am      5 UNK        -0.5000 
     50 C           2.8298  -17.1282  -43.2199 C.2       4 UNK         0.5000 
     51 O           2.2787  -18.1427  -42.7913 O.2       4 UNK        -0.5000 
     52 CA          3.6951  -16.2859  -42.2623 C.3       4 UNK         0.1400 
     53 CB          5.1178  -16.8590  -42.1984 C.3       4 UNK        -0.1800 
     54 N           3.7679  -14.8531  -42.5811 N.am      4 UNK        -0.5000 
     55 C           2.7357  -14.0213  -42.7881 C.2       3 UNK         0.5000 
     56 O           1.5535  -14.3833  -42.7711 O.2       3 UNK        -0.5000 
     57 CA          3.0867  -12.5552  -43.0947 C.3       3 UNK         0.1400 
     58 CB          4.2117  -12.4337  -44.1456 C.3       3 UNK        -0.1800 
     59 N           1.8822  -11.8872  -43.5700 N.am      3 UNK        -0.5000 
     60 C           1.6710  -10.5731  -43.6682 C.2       2 UNK         0.5000 
     61 O           2.4937   -9.7230  -43.3220 O.2       2 UNK        -0.5000 
     62 CA          0.3200  -10.1519  -44.2880 C.3       2 UNK         0.1400 
     63 CB          0.1641   -8.6242  -44.3970 C.3       2 UNK        -0.1800 
     64 N           0.1322  -10.7380  -45.6180 N.am      2 UNK        -0.5000 
     65 C          -0.2469  -11.9992  -45.8694 C.2       1 UNK         0.5000 
     66 O          -0.5180  -12.8105  -44.9856 O.2       1 UNK        -0.5000 
     67 C          -0.9801  -21.1431  -47.7625 C.2       11 UNK         0.5000 
     68 O          -1.4765  -22.0030  -48.4915 O.2       11 UNK        -0.5000 
     69 N          -1.6616  -20.5195  -46.7871 N.am      12 UNK        -0.5000 
     70 CA         -3.0984  -20.6616  -46.5425 C.3       12 UNK         0.1400 
     71 CB         -3.5381  -19.6372  -45.4874 C.3       12 UNK        -0.1800 
     72 C          -3.5695  -22.0781  -46.1552 C.2       12 UNK         0.5000 
     73 O          -4.7410  -22.3885  -46.3735 O.2       12 UNK        -0.5000 
     74 N          -2.6754  -22.9267  -45.6248 N.am      13 UNK        -0.5000 
     75 CA         -2.9656  -24.3294  -45.3060 C.3       13 UNK         0.1400 
     76 CB         -1.7898  -24.9498  -44.5376 C.3       13 UNK        -0.1800 
     77 C          -3.3073  -25.1874  -46.5399 C.2       13 UNK         0.5000 
     78 O          -4.0318  -26.1742  -46.4034 O.2       13 UNK        -0.5000 
     79 N          -2.8333  -24.7847  -47.7282 N.am      14 UNK        -0.5000 
     80 CA         -3.1446  -25.4114  -49.0138 C.3       14 UNK         0.1400 
     81 CB         -1.9923  -25.1331  -49.9957 C.3       14 UNK        -0.1800 
     82 C          -4.5161  -24.9480  -49.5507 C.2       14 UNK         0.5000 
     83 O          -4.6028  -24.4622  -50.6795 O.2       14 UNK        -0.5000 
     84 N          -5.5599  -25.0886  -48.7206 N.am      15 UNK        -0.5000 
     85 CA         -6.9633  -24.7436  -48.9753 C.3       15 UNK         0.1400 
     86 CB         -7.5643  -25.7074  -50.0204 C.3       15 UNK        -0.1800 
     87 C          -7.1458  -23.2613  -49.3601 C.2       15 UNK         0.5000 
     88 O          -7.6625  -22.9625  -50.4359 O.2       15 UNK        -0.5000 
     89 N          -6.6508  -22.3550  -48.5035 N.am      16 UNK        -0.5000 
     90 CA         -6.5737  -20.9018  -48.7209 C.3       16 UNK         0.1400 
     91 CB         -7.9798  -20.2712  -48.8034 C.3       16 UNK        -0.1800 
     92 C          -5.6719  -20.5375  -49.9215 C.2       16 UNK         0.5000 
     93 O          -5.9291  -19.5561  -50.6190 O.2       16 UNK        -0.5000 
     94 N          -4.6453  -21.3727  -50.1400 N.am      17 UNK        -0.5000 
     95 CA         -3.6876  -21.3790  -51.2484 C.3       17 UNK         0.1400 
     96 CB         -2.8828  -20.0693  -51.3012 C.3       17 UNK        -0.1800 
     97 C          -4.2949  -21.7574  -52.6173 C.2       17 UNK         0.5000 
     98 O          -3.5994  -21.6502  -53.6293 O.2       17 UNK        -0.5000 
     99 N          -5.5490  -22.2349  -52.6466 N.am      18 UNK        -0.5000 
    100 CA        -6.2275  -22.6833  -53.8629 C.3       18 UNK         0.1400 
    101 CB        -7.7410  -22.7703  -53.6228 C.3       18 UNK        -0.1800 
    102 C         -5.6878  -24.0277  -54.3791 C.2       18 UNK         0.5000 
    103 O         -5.6133  -24.2130  -55.5935 O.2       18 UNK        -0.5000 
    104 N         -5.2718  -24.9241  -53.4704 N.am      19 UNK        -0.5000 
    105 CA        -4.6415  -26.2026  -53.8217 C.3       19 UNK         0.1400 
    106 CB        -4.7062  -27.1680  -52.6288 C.3       19 UNK        -0.1800 
    107 C         -3.1895  -26.0169  -54.3030 C.2       19 UNK         0.5000 
    108 O         -2.6913  -26.8390  -55.0720 O.2       19 UNK        -0.5000 
    109 N         -2.5581  -24.9139  -53.8780 N.am      20 UNK        -0.5000 
    110 CA        -1.2666  -24.4360  -54.3726 C.3       20 UNK         0.1400 
    111 CB        -0.5982  -23.5960  -53.2702 C.3       20 UNK        -0.1800 
    112 C         -1.3960  -23.6194  -55.6772 C.2       20 UNK         0.5000 
    113 O         -0.3746  -23.1931  -56.2180 O.2       20 UNK        -0.5000 
    114 N         -2.6348  -23.3759  -56.1387 N.am      21 UNK        -0.5000 
    115 CA        -3.0205  -22.5747  -57.3079 C.3       21 UNK         0.1400 
    116 CB        -2.6127  -23.2964  -58.6084 C.3       21 UNK        -0.1800 
    117 C         -2.5099  -21.1179  -57.2462 C.2       21 UNK         0.5000 
    118 O         -2.2285  -20.5161  -58.2841 O.2       21 UNK        -0.5000 
    119 N         -2.3745  -20.5901  -56.0222 N.am      22 UNK        -0.5000 
    120 CA        -1.7272  -19.3128  -55.6938 C.3       22 UNK         0.1400 
    121 C         -0.1951  -19.2567  -56.0077 C.2       22 UNK         0.5000 
    122 N          0.4872  -20.3791  -56.2075 N.am      22 UNK        -0.7600 
    123 O          0.4038  -18.1863  -56.0457 O.2       22 UNK        -0.5000 
    124 C124       -2.5389  -18.0929  -56.2216 C.3       23 UNK        -0.0398 
    125 S125       -2.3234  -16.5577  -55.2515 S.3       23 UNK        -0.2404 
    126 C126       -3.1929  -16.9592  -53.7001 C.3       23 UNK        -0.0205 
    127 H127        2.1784  -10.3444  -49.7008 H         1 UNK         0.0600 
    128 H128        3.4972  -10.3771  -48.5263 H         1 UNK         0.0600 
    129 H129        3.3857  -11.6315  -49.7657 H         1 UNK         0.0600 
    130 H130        0.2403  -11.0570  -48.8461 H         1 UNK         0.3000 
    131 H131       -0.0008  -13.4948  -47.3597 H         1 UNK         0.0600 
    132 H132       -2.0961  -11.3353  -47.9083 H         1 UNK         0.0800 
    133 H133       -2.4396  -12.9034  -47.2251 H         1 UNK         0.0800 
    134 H134       -3.4585  -14.8166  -49.0745 H         1 UNK         0.0800 
    135 H135       -1.9400  -15.0924  -48.2537 H         1 UNK         0.0800 
    136 H136       -3.6680  -15.3636  -51.5286 H         1 UNK         0.1150 
    137 H137       -0.7495  -18.0696  -53.1348 H         1 UNK         0.1150 
    138 H138       -0.0984  -16.2416  -49.3296 H         1 UNK         0.1150 
    139 H139        1.5036  -18.0363  -52.0839 H         1 UNK         0.0800 
    140 H140        1.7183  -17.4715  -50.4485 H         1 UNK         0.0800 
    141 H141        1.6159  -18.9605  -48.4226 H         1 UNK         0.0800 
    142 H142       -0.1081  -18.7208  -48.4858 H         1 UNK         0.0800 
    143 H143        0.9719  -21.5711  -48.4938 H         1 UNK         0.0600 
    144 H144        0.6903  -20.0603  -45.9411 H         1 UNK         0.3000 
    145 H145        2.6417  -22.3922  -44.3101 H         1 UNK         0.0600 
    146 H146        4.0792  -20.5615  -43.4176 H         1 UNK         0.0600 
    147 H147        4.6146  -21.0822  -45.0076 H         1 UNK         0.0600 
    148 H148        3.7277  -19.5772  -44.8351 H         1 UNK         0.0600 
    149 H149        1.6887  -19.9381  -43.3115 H         1 UNK         0.3000 
    150 H150       -1.2322  -19.8543  -43.1810 H         1 UNK         0.0600 
    151 H151       -2.4123  -21.9880  -42.8277 H         1 UNK         0.0600 
    152 H152       -2.4362  -21.0566  -41.3413 H         1 UNK         0.0600 
    153 H153       -1.3289  -22.4190  -41.5114 H         1 UNK         0.0600 
    154 H154       -0.2053  -18.9322  -41.4906 H         1 UNK         0.3000 
    155 H155        1.1609  -19.6341  -38.6702 H         1 UNK         0.0600 
    156 H156        3.3640  -20.4568  -39.3724 H         1 UNK         0.0600 
    157 H157        3.4858  -18.7288  -39.0844 H         1 UNK         0.0600 
    158 H158        3.4123  -19.3479  -40.7334 H         1 UNK         0.0600 
    159 H159        1.3766  -17.7119  -40.9571 H         1 UNK         0.3000 
    160 H160       -1.1403  -15.6589  -39.5196 H         1 UNK         0.0600 
    161 H161        1.8089  -14.9885  -39.9943 H         1 UNK         0.0600 
    162 H162        0.4764  -13.8357  -40.0366 H         1 UNK         0.0600 
    163 H163        0.8887  -14.6518  -38.5365 H         1 UNK         0.0600 
    164 H164        0.2493  -15.3950  -41.9669 H         1 UNK         0.3000 
    165 H165       -2.0112  -17.4598  -43.8846 H         1 UNK         0.0600 
    166 H166       -2.3978  -15.2196  -44.9769 H         1 UNK         0.0600 
    167 H167       -3.3345  -15.4459  -43.5060 H         1 UNK         0.0600 
    168 H168       -1.8990  -14.4325  -43.4793 H         1 UNK         0.0600 
    169 H169        0.4095  -15.6907  -43.9416 H         1 UNK         0.3000 
    170 H170        2.1740  -18.1711  -45.7962 H         1 UNK         0.0600 
    171 H171        1.1526  -16.6411  -47.5002 H         1 UNK         0.0600 
    172 H172        1.4888  -15.2623  -46.4612 H         1 UNK         0.0600 
    173 H173        2.8137  -16.2068  -47.1391 H         1 UNK         0.0600 
    174 H174        3.1665  -15.8151  -44.7094 H         1 UNK         0.3000 
    175 H175        3.2523  -16.3754  -41.2697 H         1 UNK         0.0600 
    176 H176        5.6369  -16.7530  -43.1518 H         1 UNK         0.0600 
    177 H177        5.7118  -16.3577  -41.4340 H         1 UNK         0.0600 
    178 H178        5.1038  -17.9212  -41.9498 H         1 UNK         0.0600 
    179 H179        4.6997  -14.4666  -42.6267 H         1 UNK         0.3000 
    180 H180        3.4041  -12.0867  -42.1614 H         1 UNK         0.0600 
    181 H181        5.1525  -12.8423  -43.7767 H         1 UNK         0.0600 
    182 H182        3.9578  -12.9632  -45.0647 H         1 UNK         0.0600 
    183 H183        4.4056  -11.3939  -44.4081 H         1 UNK         0.0600 
    184 H184        1.1319  -12.5189  -43.8401 H         1 UNK         0.3000 
    185 H185       -0.4668  -10.5186  -43.6252 H         1 UNK         0.0600 
    186 H186        0.2570   -8.1502  -43.4190 H         1 UNK         0.0600 
    187 H187        0.9214   -8.1869  -45.0488 H         1 UNK         0.0600 
    188 H188       -0.8153   -8.3556  -44.7934 H         1 UNK         0.0600 
    189 H189        0.3859  -10.1555  -46.4024 H         1 UNK         0.3000 
    190 H190       -1.1921  -19.8034  -46.2404 H         1 UNK         0.3000 
    191 H191       -3.5993  -20.4083  -47.4784 H         1 UNK         0.0600 
    192 H192       -4.6209  -19.6531  -45.3561 H         1 UNK         0.0600 
    193 H193       -3.2626  -18.6237  -45.7801 H         1 UNK         0.0600 
    194 H194       -3.0905  -19.8425  -44.5163 H         1 UNK         0.0600 
    195 H195       -1.7334  -22.6046  -45.4239 H         1 UNK         0.3000 
    196 H196       -3.8396  -24.3461  -44.6517 H         1 UNK         0.0600 
    197 H197       -1.9735  -26.0026  -44.3189 H         1 UNK         0.0600 
    198 H198       -1.6351  -24.4477  -43.5828 H         1 UNK         0.0600 
    199 H199       -0.8613  -24.8888  -45.1066 H         1 UNK         0.0600 
    200 H200       -2.2868  -23.9320  -47.7689 H         1 UNK         0.3000 
    201 H201       -3.2044  -26.4933  -48.8792 H         1 UNK         0.0600 
    202 H202       -1.0462  -25.5104  -49.6078 H         1 UNK         0.0600 
    203 H203       -1.8706  -24.0674  -50.1855 H         1 UNK         0.0600 
    204 H204       -2.1634  -25.6209  -50.9555 H         1 UNK         0.0600 
    205 H205       -5.3627  -25.4873  -47.8087 H         1 UNK         0.3000 
    206 H206       -7.4999  -24.8916  -48.0372 H         1 UNK         0.0600 
    207 H207       -7.4420  -26.7466  -49.7156 H         1 UNK         0.0600 
    208 H208       -8.6329  -25.5289  -50.1455 H         1 UNK         0.0600 
    209 H209       -7.0981  -25.5885  -50.9988 H         1 UNK         0.0600 
    210 H210       -6.1844  -22.6791  -47.6601 H         1 UNK         0.3000 
    211 H211       -6.0863  -20.4854  -47.8390 H         1 UNK         0.0600 
    212 H212       -8.5078  -20.5664  -49.7105 H         1 UNK         0.0600 
    213 H213       -7.9182  -19.1824  -48.8043 H         1 UNK         0.0600 
    214 H214       -8.5919  -20.5597  -47.9490 H         1 UNK         0.0600 
    215 H215       -4.5717  -22.1702  -49.5251 H         1 UNK         0.3000 
    216 H216       -2.9801  -22.1745  -51.0168 H         1 UNK         0.0600 
    217 H217       -3.5065  -19.2226  -51.5838 H         1 UNK         0.0600 
    218 H218       -2.0732  -20.1387  -52.0282 H         1 UNK         0.0600 
    219 H219       -2.4295  -19.8434  -50.3362 H         1 UNK         0.0600 
    220 H220       -6.0594  -22.3412  -51.7777 H         1 UNK         0.3000 
    221 H221       -6.0555  -21.9341  -54.6388 H         1 UNK         0.0600 
    222 H222       -7.9952  -23.5815  -52.9399 H         1 UNK         0.0600 
    223 H223       -8.1317  -21.8422  -53.2051 H         1 UNK         0.0600 
    224 H224       -8.2707  -22.9569  -54.5576 H         1 UNK         0.0600 
    225 H225       -5.2982  -24.6841  -52.4825 H         1 UNK         0.3000 
    226 H226       -5.2071  -26.6500  -54.6419 H         1 UNK         0.0600 
    227 H227       -5.7266  -27.2794  -52.2623 H         1 UNK         0.0600 
    228 H228       -4.3545  -28.1595  -52.9161 H         1 UNK         0.0600 
    229 H229       -4.0837  -26.8339  -51.8007 H         1 UNK         0.0600 
    230 H230       -3.0545  -24.2980  -53.2506 H         1 UNK         0.3000 
    231 H231       -0.6231  -25.2918  -54.5860 H         1 UNK         0.0600 
    232 H232       -1.1904  -22.7183  -53.0110 H         1 UNK         0.0600 
    233 H233       -0.4505  -24.1816  -52.3633 H         1 UNK         0.0600 
    234 H234        0.3842  -23.2431  -53.5863 H         1 UNK         0.0600 
    235 H235       -3.4116  -23.7591  -55.6174 H         1 UNK         0.3000 
    236 H236       -4.1093  -22.5129  -57.2906 H         1 UNK         0.0600 
    237 H237       -2.9971  -24.3162  -58.6291 H         1 UNK         0.0600 
    238 H238       -3.0116  -22.7834  -59.4841 H         1 UNK         0.0600 
    239 H239       -1.5291  -23.3437  -58.7215 H         1 UNK         0.0600 
    240 H240       -2.6807  -21.1395  -55.2226 H         1 UNK         0.3000 
    241 H241       -1.7799  -19.2977  -54.6079 H         1 UNK         0.0600 
    242 H242        1.4743  -20.3216  -56.3995 H         1 UNK         0.3800 
    243 H243        0.0373  -21.2893  -56.1951 H         1 UNK         0.3800 
    244 H244       -3.6052  -18.3236  -56.2222 H         1 UNK         0.0800 
    245 H245       -2.2826  -17.8881  -57.2621 H         1 UNK         0.0800 
    246 H246       -4.0914  -16.3431  -53.6423 H         1 UNK         0.0800 
    247 H247       -3.5380  -17.9935  -53.7070 H         1 UNK         0.0800 
@<TRIPOS>BOND
     1    1    2 1    
     2    1  127 1    
     3    1  128 1    
     4    1  129 1    
     5    2    3 2    
     6    2    4 am   BACKBONE|DICT|INTERRES
     7    4    5 1    
     8    4  130 1    
     9    5    6 1    
    10    5   65 1    
    11    5  131 1    
    12    6    7 1    
    13    6  132 1    
    14    6  133 1    
    15    7    8 1    
    16    8    9 1    
    17    8  134 1    
    18    8  135 1    
    19    9   10 ar   
    20    9   14 ar   
    21   10   11 ar   
    22   10  136 1    
    23   11   12 ar   
    24   11  126 1    
    25   12   13 ar   
    26   12  137 1    
    27   13   14 ar   
    28   13   15 1    
    29   14  138 1    
    30   15   16 1    
    31   15  139 1    
    32   15  140 1    
    33   16   17 1    
    34   17   18 1    
    35   17  141 1    
    36   17  142 1    
    37   18   19 1    
    38   18   67 1    
    39   18  143 1    
    40   19   20 am   BACKBONE|DICT|INTERRES
    41   19  144 1    
    42   20   21 2    
    43   20   22 1    
    44   22   23 1    
    45   22   24 1    
    46   22  145 1    
    47   23  146 1    
    48   23  147 1    
    49   23  148 1    
    50   24   25 am   BACKBONE|DICT|INTERRES
    51   24  149 1    
    52   25   26 2    
    53   25   27 1    
    54   27   28 1    
    55   27   29 1    
    56   27  150 1    
    57   28  151 1    
    58   28  152 1    
    59   28  153 1    
    60   29   30 am   BACKBONE|DICT|INTERRES
    61   29  154 1    
    62   30   31 2    
    63   30   32 1    
    64   32   33 1    
    65   32   34 1    
    66   32  155 1    
    67   33  156 1    
    68   33  157 1    
    69   33  158 1    
    70   34   35 am   BACKBONE|DICT|INTERRES
    71   34  159 1    
    72   35   36 2    
    73   35   37 1    
    74   37   38 1    
    75   37   39 1    
    76   37  160 1    
    77   38  161 1    
    78   38  162 1    
    79   38  163 1    
    80   39   40 am   BACKBONE|DICT|INTERRES
    81   39  164 1    
    82   40   41 2    
    83   40   42 1    
    84   42   43 1    
    85   42   44 1    
    86   42  165 1    
    87   43  166 1    
    88   43  167 1    
    89   43  168 1    
    90   44   45 am   BACKBONE|DICT|INTERRES
    91   44  169 1    
    92   45   46 2    
    93   45   47 1    
    94   47   48 1    
    95   47   49 1    
    96   47  170 1    
    97   48  171 1    
    98   48  172 1    
    99   48  173 1    
   100   49   50 am   BACKBONE|DICT|INTERRES
   101   49  174 1    
   102   50   51 2    
   103   50   52 1    
   104   52   53 1    
   105   52   54 1    
   106   52  175 1    
   107   53  176 1    
   108   53  177 1    
   109   53  178 1    
   110   54   55 am   BACKBONE|DICT|INTERRES
   111   54  179 1    
   112   55   56 2    
   113   55   57 1    
   114   57   58 1    
   115   57   59 1    
   116   57  180 1    
   117   58  181 1    
   118   58  182 1    
   119   58  183 1    
   120   59   60 am   BACKBONE|DICT|INTERRES
   121   59  184 1    
   122   60   61 2    
   123   60   62 1    
   124   62   63 1    
   125   62   64 1    
   126   62  185 1    
   127   63  186 1    
   128   63  187 1    
   129   63  188 1    
   130   64   65 am   BACKBONE|DICT|INTERRES
   131   64  189 1    
   132   65   66 2    
   133   67   68 2    
   134   67   69 am   BACKBONE|DICT|INTERRES
   135   69   70 1    
   136   69  190 1    
   137   70   71 1    
   138   70   72 1    
   139   70  191 1    
   140   71  192 1    
   141   71  193 1    
   142   71  194 1    
   143   72   73 2    
   144   72   74 am   BACKBONE|DICT|INTERRES
   145   74   75 1    
   146   74  195 1    
   147   75   76 1    
   148   75   77 1    
   149   75  196 1    
   150   76  197 1    
   151   76  198 1    
   152   76  199 1    
   153   77   78 2    
   154   77   79 am   BACKBONE|DICT|INTERRES
   155   79   80 1    
   156   79  200 1    
   157   80   81 1    
   158   80   82 1    
   159   80  201 1    
   160   81  202 1    
   161   81  203 1    
   162   81  204 1    
   163   82   83 2    
   164   82   84 am   BACKBONE|DICT|INTERRES
   165   84   85 1    
   166   84  205 1    
   167   85   86 1    
   168   85   87 1    
   169   85  206 1    
   170   86  207 1    
   171   86  208 1    
   172   86  209 1    
   173   87   88 2    
   174   87   89 am   BACKBONE|DICT|INTERRES
   175   89   90 1    
   176   89  210 1    
   177   90   91 1    
   178   90   92 1    
   179   90  211 1    
   180   91  212 1    
   181   91  213 1    
   182   91  214 1    
   183   92   93 2    
   184   92   94 am   BACKBONE|DICT|INTERRES
   185   94   95 1    
   186   94  215 1    
   187   95   96 1    
   188   95   97 1    
   189   95  216 1    
   190   96  217 1    
   191   96  218 1    
   192   96  219 1    
   193   97   98 2    
   194   97   99 am   BACKBONE|DICT|INTERRES
   195   99  100 1    
   196   99  220 1    
   197  100  101 1    
   198  100  102 1    
   199  100  221 1    
   200  101  222 1    
   201  101  223 1    
   202  101  224 1    
   203  102  103 2    
   204  102  104 am   BACKBONE|DICT|INTERRES
   205  104  105 1    
   206  104  225 1    
   207  105  106 1    
   208  105  107 1    
   209  105  226 1    
   210  106  227 1    
   211  106  228 1    
   212  106  229 1    
   213  107  108 2    
   214  107  109 am   BACKBONE|DICT|INTERRES
   215  109  110 1    
   216  109  230 1    
   217  110  111 1    
   218  110  112 1    
   219  110  231 1    
   220  111  232 1    
   221  111  233 1    
   222  111  234 1    
   223  112  113 2    
   224  112  114 am   BACKBONE|DICT|INTERRES
   225  114  115 1    
   226  114  235 1    
   227  115  116 1    
   228  115  117 1    
   229  115  236 1    
   230  116  237 1    
   231  116  238 1    
   232  116  239 1    
   233  117  118 2    
   234  117  119 am   BACKBONE|DICT|INTERRES
   235  119  120 1    
   236  119  240 1    
   237  120  121 1    
   238  120  124 1    
   239  120  241 1    
   240  121  122 am   BACKBONE|DICT|INTERRES
   241  121  123 2    
   242  122  242 1    
   243  122  243 1    
   244  124  125 1    
   245  124  244 1    
   246  124  245 1    
   247  125  126 1    
   248  126  246 1    
   249  126  247 1    
@<TRIPOS>SUBSTRUCTURE
     1 UNK         1 GROUP             0       ****    0 ROOT    
