@<TRIPOS>MOLECULE
3R540
247   249    1
SMALL
USER_CHARGES


@<TRIPOS>ATOM
      1 CA          0.6386  -11.0053  -46.5556 C.3       0 UNK        -0.1800 
      2 C           1.8689  -11.3304  -47.3917 C.2       0 UNK         0.5000 
      3 O           2.3354  -10.4814  -48.1511 O.2       0 UNK        -0.5000 
      4 N           2.3943  -12.5501  -47.2413 N.am      1 UNK        -0.5000 
      5 CA          3.5876  -13.0659  -47.9241 C.3       1 UNK         0.1400 
      6 C6          3.2599  -14.3446  -48.7369 C.3       23 UNK        -0.0398 
      7 S7          2.1825  -13.9893  -50.1695 S.3       23 UNK        -0.2404 
      8 C8          3.0651  -14.8283  -51.5271 C.3       23 UNK        -0.0205 
      9 C9          2.7187  -16.3090  -51.5818 C.ar      23 UNK        -0.0193 
     10 C10         1.7263  -16.7661  -52.4562 C.ar      23 UNK        -0.1150 
     11 C11         1.3716  -18.1181  -52.4790 C.ar      23 UNK        -0.0193 
     12 C12         2.0289  -19.0163  -51.6382 C.ar      23 UNK        -0.1150 
     13 C13         2.9841  -18.5636  -50.7257 C.ar      23 UNK        -0.0193 
     14 C14         3.3527  -17.2164  -50.7268 C.ar      23 UNK        -0.1150 
     15 C15         3.5353  -19.5130  -49.6724 C.3       23 UNK        -0.0205 
     16 S16         2.7837  -19.2075  -48.0332 S.3       23 UNK        -0.2404 
     17 C17         0.9919  -19.3515  -48.3688 C.3       23 UNK        -0.0398 
     18 CA          0.3553  -20.5850  -47.6951 C.3       11 UNK         0.1400 
     19 N           0.1945  -20.4060  -46.2517 N.am      11 UNK        -0.5000 
     20 C          -0.0961  -21.3890  -45.3899 C.2       10 UNK         0.5000 
     21 O          -0.2056  -22.5715  -45.7125 O.2       10 UNK        -0.5000 
     22 CA         -0.3606  -20.9651  -43.9333 C.3       10 UNK         0.1400 
     23 CB          0.9592  -20.8013  -43.1644 C.3       10 UNK        -0.1800 
     24 N          -1.1344  -19.7240  -43.8502 N.am      10 UNK        -0.5000 
     25 C          -2.4104  -19.6022  -44.2448 C.2       9 UNK         0.5000 
     26 O          -3.0870  -20.5427  -44.6576 O.2       9 UNK        -0.5000 
     27 CA         -3.0156  -18.1855  -44.2373 C.3       9 UNK         0.1400 
     28 CB         -3.7589  -17.9059  -42.9230 C.3       9 UNK        -0.1800 
     29 N          -2.0301  -17.1284  -44.4844 N.am      9 UNK        -0.5000 
     30 C          -1.3769  -16.9742  -45.6494 C.2       8 UNK         0.5000 
     31 O          -1.5193  -17.7474  -46.5968 O.2       8 UNK        -0.5000 
     32 CA         -0.3905  -15.8012  -45.7960 C.3       8 UNK         0.1400 
     33 CB         -0.9047  -14.7657  -46.8112 C.3       8 UNK        -0.1800 
     34 N          -0.1059  -15.1579  -44.5159 N.am      8 UNK        -0.5000 
     35 C           0.9918  -14.4709  -44.2038 C.2       7 UNK         0.5000 
     36 O           1.9003  -14.2406  -45.0019 O.2       7 UNK        -0.5000 
     37 CA          1.1117  -13.9671  -42.7537 C.3       7 UNK         0.1400 
     38 CB          0.2198  -12.7342  -42.5232 C.3       7 UNK        -0.1800 
     39 N           0.8867  -14.9887  -41.7211 N.am      7 UNK        -0.5000 
     40 C          -0.2225  -15.6890  -41.4300 C.2       6 UNK         0.5000 
     41 O          -1.2717  -15.6115  -42.0731 O.2       6 UNK        -0.5000 
     42 CA         -0.1563  -16.6596  -40.2324 C.3       6 UNK         0.1400 
     43 CB         -0.1188  -18.1169  -40.7155 C.3       6 UNK        -0.1800 
     44 N           0.9990  -16.4287  -39.3664 N.am      6 UNK        -0.5000 
     45 C           1.1148  -15.4244  -38.4861 C.2       5 UNK         0.5000 
     46 O           0.2169  -14.6142  -38.2544 O.2       5 UNK        -0.5000 
     47 CA          2.4658  -15.2904  -37.7521 C.3       5 UNK         0.1400 
     48 CB          2.3547  -15.8310  -36.3182 C.3       5 UNK        -0.1800 
     49 N           3.5766  -15.9686  -38.4291 N.am      5 UNK        -0.5000 
     50 C           4.0769  -15.6243  -39.6235 C.2       4 UNK         0.5000 
     51 O           3.6641  -14.6605  -40.2744 O.2       4 UNK        -0.5000 
     52 CA          5.2105  -16.5071  -40.1937 C.3       4 UNK         0.1400 
     53 CB          5.2398  -17.9387  -39.6116 C.3       4 UNK        -0.1800 
     54 N           5.1847  -16.5534  -41.6581 N.am      4 UNK        -0.5000 
     55 C           4.1853  -16.9780  -42.4434 C.2       3 UNK         0.5000 
     56 O           3.1332  -17.4569  -42.0167 O.2       3 UNK        -0.5000 
     57 CA          4.3962  -16.7841  -43.9594 C.3       3 UNK         0.1400 
     58 CB          3.2780  -17.4255  -44.8011 C.3       3 UNK        -0.1800 
     59 N           4.4904  -15.3635  -44.3015 N.am      3 UNK        -0.5000 
     60 C           5.5615  -14.5800  -44.1095 C.2       2 UNK         0.5000 
     61 O           6.6220  -14.9917  -43.6335 O.2       2 UNK        -0.5000 
     62 CA          5.4069  -13.0916  -44.4902 C.3       2 UNK         0.1400 
     63 CB          6.7573  -12.3671  -44.6705 C.3       2 UNK        -0.1800 
     64 N           4.5361  -12.8865  -45.6524 N.am      2 UNK        -0.5000 
     65 C           4.7268  -13.3202  -46.9093 C.2       1 UNK         0.5000 
     66 O           5.7458  -13.9050  -47.2790 O.2       1 UNK        -0.5000 
     67 C          -0.9844  -20.9433  -48.3684 C.2       11 UNK         0.5000 
     68 O          -1.0085  -21.8316  -49.2190 O.2       11 UNK        -0.5000 
     69 N          -2.0780  -20.2841  -47.9575 N.am      12 UNK        -0.5000 
     70 CA         -3.4331  -20.5841  -48.4241 C.3       12 UNK         0.1400 
     71 CB         -4.4185  -19.5333  -47.8951 C.3       12 UNK        -0.1800 
     72 C          -3.8824  -22.0053  -48.0389 C.2       12 UNK         0.5000 
     73 O          -4.4505  -22.7054  -48.8766 O.2       12 UNK        -0.5000 
     74 N          -3.5761  -22.4258  -46.8028 N.am      13 UNK        -0.5000 
     75 CA         -3.8025  -23.7822  -46.3018 C.3       13 UNK         0.1400 
     76 CB         -3.5056  -23.8392  -44.7964 C.3       13 UNK        -0.1800 
     77 C          -2.9858  -24.8413  -47.0646 C.2       13 UNK         0.5000 
     78 O          -3.5365  -25.8847  -47.4164 O.2       13 UNK        -0.5000 
     79 N          -1.7125  -24.5380  -47.3607 N.am      14 UNK        -0.5000 
     80 CA         -0.8315  -25.3662  -48.1926 C.3       14 UNK         0.1400 
     81 CB          0.5993  -24.8097  -48.1468 C.3       14 UNK        -0.1800 
     82 C          -1.3245  -25.4987  -49.6486 C.2       14 UNK         0.5000 
     83 O          -1.1442  -26.5527  -50.2582 O.2       14 UNK        -0.5000 
     84 N          -1.9946  -24.4544  -50.1535 N.am      15 UNK        -0.5000 
     85 CA         -2.7065  -24.4213  -51.4329 C.3       15 UNK         0.1400 
     86 CB         -2.7491  -22.9678  -51.9400 C.3       15 UNK        -0.1800 
     87 C          -4.1208  -25.0461  -51.3630 C.2       15 UNK         0.5000 
     88 O          -4.9237  -24.8097  -52.2661 O.2       15 UNK        -0.5000 
     89 N          -4.4108  -25.8184  -50.3036 N.am      16 UNK        -0.5000 
     90 CA         -5.6513  -26.5543  -50.0366 C.3       16 UNK         0.1400 
     91 CB         -5.8607  -27.6730  -51.0782 C.3       16 UNK        -0.1800 
     92 C          -6.8713  -25.6268  -49.8725 C.2       16 UNK         0.5000 
     93 O          -7.9288  -25.8804  -50.4506 O.2       16 UNK        -0.5000 
     94 N          -6.6794  -24.5585  -49.0853 N.am      17 UNK        -0.5000 
     95 CA         -7.6049  -23.4441  -48.8530 C.3       17 UNK         0.1400 
     96 CB         -8.9174  -23.9178  -48.1931 C.3       17 UNK        -0.1800 
     97 C          -7.8159  -22.6120  -50.1340 C.2       17 UNK         0.5000 
     98 O          -8.9437  -22.2278  -50.4480 O.2       17 UNK        -0.5000 
     99 N          -6.7030  -22.3637  -50.8414 N.am      18 UNK        -0.5000 
    100 CA        -6.5876  -21.6652  -52.1241 C.3       18 UNK         0.1400 
    101 CB        -6.8528  -20.1575  -51.9411 C.3       18 UNK        -0.1800 
    102 C         -7.4575  -22.3094  -53.2256 C.2       18 UNK         0.5000 
    103 O         -8.3511  -21.6638  -53.7794 O.2       18 UNK        -0.5000 
    104 N         -7.2017  -23.5958  -53.4960 N.am      19 UNK        -0.5000 
    105 CA        -7.9270  -24.4267  -54.4564 C.3       19 UNK         0.1400 
    106 CB        -7.6180  -25.9053  -54.1676 C.3       19 UNK        -0.1800 
    107 C         -7.6096  -24.0421  -55.9158 C.2       19 UNK         0.5000 
    108 O         -6.7794  -24.6861  -56.5595 O.2       19 UNK        -0.5000 
    109 N         -8.2751  -22.9829  -56.3977 N.am      20 UNK        -0.5000 
    110 CA        -8.2083  -22.4119  -57.7516 C.3       20 UNK         0.1400 
    111 CB        -8.6841  -23.4324  -58.8070 C.3       20 UNK        -0.1800 
    112 C         -6.8451  -21.7796  -58.1121 C.2       20 UNK         0.5000 
    113 O         -6.5785  -21.5234  -59.2877 O.2       20 UNK        -0.5000 
    114 N         -6.0212  -21.5077  -57.0975 N.am      21 UNK        -0.5000 
    115 CA        -4.7214  -20.8559  -57.1729 C.3       21 UNK         0.1400 
    116 CB        -3.6525  -21.8527  -57.6556 C.3       21 UNK        -0.1800 
    117 C         -4.3932  -20.3341  -55.7694 C.2       21 UNK         0.5000 
    118 O         -4.8850  -20.8969  -54.7883 O.2       21 UNK        -0.5000 
    119 N         -3.5623  -19.2883  -55.6943 N.am      22 UNK        -0.5000 
    120 CA        -3.1999  -18.5884  -54.4504 C.3       22 UNK         0.1400 
    121 C         -4.3951  -17.8017  -53.8201 C.2       22 UNK         0.5000 
    122 N         -4.3241  -17.4320  -52.5488 N.am      22 UNK        -0.7600 
    123 O         -5.3730  -17.4748  -54.4898 O.2       22 UNK        -0.5000 
    124 C124       -2.4474  -19.5278  -53.4605 C.3       23 UNK        -0.0398 
    125 S125       -1.3064  -18.6499  -52.3436 S.3       23 UNK        -0.2404 
    126 C126        0.2191  -18.6088  -53.3363 C.3       23 UNK        -0.0205 
    127 H127        0.3691  -11.8264  -45.8912 H         1 UNK         0.0600 
    128 H128       -0.2125  -10.8016  -47.2053 H         1 UNK         0.0600 
    129 H129        0.8220  -10.1219  -45.9442 H         1 UNK         0.0600 
    130 H130        1.9876  -13.1918  -46.5649 H         1 UNK         0.3000 
    131 H131        3.9792  -12.3189  -48.6174 H         1 UNK         0.0600 
    132 H132        4.1787  -14.8033  -49.1021 H         1 UNK         0.0800 
    133 H133        2.7750  -15.0930  -48.1073 H         1 UNK         0.0800 
    134 H134        2.7885  -14.3489  -52.4673 H         1 UNK         0.0800 
    135 H135        4.1427  -14.6913  -51.4278 H         1 UNK         0.0800 
    136 H136        1.2051  -16.0648  -53.0927 H         1 UNK         0.1150 
    137 H137        1.7282  -20.0550  -51.6314 H         1 UNK         0.1150 
    138 H138        4.0938  -16.8717  -50.0212 H         1 UNK         0.1150 
    139 H139        3.3623  -20.5517  -49.9581 H         1 UNK         0.0800 
    140 H140        4.6166  -19.3893  -49.5988 H         1 UNK         0.0800 
    141 H141        0.8171  -19.3912  -49.4397 H         1 UNK         0.0800 
    142 H142        0.5094  -18.4314  -48.0402 H         1 UNK         0.0800 
    143 H143        1.0208  -21.4366  -47.8532 H         1 UNK         0.0600 
    144 H144        0.2278  -19.4570  -45.9130 H         1 UNK         0.3000 
    145 H145       -0.9367  -21.7609  -43.4564 H         1 UNK         0.0600 
    146 H146        0.7767  -20.6471  -42.1011 H         1 UNK         0.0600 
    147 H147        1.5793  -21.6939  -43.2569 H         1 UNK         0.0600 
    148 H148        1.5424  -19.9562  -43.5319 H         1 UNK         0.0600 
    149 H149       -0.6484  -18.8995  -43.5330 H         1 UNK         0.3000 
    150 H150       -3.7495  -18.1446  -45.0443 H         1 UNK         0.0600 
    151 H151       -4.5100  -18.6727  -42.7286 H         1 UNK         0.0600 
    152 H152       -4.2773  -16.9478  -42.9624 H         1 UNK         0.0600 
    153 H153       -3.0852  -17.8828  -42.0680 H         1 UNK         0.0600 
    154 H154       -1.8760  -16.4872  -43.7153 H         1 UNK         0.3000 
    155 H155        0.5367  -16.2296  -46.1827 H         1 UNK         0.0600 
    156 H156       -1.7938  -14.2526  -46.4437 H         1 UNK         0.0600 
    157 H157       -0.1478  -14.0136  -47.0292 H         1 UNK         0.0600 
    158 H158       -1.1639  -15.2392  -47.7592 H         1 UNK         0.0600 
    159 H159       -0.7729  -15.2961  -43.7621 H         1 UNK         0.3000 
    160 H160        2.1472  -13.6483  -42.6230 H         1 UNK         0.0600 
    161 H161       -0.8395  -12.9684  -42.6322 H         1 UNK         0.0600 
    162 H162        0.4543  -11.9442  -43.2377 H         1 UNK         0.0600 
    163 H163        0.3699  -12.3236  -41.5247 H         1 UNK         0.0600 
    164 H164        1.7003  -15.1720  -41.1454 H         1 UNK         0.3000 
    165 H165       -1.0663  -16.5179  -39.6457 H         1 UNK         0.0600 
    166 H166       -0.0893  -18.8113  -39.8757 H         1 UNK         0.0600 
    167 H167       -1.0028  -18.3616  -41.3009 H         1 UNK         0.0600 
    168 H168        0.7525  -18.3103  -41.3404 H         1 UNK         0.0600 
    169 H169        1.7920  -17.0386  -39.5054 H         1 UNK         0.3000 
    170 H170        2.7029  -14.2258  -37.6998 H         1 UNK         0.0600 
    171 H171        2.1357  -16.8995  -36.3070 H         1 UNK         0.0600 
    172 H172        3.2788  -15.6706  -35.7626 H         1 UNK         0.0600 
    173 H173        1.5572  -15.3269  -35.7706 H         1 UNK         0.0600 
    174 H174        3.9654  -16.7722  -37.9571 H         1 UNK         0.3000 
    175 H175        6.1453  -16.0157  -39.9213 H         1 UNK         0.0600 
    176 H176        6.0178  -18.5364  -40.0868 H         1 UNK         0.0600 
    177 H177        4.2916  -18.4581  -39.7557 H         1 UNK         0.0600 
    178 H178        5.4580  -17.9315  -38.5432 H         1 UNK         0.0600 
    179 H179        5.9648  -16.1019  -42.1258 H         1 UNK         0.3000 
    180 H180        5.3350  -17.2721  -44.2295 H         1 UNK         0.0600 
    181 H181        3.4145  -17.2139  -45.8614 H         1 UNK         0.0600 
    182 H182        2.2909  -17.0654  -44.5139 H         1 UNK         0.0600 
    183 H183        3.2766  -18.5094  -44.6824 H         1 UNK         0.0600 
    184 H184        3.6460  -14.9381  -44.6722 H         1 UNK         0.3000 
    185 H185        4.8972  -12.6232  -43.6470 H         1 UNK         0.0600 
    186 H186        7.3380  -12.3885  -43.7476 H         1 UNK         0.0600 
    187 H187        7.3664  -12.8284  -45.4482 H         1 UNK         0.0600 
    188 H188        6.6108  -11.3200  -44.9355 H         1 UNK         0.0600 
    189 H189        3.6544  -12.4330  -45.4590 H         1 UNK         0.3000 
    190 H190       -1.9717  -19.5178  -47.2996 H         1 UNK         0.3000 
    191 H191       -3.4280  -20.5205  -49.5143 H         1 UNK         0.0600 
    192 H192       -4.1058  -18.5251  -48.1679 H         1 UNK         0.0600 
    193 H193       -5.4135  -19.6911  -48.3133 H         1 UNK         0.0600 
    194 H194       -4.5099  -19.5753  -46.8102 H         1 UNK         0.0600 
    195 H195       -3.1674  -21.7648  -46.1482 H         1 UNK         0.3000 
    196 H196       -4.8598  -24.0146  -46.4443 H         1 UNK         0.0600 
    197 H197       -3.6869  -24.8389  -44.3998 H         1 UNK         0.0600 
    198 H198       -4.1437  -23.1496  -44.2435 H         1 UNK         0.0600 
    199 H199       -2.4692  -23.5819  -44.5785 H         1 UNK         0.0600 
    200 H200       -1.3132  -23.6824  -46.9883 H         1 UNK         0.3000 
    201 H201       -0.8169  -26.3685  -47.7595 H         1 UNK         0.0600 
    202 H202        0.9727  -24.7640  -47.1237 H         1 UNK         0.0600 
    203 H203        0.6570  -23.8073  -48.5695 H         1 UNK         0.0600 
    204 H204        1.2818  -25.4434  -48.7143 H         1 UNK         0.0600 
    205 H205       -2.0370  -23.6052  -49.6007 H         1 UNK         0.3000 
    206 H206       -2.1416  -25.0078  -52.1598 H         1 UNK         0.0600 
    207 H207       -1.7467  -22.5449  -52.0094 H         1 UNK         0.0600 
    208 H208       -3.1936  -22.9062  -52.9343 H         1 UNK         0.0600 
    209 H209       -3.3326  -22.3274  -51.2796 H         1 UNK         0.0600 
    210 H210       -3.7086  -25.9023  -49.5792 H         1 UNK         0.3000 
    211 H211       -5.5141  -27.0384  -49.0687 H         1 UNK         0.0600 
    212 H212       -6.0114  -27.2737  -52.0803 H         1 UNK         0.0600 
    213 H213       -6.7334  -28.2790  -50.8326 H         1 UNK         0.0600 
    214 H214       -5.0013  -28.3424  -51.1123 H         1 UNK         0.0600 
    215 H215       -5.7411  -24.4033  -48.7368 H         1 UNK         0.3000 
    216 H216       -7.1100  -22.7819  -48.1412 H         1 UNK         0.0600 
    217 H217       -9.5254  -23.0660  -47.8864 H         1 UNK         0.0600 
    218 H218       -8.7183  -24.5119  -47.3014 H         1 UNK         0.0600 
    219 H219       -9.5233  -24.5198  -48.8704 H         1 UNK         0.0600 
    220 H220       -5.8349  -22.7211  -50.4591 H         1 UNK         0.3000 
    221 H221       -5.5504  -21.7813  -52.4382 H         1 UNK         0.0600 
    222 H222       -7.8703  -19.9603  -51.6031 H         1 UNK         0.0600 
    223 H223       -6.1654  -19.7224  -51.2157 H         1 UNK         0.0600 
    224 H224       -6.7118  -19.6240  -52.8817 H         1 UNK         0.0600 
    225 H225       -6.4261  -24.0477  -53.0140 H         1 UNK         0.3000 
    226 H226       -8.9975  -24.2807  -54.2979 H         1 UNK         0.0600 
    227 H227       -7.9512  -26.1865  -53.1690 H         1 UNK         0.0600 
    228 H228       -8.1296  -26.5586  -54.8753 H         1 UNK         0.0600 
    229 H229       -6.5499  -26.1150  -54.2369 H         1 UNK         0.0600 
    230 H230       -8.8500  -22.4695  -55.7388 H         1 UNK         0.3000 
    231 H231       -8.9218  -21.5868  -57.7563 H         1 UNK         0.0600 
    232 H232       -7.9788  -24.2556  -58.9229 H         1 UNK         0.0600 
    233 H233       -8.7966  -22.9617  -59.7843 H         1 UNK         0.0600 
    234 H234       -9.6529  -23.8544  -58.5398 H         1 UNK         0.0600 
    235 H235       -6.3147  -21.7199  -56.1516 H         1 UNK         0.3000 
    236 H236       -4.7815  -20.0099  -57.8606 H         1 UNK         0.0600 
    237 H237       -3.8720  -22.2164  -58.6594 H         1 UNK         0.0600 
    238 H238       -2.6675  -21.3858  -57.6887 H         1 UNK         0.0600 
    239 H239       -3.5857  -22.7176  -56.9941 H         1 UNK         0.0600 
    240 H240       -3.2187  -18.8722  -56.5480 H         1 UNK         0.3000 
    241 H241       -2.5009  -17.8166  -54.7736 H         1 UNK         0.0600 
    242 H242       -5.0809  -16.9040  -52.1445 H         1 UNK         0.3800 
    243 H243       -3.5085  -17.6503  -51.9956 H         1 UNK         0.3800 
    244 H244       -3.1560  -20.0977  -52.8573 H         1 UNK         0.0800 
    245 H245       -1.8694  -20.2732  -54.0084 H         1 UNK         0.0800 
    246 H246        0.4426  -19.6055  -53.7200 H         1 UNK         0.0800 
    247 H247        0.0797  -17.9606  -54.2027 H         1 UNK         0.0800 
@<TRIPOS>BOND
     1    1    2 1    
     2    1  127 1    
     3    1  128 1    
     4    1  129 1    
     5    2    3 2    
     6    2    4 am   BACKBONE|DICT|INTERRES
     7    4    5 1    
     8    4  130 1    
     9    5    6 1    
    10    5   65 1    
    11    5  131 1    
    12    6    7 1    
    13    6  132 1    
    14    6  133 1    
    15    7    8 1    
    16    8    9 1    
    17    8  134 1    
    18    8  135 1    
    19    9   10 ar   
    20    9   14 ar   
    21   10   11 ar   
    22   10  136 1    
    23   11   12 ar   
    24   11  126 1    
    25   12   13 ar   
    26   12  137 1    
    27   13   14 ar   
    28   13   15 1    
    29   14  138 1    
    30   15   16 1    
    31   15  139 1    
    32   15  140 1    
    33   16   17 1    
    34   17   18 1    
    35   17  141 1    
    36   17  142 1    
    37   18   19 1    
    38   18   67 1    
    39   18  143 1    
    40   19   20 am   BACKBONE|DICT|INTERRES
    41   19  144 1    
    42   20   21 2    
    43   20   22 1    
    44   22   23 1    
    45   22   24 1    
    46   22  145 1    
    47   23  146 1    
    48   23  147 1    
    49   23  148 1    
    50   24   25 am   BACKBONE|DICT|INTERRES
    51   24  149 1    
    52   25   26 2    
    53   25   27 1    
    54   27   28 1    
    55   27   29 1    
    56   27  150 1    
    57   28  151 1    
    58   28  152 1    
    59   28  153 1    
    60   29   30 am   BACKBONE|DICT|INTERRES
    61   29  154 1    
    62   30   31 2    
    63   30   32 1    
    64   32   33 1    
    65   32   34 1    
    66   32  155 1    
    67   33  156 1    
    68   33  157 1    
    69   33  158 1    
    70   34   35 am   BACKBONE|DICT|INTERRES
    71   34  159 1    
    72   35   36 2    
    73   35   37 1    
    74   37   38 1    
    75   37   39 1    
    76   37  160 1    
    77   38  161 1    
    78   38  162 1    
    79   38  163 1    
    80   39   40 am   BACKBONE|DICT|INTERRES
    81   39  164 1    
    82   40   41 2    
    83   40   42 1    
    84   42   43 1    
    85   42   44 1    
    86   42  165 1    
    87   43  166 1    
    88   43  167 1    
    89   43  168 1    
    90   44   45 am   BACKBONE|DICT|INTERRES
    91   44  169 1    
    92   45   46 2    
    93   45   47 1    
    94   47   48 1    
    95   47   49 1    
    96   47  170 1    
    97   48  171 1    
    98   48  172 1    
    99   48  173 1    
   100   49   50 am   BACKBONE|DICT|INTERRES
   101   49  174 1    
   102   50   51 2    
   103   50   52 1    
   104   52   53 1    
   105   52   54 1    
   106   52  175 1    
   107   53  176 1    
   108   53  177 1    
   109   53  178 1    
   110   54   55 am   BACKBONE|DICT|INTERRES
   111   54  179 1    
   112   55   56 2    
   113   55   57 1    
   114   57   58 1    
   115   57   59 1    
   116   57  180 1    
   117   58  181 1    
   118   58  182 1    
   119   58  183 1    
   120   59   60 am   BACKBONE|DICT|INTERRES
   121   59  184 1    
   122   60   61 2    
   123   60   62 1    
   124   62   63 1    
   125   62   64 1    
   126   62  185 1    
   127   63  186 1    
   128   63  187 1    
   129   63  188 1    
   130   64   65 am   BACKBONE|DICT|INTERRES
   131   64  189 1    
   132   65   66 2    
   133   67   68 2    
   134   67   69 am   BACKBONE|DICT|INTERRES
   135   69   70 1    
   136   69  190 1    
   137   70   71 1    
   138   70   72 1    
   139   70  191 1    
   140   71  192 1    
   141   71  193 1    
   142   71  194 1    
   143   72   73 2    
   144   72   74 am   BACKBONE|DICT|INTERRES
   145   74   75 1    
   146   74  195 1    
   147   75   76 1    
   148   75   77 1    
   149   75  196 1    
   150   76  197 1    
   151   76  198 1    
   152   76  199 1    
   153   77   78 2    
   154   77   79 am   BACKBONE|DICT|INTERRES
   155   79   80 1    
   156   79  200 1    
   157   80   81 1    
   158   80   82 1    
   159   80  201 1    
   160   81  202 1    
   161   81  203 1    
   162   81  204 1    
   163   82   83 2    
   164   82   84 am   BACKBONE|DICT|INTERRES
   165   84   85 1    
   166   84  205 1    
   167   85   86 1    
   168   85   87 1    
   169   85  206 1    
   170   86  207 1    
   171   86  208 1    
   172   86  209 1    
   173   87   88 2    
   174   87   89 am   BACKBONE|DICT|INTERRES
   175   89   90 1    
   176   89  210 1    
   177   90   91 1    
   178   90   92 1    
   179   90  211 1    
   180   91  212 1    
   181   91  213 1    
   182   91  214 1    
   183   92   93 2    
   184   92   94 am   BACKBONE|DICT|INTERRES
   185   94   95 1    
   186   94  215 1    
   187   95   96 1    
   188   95   97 1    
   189   95  216 1    
   190   96  217 1    
   191   96  218 1    
   192   96  219 1    
   193   97   98 2    
   194   97   99 am   BACKBONE|DICT|INTERRES
   195   99  100 1    
   196   99  220 1    
   197  100  101 1    
   198  100  102 1    
   199  100  221 1    
   200  101  222 1    
   201  101  223 1    
   202  101  224 1    
   203  102  103 2    
   204  102  104 am   BACKBONE|DICT|INTERRES
   205  104  105 1    
   206  104  225 1    
   207  105  106 1    
   208  105  107 1    
   209  105  226 1    
   210  106  227 1    
   211  106  228 1    
   212  106  229 1    
   213  107  108 2    
   214  107  109 am   BACKBONE|DICT|INTERRES
   215  109  110 1    
   216  109  230 1    
   217  110  111 1    
   218  110  112 1    
   219  110  231 1    
   220  111  232 1    
   221  111  233 1    
   222  111  234 1    
   223  112  113 2    
   224  112  114 am   BACKBONE|DICT|INTERRES
   225  114  115 1    
   226  114  235 1    
   227  115  116 1    
   228  115  117 1    
   229  115  236 1    
   230  116  237 1    
   231  116  238 1    
   232  116  239 1    
   233  117  118 2    
   234  117  119 am   BACKBONE|DICT|INTERRES
   235  119  120 1    
   236  119  240 1    
   237  120  121 1    
   238  120  124 1    
   239  120  241 1    
   240  121  122 am   BACKBONE|DICT|INTERRES
   241  121  123 2    
   242  122  242 1    
   243  122  243 1    
   244  124  125 1    
   245  124  244 1    
   246  124  245 1    
   247  125  126 1    
   248  126  246 1    
   249  126  247 1    
@<TRIPOS>SUBSTRUCTURE
     1 UNK         1 GROUP             0       ****    0 ROOT    
