@<TRIPOS>MOLECULE
3R540
247   249    1
SMALL
USER_CHARGES


@<TRIPOS>ATOM
      1 CA         -3.6458  -12.6272  -48.6366 C.3       0 UNK        -0.1800 
      2 C          -2.8695  -13.6316  -47.7986 C.2       0 UNK         0.5000 
      3 O          -2.5871  -13.3613  -46.6313 O.2       0 UNK        -0.5000 
      4 N          -2.5187  -14.7785  -48.3927 N.am      1 UNK        -0.5000 
      5 CA         -1.7740  -15.8938  -47.7963 C.3       1 UNK         0.1400 
      6 C6         -1.5937  -17.0216  -48.8395 C.3       23 UNK        -0.0398 
      7 S7         -0.3907  -18.3034  -48.3591 S.3       23 UNK        -0.2404 
      8 C8          1.1875  -17.6100  -48.9548 C.3       23 UNK        -0.0205 
      9 C9          2.0149  -18.6934  -49.6260 C.ar      23 UNK        -0.0193 
     10 C10         2.0242  -18.8120  -51.0169 C.ar      23 UNK        -0.1150 
     11 C11         2.6990  -19.8652  -51.6387 C.ar      23 UNK        -0.0193 
     12 C12         3.3864  -20.7975  -50.8561 C.ar      23 UNK        -0.1150 
     13 C13         3.3987  -20.6804  -49.4632 C.ar      23 UNK        -0.0193 
     14 C14         2.7294  -19.6132  -48.8560 C.ar      23 UNK        -0.1150 
     15 C15         4.0893  -21.7346  -48.6107 C.3       23 UNK        -0.0205 
     16 S16         3.0063  -23.1701  -48.3055 S.3       23 UNK        -0.2404 
     17 C17         1.6196  -22.3782  -47.4268 C.3       23 UNK        -0.0398 
     18 CA          0.5491  -23.3746  -46.9354 C.3       11 UNK         0.1400 
     19 N           1.0815  -24.3643  -45.9986 N.am      11 UNK        -0.5000 
     20 C           0.4688  -25.5097  -45.6747 C.2       10 UNK         0.5000 
     21 O          -0.6015  -25.8750  -46.1619 O.2       10 UNK        -0.5000 
     22 CA          1.1580  -26.3774  -44.6048 C.3       10 UNK         0.1400 
     23 CB          2.2079  -27.2951  -45.2490 C.3       10 UNK        -0.1800 
     24 N           1.7932  -25.5813  -43.5515 N.am      10 UNK        -0.5000 
     25 C           1.1208  -24.8504  -42.6518 C.2       9 UNK         0.5000 
     26 O          -0.1081  -24.7849  -42.6059 O.2       9 UNK        -0.5000 
     27 CA          1.9651  -24.0141  -41.6686 C.3       9 UNK         0.1400 
     28 CB          2.4309  -24.8794  -40.4880 C.3       9 UNK        -0.1800 
     29 N           3.1271  -23.3429  -42.2686 N.am      9 UNK        -0.5000 
     30 C           3.0723  -22.5095  -43.3157 C.2       8 UNK         0.5000 
     31 O           2.0518  -22.3182  -43.9771 O.2       8 UNK        -0.5000 
     32 CA          4.3706  -21.7910  -43.7254 C.3       8 UNK         0.1400 
     33 CB          5.2105  -22.6958  -44.6400 C.3       8 UNK        -0.1800 
     34 N           4.0557  -20.5560  -44.4474 N.am      8 UNK        -0.5000 
     35 C           3.5566  -19.4526  -43.8772 C.2       7 UNK         0.5000 
     36 O           3.5007  -19.2679  -42.6581 O.2       7 UNK        -0.5000 
     37 CA          2.9819  -18.3995  -44.8333 C.3       7 UNK         0.1400 
     38 CB          1.5169  -18.7252  -45.1780 C.3       7 UNK        -0.1800 
     39 N           3.0382  -17.0901  -44.1966 N.am      7 UNK        -0.5000 
     40 C           3.0748  -15.9230  -44.8446 C.2       6 UNK         0.5000 
     41 O           3.1255  -15.8196  -46.0730 O.2       6 UNK        -0.5000 
     42 CA          3.0771  -14.6596  -43.9628 C.3       6 UNK         0.1400 
     43 CB          4.5128  -14.2831  -43.5645 C.3       6 UNK        -0.1800 
     44 N           2.4545  -13.5134  -44.6271 N.am      6 UNK        -0.5000 
     45 C           1.1617  -13.4352  -44.9642 C.2       5 UNK         0.5000 
     46 O           0.3320  -14.3181  -44.7295 O.2       5 UNK        -0.5000 
     47 CA          0.7298  -12.1672  -45.7167 C.3       5 UNK         0.1400 
     48 CB          0.7672  -12.4063  -47.2340 C.3       5 UNK        -0.1800 
     49 N          -0.6252  -11.7846  -45.3265 N.am      5 UNK        -0.5000 
     50 C          -0.9216  -11.0443  -44.2496 C.2       4 UNK         0.5000 
     51 O          -0.0702  -10.5504  -43.5088 O.2       4 UNK        -0.5000 
     52 CA         -2.4091  -10.8199  -43.9348 C.3       4 UNK         0.1400 
     53 CB         -2.9735   -9.6419  -44.7477 C.3       4 UNK        -0.1800 
     54 N          -3.1964  -12.0240  -44.1876 N.am      4 UNK        -0.5000 
     55 C          -4.3195  -12.3661  -43.5446 C.2       3 UNK         0.5000 
     56 O          -4.8361  -11.6885  -42.6553 O.2       3 UNK        -0.5000 
     57 CA         -4.9686  -13.6992  -43.9558 C.3       3 UNK         0.1400 
     58 CB         -5.9195  -13.4941  -45.1446 C.3       3 UNK        -0.1800 
     59 N          -3.9528  -14.6866  -44.3178 N.am      3 UNK        -0.5000 
     60 C          -3.3924  -15.5544  -43.4667 C.2       2 UNK         0.5000 
     61 O          -3.7468  -15.6712  -42.2927 O.2       2 UNK        -0.5000 
     62 CA         -2.2123  -16.4075  -43.9789 C.3       2 UNK         0.1400 
     63 CB         -2.4348  -17.9144  -43.7546 C.3       2 UNK        -0.1800 
     64 N          -1.7972  -16.1242  -45.3577 N.am      2 UNK        -0.5000 
     65 C          -2.4421  -16.4027  -46.5000 C.2       1 UNK         0.5000 
     66 O          -3.5279  -16.9803  -46.5653 O.2       1 UNK        -0.5000 
     67 C          -0.6260  -22.6029  -46.3106 C.2       11 UNK         0.5000 
     68 O          -1.6201  -22.3604  -46.9923 O.2       11 UNK        -0.5000 
     69 N          -0.4950  -22.2454  -45.0264 N.am      12 UNK        -0.5000 
     70 CA         -1.4855  -21.5202  -44.2348 C.3       12 UNK         0.1400 
     71 CB         -0.8642  -21.1206  -42.8877 C.3       12 UNK        -0.1800 
     72 C          -2.7801  -22.3160  -44.0111 C.2       12 UNK         0.5000 
     73 O          -3.8567  -21.7206  -44.0006 O.2       12 UNK        -0.5000 
     74 N          -2.6580  -23.6444  -43.8763 N.am      13 UNK        -0.5000 
     75 CA         -3.7826  -24.5770  -43.7815 C.3       13 UNK         0.1400 
     76 CB         -3.2516  -25.9792  -43.4477 C.3       13 UNK        -0.1800 
     77 C          -4.6418  -24.6100  -45.0610 C.2       13 UNK         0.5000 
     78 O          -5.8628  -24.7416  -44.9695 O.2       13 UNK        -0.5000 
     79 N          -3.9915  -24.4684  -46.2237 N.am      14 UNK        -0.5000 
     80 CA         -4.6436  -24.3618  -47.5289 C.3       14 UNK         0.1400 
     81 CB         -3.6741  -24.8784  -48.6048 C.3       14 UNK        -0.1800 
     82 C          -5.0782  -22.9210  -47.8617 C.2       14 UNK         0.5000 
     83 O          -5.9832  -22.7443  -48.6763 O.2       14 UNK        -0.5000 
     84 N          -4.3958  -21.9328  -47.2617 N.am      15 UNK        -0.5000 
     85 CA         -4.3788  -20.5065  -47.6086 C.3       15 UNK         0.1400 
     86 CB         -5.7487  -19.8489  -47.3475 C.3       15 UNK        -0.1800 
     87 C          -3.8637  -20.3083  -49.0496 C.2       15 UNK         0.5000 
     88 O          -4.4843  -19.5962  -49.8358 O.2       15 UNK        -0.5000 
     89 N          -2.7581  -20.9996  -49.3637 N.am      16 UNK        -0.5000 
     90 CA         -2.2354  -21.3467  -50.6898 C.3       16 UNK         0.1400 
     91 CB         -0.7507  -21.7159  -50.5583 C.3       16 UNK        -0.1800 
     92 C          -2.4845  -20.3437  -51.8365 C.2       16 UNK         0.5000 
     93 O          -3.2557  -20.6527  -52.7462 O.2       16 UNK        -0.5000 
     94 N          -1.8599  -19.1591  -51.7865 N.am      17 UNK        -0.5000 
     95 CA         -2.0044  -18.1481  -52.8424 C.3       17 UNK         0.1400 
     96 CB         -0.7866  -17.2148  -52.8749 C.3       17 UNK        -0.1800 
     97 C          -3.3240  -17.3534  -52.7907 C.2       17 UNK         0.5000 
     98 O          -3.7099  -16.7893  -53.8140 O.2       17 UNK        -0.5000 
     99 N          -4.0198  -17.3451  -51.6440 N.am      18 UNK        -0.5000 
    100 CA        -5.3615  -16.7617  -51.5150 C.3       18 UNK         0.1400 
    101 CB        -5.6588  -16.4381  -50.0420 C.3       18 UNK        -0.1800 
    102 C         -6.4330  -17.6940  -52.1138 C.2       18 UNK         0.5000 
    103 O         -7.3829  -17.2192  -52.7362 O.2       18 UNK        -0.5000 
    104 N         -6.2160  -19.0083  -51.9709 N.am      19 UNK        -0.5000 
    105 CA        -6.9583  -20.0871  -52.6255 C.3       19 UNK         0.1400 
    106 CB        -6.7101  -21.3874  -51.8447 C.3       19 UNK        -0.1800 
    107 C         -6.5893  -20.2643  -54.1159 C.2       19 UNK         0.5000 
    108 O         -7.2236  -21.0672  -54.8013 O.2       19 UNK        -0.5000 
    109 N         -5.5809  -19.5142  -54.5844 N.am      20 UNK        -0.5000 
    110 CA        -5.0482  -19.4553  -55.9470 C.3       20 UNK         0.1400 
    111 CB        -6.1221  -18.9747  -56.9457 C.3       20 UNK        -0.1800 
    112 C         -4.3368  -20.7494  -56.3933 C.2       20 UNK         0.5000 
    113 O         -4.3157  -21.0549  -57.5868 O.2       20 UNK        -0.5000 
    114 N         -3.7274  -21.4705  -55.4411 N.am      21 UNK        -0.5000 
    115 CA        -2.8965  -22.6480  -55.7097 C.3       21 UNK         0.1400 
    116 CB        -2.7543  -23.4749  -54.4218 C.3       21 UNK        -0.1800 
    117 C         -1.5067  -22.2709  -56.2613 C.2       21 UNK         0.5000 
    118 O         -0.9095  -23.0581  -56.9965 O.2       21 UNK        -0.5000 
    119 N         -1.0231  -21.0776  -55.8987 N.am      22 UNK        -0.5000 
    120 CA         0.2959  -20.5358  -56.2614 C.3       22 UNK         0.1400 
    121 C          0.3264  -18.9797  -56.2964 C.2       22 UNK         0.5000 
    122 N         -0.8075  -18.3054  -56.4508 N.am      22 UNK        -0.7600 
    123 O          1.3865  -18.3678  -56.2026 O.2       22 UNK        -0.5000 
    124 C124        1.4497  -21.1753  -55.4391 C.3       23 UNK        -0.0398 
    125 S125        1.2260  -21.0437  -53.6322 S.3       23 UNK        -0.2404 
    126 C126        2.6475  -20.0195  -53.1498 C.3       23 UNK        -0.0205 
    127 H127       -3.7559  -12.9589  -49.6693 H         1 UNK         0.0600 
    128 H128       -3.1291  -11.6675  -48.6410 H         1 UNK         0.0600 
    129 H129       -4.6411  -12.4768  -48.2200 H         1 UNK         0.0600 
    130 H130       -2.8016  -14.9181  -49.3509 H         1 UNK         0.3000 
    131 H131       -0.7829  -15.5100  -47.5453 H         1 UNK         0.0600 
    132 H132       -1.2801  -16.5954  -49.7904 H         1 UNK         0.0800 
    133 H133       -2.5487  -17.5098  -49.0389 H         1 UNK         0.0800 
    134 H134        1.7381  -17.1872  -48.1133 H         1 UNK         0.0800 
    135 H135        1.0148  -16.7867  -49.6488 H         1 UNK         0.0800 
    136 H136        1.4845  -18.0973  -51.6148 H         1 UNK         0.1150 
    137 H137        3.8878  -21.6302  -51.3291 H         1 UNK         0.1150 
    138 H138        2.7160  -19.5275  -47.7801 H         1 UNK         0.1150 
    139 H139        4.4092  -21.3083  -47.6593 H         1 UNK         0.0800 
    140 H140        4.9966  -22.0760  -49.1110 H         1 UNK         0.0800 
    141 H141        1.1554  -21.6628  -48.1070 H         1 UNK         0.0800 
    142 H142        2.0253  -21.8025  -46.5948 H         1 UNK         0.0800 
    143 H143        0.1619  -23.9076  -47.8067 H         1 UNK         0.0600 
    144 H144        1.9281  -24.1098  -45.5112 H         1 UNK         0.3000 
    145 H145        0.3924  -27.0049  -44.1432 H         1 UNK         0.0600 
    146 H146        1.7589  -27.9161  -46.0254 H         1 UNK         0.0600 
    147 H147        2.6501  -27.9664  -44.5127 H         1 UNK         0.0600 
    148 H148        3.0142  -26.7239  -45.7111 H         1 UNK         0.0600 
    149 H149        2.8022  -25.5729  -43.5249 H         1 UNK         0.3000 
    150 H150        1.3141  -23.2319  -41.2734 H         1 UNK         0.0600 
    151 H151        2.9218  -24.2752  -39.7249 H         1 UNK         0.0600 
    152 H152        1.5858  -25.3777  -40.0109 H         1 UNK         0.0600 
    153 H153        3.1310  -25.6528  -40.8066 H         1 UNK         0.0600 
    154 H154        4.0086  -23.4680  -41.7921 H         1 UNK         0.3000 
    155 H155        4.9452  -21.5480  -42.8292 H         1 UNK         0.0600 
    156 H156        4.6625  -22.9839  -45.5382 H         1 UNK         0.0600 
    157 H157        5.5005  -23.6127  -44.1254 H         1 UNK         0.0600 
    158 H158        6.1281  -22.1973  -44.9530 H         1 UNK         0.0600 
    159 H159        4.0458  -20.6277  -45.4522 H         1 UNK         0.3000 
    160 H160        3.5849  -18.3901  -45.7437 H         1 UNK         0.0600 
    161 H161        0.8938  -18.7345  -44.2842 H         1 UNK         0.0600 
    162 H162        1.4211  -19.7003  -45.6545 H         1 UNK         0.0600 
    163 H163        1.0976  -17.9841  -45.8565 H         1 UNK         0.0600 
    164 H164        3.0618  -17.1199  -43.1849 H         1 UNK         0.3000 
    165 H165        2.5068  -14.8701  -43.0554 H         1 UNK         0.0600 
    166 H166        5.0011  -15.1031  -43.0362 H         1 UNK         0.0600 
    167 H167        5.1228  -14.0462  -44.4372 H         1 UNK         0.0600 
    168 H168        4.5251  -13.4186  -42.9004 H         1 UNK         0.0600 
    169 H169        3.0749  -12.7632  -44.8935 H         1 UNK         0.3000 
    170 H170        1.4193  -11.3540  -45.4795 H         1 UNK         0.0600 
    171 H171        0.1264  -13.2368  -47.5286 H         1 UNK         0.0600 
    172 H172        1.7789  -12.6426  -47.5660 H         1 UNK         0.0600 
    173 H173        0.4424  -11.5215  -47.7817 H         1 UNK         0.0600 
    174 H174       -1.3714  -12.2155  -45.8635 H         1 UNK         0.3000 
    175 H175       -2.4734  -10.5713  -42.8732 H         1 UNK         0.0600 
    176 H176       -2.3837   -8.7383  -44.5888 H         1 UNK         0.0600 
    177 H177       -2.9695   -9.8557  -45.8173 H         1 UNK         0.0600 
    178 H178       -3.9990   -9.4156  -44.4556 H         1 UNK         0.0600 
    179 H179       -2.8579  -12.6385  -44.9214 H         1 UNK         0.3000 
    180 H180       -5.5580  -14.0648  -43.1123 H         1 UNK         0.0600 
    181 H181       -5.3990  -13.0935  -46.0139 H         1 UNK         0.0600 
    182 H182       -6.7163  -12.7945  -44.8891 H         1 UNK         0.0600 
    183 H183       -6.3908  -14.4321  -45.4389 H         1 UNK         0.0600 
    184 H184       -3.5753  -14.6277  -45.2552 H         1 UNK         0.3000 
    185 H185       -1.3608  -16.1173  -43.3619 H         1 UNK         0.0600 
    186 H186       -2.6128  -18.1329  -42.7012 H         1 UNK         0.0600 
    187 H187       -3.2889  -18.2962  -44.3141 H         1 UNK         0.0600 
    188 H188       -1.5515  -18.4737  -44.0561 H         1 UNK         0.0600 
    189 H189       -0.9505  -15.5612  -45.4051 H         1 UNK         0.3000 
    190 H190        0.3935  -22.4340  -44.5641 H         1 UNK         0.3000 
    191 H191       -1.7450  -20.6175  -44.7891 H         1 UNK         0.0600 
    192 H192        0.0373  -20.5248  -43.0248 H         1 UNK         0.0600 
    193 H193       -1.5617  -20.5276  -42.2952 H         1 UNK         0.0600 
    194 H194       -0.5950  -21.9961  -42.2968 H         1 UNK         0.0600 
    195 H195       -1.7277  -24.0430  -43.8203 H         1 UNK         0.3000 
    196 H196       -4.4225  -24.2487  -42.9599 H         1 UNK         0.0600 
    197 H197       -4.0689  -26.6954  -43.3554 H         1 UNK         0.0600 
    198 H198       -2.7100  -25.9802  -42.5015 H         1 UNK         0.0600 
    199 H199       -2.5756  -26.3482  -44.2198 H         1 UNK         0.0600 
    200 H200       -2.9847  -24.3794  -46.2088 H         1 UNK         0.3000 
    201 H201       -5.5348  -24.9927  -47.5427 H         1 UNK         0.0600 
    202 H202       -4.1315  -24.8402  -49.5943 H         1 UNK         0.0600 
    203 H203       -3.3919  -25.9144  -48.4164 H         1 UNK         0.0600 
    204 H204       -2.7596  -24.2850  -48.6439 H         1 UNK         0.0600 
    205 H205       -3.6371  -22.2194  -46.6559 H         1 UNK         0.3000 
    206 H206       -3.6509  -20.0327  -46.9479 H         1 UNK         0.0600 
    207 H207       -6.0940  -20.0508  -46.3337 H         1 UNK         0.0600 
    208 H208       -5.6822  -18.7662  -47.4569 H         1 UNK         0.0600 
    209 H209       -6.5118  -20.2022  -48.0415 H         1 UNK         0.0600 
    210 H210       -2.3274  -21.5066  -48.5962 H         1 UNK         0.3000 
    211 H211       -2.7633  -22.2592  -50.9727 H         1 UNK         0.0600 
    212 H212       -0.3589  -22.0877  -51.5037 H         1 UNK         0.0600 
    213 H213       -0.6054  -22.5082  -49.8245 H         1 UNK         0.0600 
    214 H214       -0.1413  -20.8644  -50.2545 H         1 UNK         0.0600 
    215 H215       -1.2377  -18.9596  -51.0167 H         1 UNK         0.3000 
    216 H216       -2.0134  -18.6655  -53.8039 H         1 UNK         0.0600 
    217 H217        0.0851  -17.7446  -53.2573 H         1 UNK         0.0600 
    218 H218       -0.5446  -16.8089  -51.8952 H         1 UNK         0.0600 
    219 H219       -0.9519  -16.3713  -53.5467 H         1 UNK         0.0600 
    220 H220       -3.7171  -17.9429  -50.8849 H         1 UNK         0.3000 
    221 H221       -5.3911  -15.8219  -52.0708 H         1 UNK         0.0600 
    222 H222       -5.6631  -17.3308  -49.4184 H         1 UNK         0.0600 
    223 H223       -4.9235  -15.7477  -49.6316 H         1 UNK         0.0600 
    224 H224       -6.6369  -15.9668  -49.9395 H         1 UNK         0.0600 
    225 H225       -5.4506  -19.2992  -51.3657 H         1 UNK         0.3000 
    226 H226       -8.0238  -19.8546  -52.5778 H         1 UNK         0.0600 
    227 H227       -7.0184  -21.2843  -50.8042 H         1 UNK         0.0600 
    228 H228       -7.2744  -22.2181  -52.2697 H         1 UNK         0.0600 
    229 H229       -5.6560  -21.6671  -51.8518 H         1 UNK         0.0600 
    230 H230       -5.1251  -18.9095  -53.9167 H         1 UNK         0.3000 
    231 H231       -4.2718  -18.6898  -55.9222 H         1 UNK         0.0600 
    232 H232       -6.9025  -19.7212  -57.0946 H         1 UNK         0.0600 
    233 H233       -5.6829  -18.7645  -57.9216 H         1 UNK         0.0600 
    234 H234       -6.5969  -18.0558  -56.6016 H         1 UNK         0.0600 
    235 H235       -3.7703  -21.1581  -54.4731 H         1 UNK         0.3000 
    236 H236       -3.3990  -23.2670  -56.4559 H         1 UNK         0.0600 
    237 H237       -2.1822  -22.9436  -53.6608 H         1 UNK         0.0600 
    238 H238       -3.7283  -23.7222  -53.9993 H         1 UNK         0.0600 
    239 H239       -2.2361  -24.4139  -54.6199 H         1 UNK         0.0600 
    240 H240       -1.5643  -20.5153  -55.2601 H         1 UNK         0.3000 
    241 H241        0.4729  -20.8088  -57.3032 H         1 UNK         0.0600 
    242 H242       -0.7713  -17.2988  -56.4873 H         1 UNK         0.3800 
    243 H243       -1.6704  -18.7799  -56.6538 H         1 UNK         0.3800 
    244 H244        1.5161  -22.2368  -55.6799 H         1 UNK         0.0800 
    245 H245        2.4139  -20.7563  -55.7311 H         1 UNK         0.0800 
    246 H246        3.5699  -20.4774  -53.5102 H         1 UNK         0.0800 
    247 H247        2.5731  -19.0423  -53.6296 H         1 UNK         0.0800 
@<TRIPOS>BOND
     1    1    2 1    
     2    1  127 1    
     3    1  128 1    
     4    1  129 1    
     5    2    3 2    
     6    2    4 am   BACKBONE|DICT|INTERRES
     7    4    5 1    
     8    4  130 1    
     9    5    6 1    
    10    5   65 1    
    11    5  131 1    
    12    6    7 1    
    13    6  132 1    
    14    6  133 1    
    15    7    8 1    
    16    8    9 1    
    17    8  134 1    
    18    8  135 1    
    19    9   10 ar   
    20    9   14 ar   
    21   10   11 ar   
    22   10  136 1    
    23   11   12 ar   
    24   11  126 1    
    25   12   13 ar   
    26   12  137 1    
    27   13   14 ar   
    28   13   15 1    
    29   14  138 1    
    30   15   16 1    
    31   15  139 1    
    32   15  140 1    
    33   16   17 1    
    34   17   18 1    
    35   17  141 1    
    36   17  142 1    
    37   18   19 1    
    38   18   67 1    
    39   18  143 1    
    40   19   20 am   BACKBONE|DICT|INTERRES
    41   19  144 1    
    42   20   21 2    
    43   20   22 1    
    44   22   23 1    
    45   22   24 1    
    46   22  145 1    
    47   23  146 1    
    48   23  147 1    
    49   23  148 1    
    50   24   25 am   BACKBONE|DICT|INTERRES
    51   24  149 1    
    52   25   26 2    
    53   25   27 1    
    54   27   28 1    
    55   27   29 1    
    56   27  150 1    
    57   28  151 1    
    58   28  152 1    
    59   28  153 1    
    60   29   30 am   BACKBONE|DICT|INTERRES
    61   29  154 1    
    62   30   31 2    
    63   30   32 1    
    64   32   33 1    
    65   32   34 1    
    66   32  155 1    
    67   33  156 1    
    68   33  157 1    
    69   33  158 1    
    70   34   35 am   BACKBONE|DICT|INTERRES
    71   34  159 1    
    72   35   36 2    
    73   35   37 1    
    74   37   38 1    
    75   37   39 1    
    76   37  160 1    
    77   38  161 1    
    78   38  162 1    
    79   38  163 1    
    80   39   40 am   BACKBONE|DICT|INTERRES
    81   39  164 1    
    82   40   41 2    
    83   40   42 1    
    84   42   43 1    
    85   42   44 1    
    86   42  165 1    
    87   43  166 1    
    88   43  167 1    
    89   43  168 1    
    90   44   45 am   BACKBONE|DICT|INTERRES
    91   44  169 1    
    92   45   46 2    
    93   45   47 1    
    94   47   48 1    
    95   47   49 1    
    96   47  170 1    
    97   48  171 1    
    98   48  172 1    
    99   48  173 1    
   100   49   50 am   BACKBONE|DICT|INTERRES
   101   49  174 1    
   102   50   51 2    
   103   50   52 1    
   104   52   53 1    
   105   52   54 1    
   106   52  175 1    
   107   53  176 1    
   108   53  177 1    
   109   53  178 1    
   110   54   55 am   BACKBONE|DICT|INTERRES
   111   54  179 1    
   112   55   56 2    
   113   55   57 1    
   114   57   58 1    
   115   57   59 1    
   116   57  180 1    
   117   58  181 1    
   118   58  182 1    
   119   58  183 1    
   120   59   60 am   BACKBONE|DICT|INTERRES
   121   59  184 1    
   122   60   61 2    
   123   60   62 1    
   124   62   63 1    
   125   62   64 1    
   126   62  185 1    
   127   63  186 1    
   128   63  187 1    
   129   63  188 1    
   130   64   65 am   BACKBONE|DICT|INTERRES
   131   64  189 1    
   132   65   66 2    
   133   67   68 2    
   134   67   69 am   BACKBONE|DICT|INTERRES
   135   69   70 1    
   136   69  190 1    
   137   70   71 1    
   138   70   72 1    
   139   70  191 1    
   140   71  192 1    
   141   71  193 1    
   142   71  194 1    
   143   72   73 2    
   144   72   74 am   BACKBONE|DICT|INTERRES
   145   74   75 1    
   146   74  195 1    
   147   75   76 1    
   148   75   77 1    
   149   75  196 1    
   150   76  197 1    
   151   76  198 1    
   152   76  199 1    
   153   77   78 2    
   154   77   79 am   BACKBONE|DICT|INTERRES
   155   79   80 1    
   156   79  200 1    
   157   80   81 1    
   158   80   82 1    
   159   80  201 1    
   160   81  202 1    
   161   81  203 1    
   162   81  204 1    
   163   82   83 2    
   164   82   84 am   BACKBONE|DICT|INTERRES
   165   84   85 1    
   166   84  205 1    
   167   85   86 1    
   168   85   87 1    
   169   85  206 1    
   170   86  207 1    
   171   86  208 1    
   172   86  209 1    
   173   87   88 2    
   174   87   89 am   BACKBONE|DICT|INTERRES
   175   89   90 1    
   176   89  210 1    
   177   90   91 1    
   178   90   92 1    
   179   90  211 1    
   180   91  212 1    
   181   91  213 1    
   182   91  214 1    
   183   92   93 2    
   184   92   94 am   BACKBONE|DICT|INTERRES
   185   94   95 1    
   186   94  215 1    
   187   95   96 1    
   188   95   97 1    
   189   95  216 1    
   190   96  217 1    
   191   96  218 1    
   192   96  219 1    
   193   97   98 2    
   194   97   99 am   BACKBONE|DICT|INTERRES
   195   99  100 1    
   196   99  220 1    
   197  100  101 1    
   198  100  102 1    
   199  100  221 1    
   200  101  222 1    
   201  101  223 1    
   202  101  224 1    
   203  102  103 2    
   204  102  104 am   BACKBONE|DICT|INTERRES
   205  104  105 1    
   206  104  225 1    
   207  105  106 1    
   208  105  107 1    
   209  105  226 1    
   210  106  227 1    
   211  106  228 1    
   212  106  229 1    
   213  107  108 2    
   214  107  109 am   BACKBONE|DICT|INTERRES
   215  109  110 1    
   216  109  230 1    
   217  110  111 1    
   218  110  112 1    
   219  110  231 1    
   220  111  232 1    
   221  111  233 1    
   222  111  234 1    
   223  112  113 2    
   224  112  114 am   BACKBONE|DICT|INTERRES
   225  114  115 1    
   226  114  235 1    
   227  115  116 1    
   228  115  117 1    
   229  115  236 1    
   230  116  237 1    
   231  116  238 1    
   232  116  239 1    
   233  117  118 2    
   234  117  119 am   BACKBONE|DICT|INTERRES
   235  119  120 1    
   236  119  240 1    
   237  120  121 1    
   238  120  124 1    
   239  120  241 1    
   240  121  122 am   BACKBONE|DICT|INTERRES
   241  121  123 2    
   242  122  242 1    
   243  122  243 1    
   244  124  125 1    
   245  124  244 1    
   246  124  245 1    
   247  125  126 1    
   248  126  246 1    
   249  126  247 1    
@<TRIPOS>SUBSTRUCTURE
     1 UNK         1 GROUP             0       ****    0 ROOT    
