@<TRIPOS>MOLECULE
3R540
247   249    1
SMALL
USER_CHARGES


@<TRIPOS>ATOM
      1 CA         -4.3885  -16.4279  -48.3343 C.3       0 UNK        -0.1800 
      2 C          -3.2508  -15.4777  -48.6835 C.2       0 UNK         0.5000 
      3 O          -3.4330  -14.5732  -49.4986 O.2       0 UNK        -0.5000 
      4 N          -2.0813  -15.6796  -48.0630 N.am      1 UNK        -0.5000 
      5 CA         -0.8953  -14.8324  -48.2028 C.3       1 UNK         0.1400 
      6 C6          0.3499  -15.4715  -47.5370 C.3       23 UNK        -0.0398 
      7 S7          1.8990  -14.7921  -48.2235 S.3       23 UNK        -0.2404 
      8 C8          2.7756  -16.2832  -48.8082 C.3       23 UNK        -0.0205 
      9 C9          1.9827  -17.1687  -49.7662 C.ar      23 UNK        -0.0193 
     10 C10         1.1059  -16.6313  -50.7158 C.ar      23 UNK        -0.1150 
     11 C11         0.3853  -17.4656  -51.5743 C.ar      23 UNK        -0.0193 
     12 C12         0.5735  -18.8476  -51.5052 C.ar      23 UNK        -0.1150 
     13 C13         1.4532  -19.3986  -50.5706 C.ar      23 UNK        -0.0193 
     14 C14         2.1498  -18.5550  -49.7021 C.ar      23 UNK        -0.1150 
     15 C15         1.6537  -20.9044  -50.5060 C.3       23 UNK        -0.0205 
     16 S16         0.1849  -21.7522  -49.8536 S.3       23 UNK        -0.2404 
     17 C17         0.1722  -21.2349  -48.1009 C.3       23 UNK        -0.0398 
     18 CA          0.1804  -22.4542  -47.1511 C.3       11 UNK         0.1400 
     19 N           0.5777  -22.1000  -45.7885 N.am      11 UNK        -0.5000 
     20 C           0.9554  -22.9976  -44.8669 C.2       10 UNK         0.5000 
     21 O           1.0812  -24.2011  -45.0952 O.2       10 UNK        -0.5000 
     22 CA          1.1949  -22.4724  -43.4404 C.3       10 UNK         0.1400 
     23 CB          2.6035  -21.8742  -43.3109 C.3       10 UNK        -0.1800 
     24 N           0.1963  -21.4870  -43.0216 N.am      10 UNK        -0.5000 
     25 C          -1.1155  -21.7400  -42.9041 C.2       9 UNK         0.5000 
     26 O          -1.6196  -22.8437  -43.1071 O.2       9 UNK        -0.5000 
     27 CA         -2.0265  -20.5551  -42.5413 C.3       9 UNK         0.1400 
     28 CB         -1.9892  -20.2824  -41.0304 C.3       9 UNK        -0.1800 
     29 N          -1.6922  -19.3329  -43.2719 N.am      9 UNK        -0.5000 
     30 C          -1.7435  -19.1954  -44.6045 C.2       8 UNK         0.5000 
     31 O          -2.0894  -20.0861  -45.3785 O.2       8 UNK        -0.5000 
     32 CA         -1.2730  -17.8489  -45.1762 C.3       8 UNK         0.1400 
     33 CB         -2.3178  -16.7497  -44.9260 C.3       8 UNK        -0.1800 
     34 N           0.0190  -17.4423  -44.6267 N.am      8 UNK        -0.5000 
     35 C           1.1601  -18.1326  -44.7745 C.2       7 UNK         0.5000 
     36 O           1.2638  -19.1491  -45.4626 O.2       7 UNK        -0.5000 
     37 CA          2.3720  -17.6297  -43.9710 C.3       7 UNK         0.1400 
     38 CB          3.1050  -16.5037  -44.7157 C.3       7 UNK        -0.1800 
     39 N           1.9851  -17.1666  -42.6375 N.am      7 UNK        -0.5000 
     40 C           1.5646  -17.9721  -41.6510 C.2       6 UNK         0.5000 
     41 O           1.4916  -19.1959  -41.7518 O.2       6 UNK        -0.5000 
     42 CA          1.1046  -17.2894  -40.3503 C.3       6 UNK         0.1400 
     43 CB          2.3088  -16.9564  -39.4570 C.3       6 UNK        -0.1800 
     44 N           0.3361  -16.0705  -40.6045 N.am      6 UNK        -0.5000 
     45 C          -0.8654  -16.0414  -41.1993 C.2       5 UNK         0.5000 
     46 O          -1.4811  -17.0504  -41.5380 O.2       5 UNK        -0.5000 
     47 CA         -1.4517  -14.6524  -41.5148 C.3       5 UNK         0.1400 
     48 CB         -2.3197  -14.1555  -40.3497 C.3       5 UNK        -0.1800 
     49 N          -0.4172  -13.6581  -41.8109 N.am      5 UNK        -0.5000 
     50 C           0.3887  -13.7017  -42.8791 C.2       4 UNK         0.5000 
     51 O           0.3251  -14.5669  -43.7570 O.2       4 UNK        -0.5000 
     52 CA          1.5045  -12.6542  -42.9240 C.3       4 UNK         0.1400 
     53 CB          2.7587  -13.1968  -42.2092 C.3       4 UNK        -0.1800 
     54 N           1.8041  -12.3341  -44.3146 N.am      4 UNK        -0.5000 
     55 C           2.5448  -11.2977  -44.7247 C.2       3 UNK         0.5000 
     56 O           3.0641  -10.4803  -43.9633 O.2       3 UNK        -0.5000 
     57 CA          2.7337  -11.1378  -46.2430 C.3       3 UNK         0.1400 
     58 CB          3.8680  -12.0472  -46.7406 C.3       3 UNK        -0.1800 
     59 N           1.5147  -11.4061  -47.0093 N.am      3 UNK        -0.5000 
     60 C           0.4285  -10.6171  -47.0082 C.2       2 UNK         0.5000 
     61 O           0.3248   -9.6030  -46.3172 O.2       2 UNK        -0.5000 
     62 CA         -0.7279  -10.9973  -47.9545 C.3       2 UNK         0.1400 
     63 CB         -0.7062  -10.1082  -49.2078 C.3       2 UNK        -0.1800 
     64 N          -0.6828  -12.3983  -48.3728 N.am      2 UNK        -0.5000 
     65 C          -1.1423  -13.4174  -47.6378 C.2       1 UNK         0.5000 
     66 O          -1.6985  -13.2805  -46.5461 O.2       1 UNK        -0.5000 
     67 C          -1.1646  -23.2106  -47.1626 C.2       11 UNK         0.5000 
     68 O          -1.2561  -24.2648  -47.7892 O.2       11 UNK        -0.5000 
     69 N          -2.1693  -22.6980  -46.4367 N.am      12 UNK        -0.5000 
     70 CA         -3.5100  -23.2826  -46.3483 C.3       12 UNK         0.1400 
     71 CB         -4.4400  -22.3389  -45.5742 C.3       12 UNK        -0.1800 
     72 C          -3.5357  -24.6988  -45.7443 C.2       12 UNK         0.5000 
     73 O          -4.3630  -25.5143  -46.1523 O.2       12 UNK        -0.5000 
     74 N          -2.6076  -24.9779  -44.8189 N.am      13 UNK        -0.5000 
     75 CA         -2.3672  -26.3021  -44.2464 C.3       13 UNK         0.1400 
     76 CB         -1.3968  -26.1740  -43.0625 C.3       13 UNK        -0.1800 
     77 C          -1.8381  -27.3248  -45.2722 C.2       13 UNK         0.5000 
     78 O          -2.1049  -28.5173  -45.1169 O.2       13 UNK        -0.5000 
     79 N          -1.1170  -26.8535  -46.3003 N.am      14 UNK        -0.5000 
     80 CA         -0.6874  -27.6643  -47.4379 C.3       14 UNK         0.1400 
     81 CB          0.5883  -27.0739  -48.0619 C.3       14 UNK        -0.1800 
     82 C          -1.8235  -27.7854  -48.4675 C.2       14 UNK         0.5000 
     83 O          -2.1938  -28.9041  -48.8266 O.2       14 UNK        -0.5000 
     84 N          -2.3815  -26.6431  -48.8900 N.am      15 UNK        -0.5000 
     85 CA         -3.5331  -26.5524  -49.7806 C.3       15 UNK         0.1400 
     86 CB         -3.1505  -26.9451  -51.2215 C.3       15 UNK        -0.1800 
     87 C          -4.0997  -25.1279  -49.7487 C.2       15 UNK         0.5000 
     88 O          -3.3990  -24.1808  -50.1105 O.2       15 UNK        -0.5000 
     89 N          -5.3825  -24.9948  -49.3874 N.am      16 UNK        -0.5000 
     90 CA         -6.1264  -23.7305  -49.4335 C.3       16 UNK         0.1400 
     91 CB         -7.5025  -23.9241  -48.7817 C.3       16 UNK        -0.1800 
     92 C          -6.2693  -23.1722  -50.8625 C.2       16 UNK         0.5000 
     93 O          -6.2705  -21.9555  -51.0450 O.2       16 UNK        -0.5000 
     94 N          -6.3273  -24.0738  -51.8530 N.am      17 UNK        -0.5000 
     95 CA         -6.3303  -23.7504  -53.2789 C.3       17 UNK         0.1400 
     96 CB         -6.6171  -25.0265  -54.0842 C.3       17 UNK        -0.1800 
     97 C          -5.0188  -23.0961  -53.7535 C.2       17 UNK         0.5000 
     98 O          -5.0636  -22.2502  -54.6447 O.2       17 UNK        -0.5000 
     99 N          -3.8848  -23.4745  -53.1431 N.am      18 UNK        -0.5000 
    100 CA        -2.5808  -22.8620  -53.3978 C.3       18 UNK         0.1400 
    101 CB        -1.4525  -23.7934  -52.9287 C.3       18 UNK        -0.1800 
    102 C         -2.4763  -21.4859  -52.7235 C.2       18 UNK         0.5000 
    103 O         -2.0187  -20.5364  -53.3589 O.2       18 UNK        -0.5000 
    104 N         -2.9528  -21.3934  -51.4726 N.am      19 UNK        -0.5000 
    105 CA        -2.9916  -20.1610  -50.6802 C.3       19 UNK         0.1400 
    106 CB        -3.4888  -20.4826  -49.2623 C.3       19 UNK        -0.1800 
    107 C         -3.8492  -19.0573  -51.3262 C.2       19 UNK         0.5000 
    108 O         -3.4768  -17.8869  -51.2751 O.2       19 UNK        -0.5000 
    109 N         -4.9636  -19.4575  -51.9501 N.am      20 UNK        -0.5000 
    110 CA        -5.8639  -18.5833  -52.7000 C.3       20 UNK         0.1400 
    111 CB        -7.2234  -19.2889  -52.8303 C.3       20 UNK        -0.1800 
    112 C         -5.3348  -18.1803  -54.0936 C.2       20 UNK         0.5000 
    113 O         -5.9030  -17.2694  -54.6983 O.2       20 UNK        -0.5000 
    114 N         -4.3009  -18.8688  -54.5969 N.am      21 UNK        -0.5000 
    115 CA        -3.7247  -18.6680  -55.9241 C.3       21 UNK         0.1400 
    116 CB        -3.4529  -20.0428  -56.5690 C.3       21 UNK        -0.1800 
    117 C         -2.4880  -17.7510  -55.8447 C.2       21 UNK         0.5000 
    118 O         -2.6404  -16.5705  -55.5321 O.2       21 UNK        -0.5000 
    119 N         -1.3121  -18.2912  -56.1928 N.am      22 UNK        -0.5000 
    120 CA         0.0273  -17.6758  -56.3110 C.3       22 UNK         0.1400 
    121 C          0.1907  -16.4475  -57.2607 C.2       22 UNK         0.5000 
    122 N         -0.8695  -15.7680  -57.6728 N.am      22 UNK        -0.7600 
    123 O          1.3069  -16.1318  -57.6644 O.2       22 UNK        -0.5000 
    124 C124        0.7558  -17.4928  -54.9500 C.3       23 UNK        -0.0398 
    125 S125        0.2264  -16.0552  -53.9529 S.3       23 UNK        -0.2404 
    126 C126       -0.6084  -16.8704  -52.5595 C.3       23 UNK        -0.0205 
    127 H127       -4.0249  -17.3307  -47.8437 H         1 UNK         0.0600 
    128 H128       -4.9222  -16.7272  -49.2363 H         1 UNK         0.0600 
    129 H129       -5.0963  -15.9355  -47.6677 H         1 UNK         0.0600 
    130 H130       -2.0140  -16.4177  -47.3819 H         1 UNK         0.3000 
    131 H131       -0.7119  -14.7489  -49.2759 H         1 UNK         0.0600 
    132 H132        0.3444  -16.5516  -47.6854 H         1 UNK         0.0800 
    133 H133        0.3465  -15.3227  -46.4559 H         1 UNK         0.0800 
    134 H134        3.0789  -16.8611  -47.9355 H         1 UNK         0.0800 
    135 H135        3.6948  -15.9723  -49.3057 H         1 UNK         0.0800 
    136 H136        0.9758  -15.5615  -50.7893 H         1 UNK         0.1150 
    137 H137        0.0273  -19.5000  -52.1708 H         1 UNK         0.1150 
    138 H138        2.8294  -18.9798  -48.9765 H         1 UNK         0.1150 
    139 H139        1.8578  -21.2794  -51.5098 H         1 UNK         0.0800 
    140 H140        2.5235  -21.1622  -49.8996 H         1 UNK         0.0800 
    141 H141       -0.6875  -20.5886  -47.9170 H         1 UNK         0.0800 
    142 H142        1.0515  -20.6192  -47.9092 H         1 UNK         0.0800 
    143 H143        0.9389  -23.1475  -47.5228 H         1 UNK         0.0600 
    144 H144        0.5310  -21.1192  -45.5337 H         1 UNK         0.3000 
    145 H145        1.1242  -23.3234  -42.7598 H         1 UNK         0.0600 
    146 H146        2.8165  -21.5872  -42.2811 H         1 UNK         0.0600 
    147 H147        2.7246  -20.9901  -43.9371 H         1 UNK         0.0600 
    148 H148        3.3641  -22.5963  -43.6104 H         1 UNK         0.0600 
    149 H149        0.5430  -20.5633  -42.7799 H         1 UNK         0.3000 
    150 H150       -3.0486  -20.8289  -42.8091 H         1 UNK         0.0600 
    151 H151       -2.2499  -21.1778  -40.4647 H         1 UNK         0.0600 
    152 H152       -2.7004  -19.5041  -40.7535 H         1 UNK         0.0600 
    153 H153       -0.9998  -19.9622  -40.7030 H         1 UNK         0.0600 
    154 H154       -1.4338  -18.5282  -42.7064 H         1 UNK         0.3000 
    155 H155       -1.1491  -17.9713  -46.2537 H         1 UNK         0.0600 
    156 H156       -3.2432  -16.9623  -45.4617 H         1 UNK         0.0600 
    157 H157       -1.9616  -15.7724  -45.2507 H         1 UNK         0.0600 
    158 H158       -2.5754  -16.6655  -43.8714 H         1 UNK         0.0600 
    159 H159        0.0371  -16.5906  -44.0764 H         1 UNK         0.3000 
    160 H160        3.0658  -18.4645  -43.8524 H         1 UNK         0.0600 
    161 H161        2.4527  -15.6563  -44.9269 H         1 UNK         0.0600 
    162 H162        3.4949  -16.8631  -45.6672 H         1 UNK         0.0600 
    163 H163        3.9549  -16.1371  -44.1400 H         1 UNK         0.0600 
    164 H164        1.9710  -16.1694  -42.4897 H         1 UNK         0.3000 
    165 H165        0.4628  -17.9910  -39.8132 H         1 UNK         0.0600 
    166 H166        1.9876  -16.5404  -38.5019 H         1 UNK         0.0600 
    167 H167        2.8924  -17.8521  -39.2402 H         1 UNK         0.0600 
    168 H168        2.9769  -16.2354  -39.9299 H         1 UNK         0.0600 
    169 H169        0.7655  -15.1957  -40.3436 H         1 UNK         0.3000 
    170 H170       -2.0873  -14.7519  -42.3970 H         1 UNK         0.0600 
    171 H171       -1.7340  -14.0157  -39.4402 H         1 UNK         0.0600 
    172 H172       -2.7981  -13.2062  -40.5912 H         1 UNK         0.0600 
    173 H173       -3.1130  -14.8692  -40.1229 H         1 UNK         0.0600 
    174 H174       -0.2968  -12.9195  -41.1325 H         1 UNK         0.3000 
    175 H175        1.1568  -11.7491  -42.4217 H         1 UNK         0.0600 
    176 H176        3.1691  -14.0659  -42.7241 H         1 UNK         0.0600 
    177 H177        3.5448  -12.4443  -42.1518 H         1 UNK         0.0600 
    178 H178        2.5318  -13.4964  -41.1854 H         1 UNK         0.0600 
    179 H179        1.3800  -12.9541  -44.9923 H         1 UNK         0.3000 
    180 H180        3.0261  -10.1031  -46.4343 H         1 UNK         0.0600 
    181 H181        4.8095  -11.7945  -46.2513 H         1 UNK         0.0600 
    182 H182        3.6663  -13.0979  -46.5307 H         1 UNK         0.0600 
    183 H183        4.0215  -11.9407  -47.8146 H         1 UNK         0.0600 
    184 H184        1.5205  -12.2241  -47.6012 H         1 UNK         0.3000 
    185 H185       -1.6643  -10.8113  -47.4238 H         1 UNK         0.0600 
    186 H186        0.2096  -10.2456  -49.7842 H         1 UNK         0.0600 
    187 H187       -1.5510  -10.3273  -49.8612 H         1 UNK         0.0600 
    188 H188       -0.7701   -9.0527  -48.9399 H         1 UNK         0.0600 
    189 H189       -0.2416  -12.5881  -49.2614 H         1 UNK         0.3000 
    190 H190       -2.0329  -21.8115  -45.9543 H         1 UNK         0.3000 
    191 H191       -3.8854  -23.3618  -47.3674 H         1 UNK         0.0600 
    192 H192       -4.4996  -21.3625  -46.0555 H         1 UNK         0.0600 
    193 H193       -4.0953  -22.1897  -44.5509 H         1 UNK         0.0600 
    194 H194       -5.4530  -22.7402  -45.5266 H         1 UNK         0.0600 
    195 H195       -2.0248  -24.2211  -44.4736 H         1 UNK         0.3000 
    196 H196       -3.3188  -26.6798  -43.8670 H         1 UNK         0.0600 
    197 H197       -1.8049  -25.5258  -42.2868 H         1 UNK         0.0600 
    198 H198       -0.4367  -25.7606  -43.3731 H         1 UNK         0.0600 
    199 H199       -1.2049  -27.1456  -42.6057 H         1 UNK         0.0600 
    200 H200       -0.9815  -25.8535  -46.3855 H         1 UNK         0.3000 
    201 H201       -0.4416  -28.6687  -47.0864 H         1 UNK         0.0600 
    202 H202        1.3855  -26.9930  -47.3229 H         1 UNK         0.0600 
    203 H203        0.4247  -26.0830  -48.4839 H         1 UNK         0.0600 
    204 H204        0.9539  -27.7120  -48.8671 H         1 UNK         0.0600 
    205 H205       -2.0185  -25.7522  -48.5497 H         1 UNK         0.3000 
    206 H206       -4.3011  -27.2407  -49.4217 H         1 UNK         0.0600 
    207 H207       -2.3059  -26.3589  -51.5839 H         1 UNK         0.0600 
    208 H208       -2.8772  -27.9977  -51.2909 H         1 UNK         0.0600 
    209 H209       -3.9827  -26.7850  -51.9082 H         1 UNK         0.0600 
    210 H210       -5.8965  -25.8094  -49.0833 H         1 UNK         0.3000 
    211 H211       -5.5786  -22.9884  -48.8515 H         1 UNK         0.0600 
    212 H212       -8.0962  -24.6734  -49.3067 H         1 UNK         0.0600 
    213 H213       -8.0703  -22.9926  -48.7854 H         1 UNK         0.0600 
    214 H214       -7.4041  -24.2393  -47.7426 H         1 UNK         0.0600 
    215 H215       -6.3318  -25.0529  -51.6092 H         1 UNK         0.3000 
    216 H216       -7.1393  -23.0397  -53.4613 H         1 UNK         0.0600 
    217 H217       -6.6486  -24.8138  -55.1537 H         1 UNK         0.0600 
    218 H218       -7.5808  -25.4572  -53.8116 H         1 UNK         0.0600 
    219 H219       -5.8510  -25.7860  -53.9230 H         1 UNK         0.0600 
    220 H220       -3.9334  -24.1310  -52.3772 H         1 UNK         0.3000 
    221 H221       -2.4676  -22.7196  -54.4747 H         1 UNK         0.0600 
    222 H222       -1.4743  -23.9542  -51.8509 H         1 UNK         0.0600 
    223 H223       -1.5139  -24.7657  -53.4172 H         1 UNK         0.0600 
    224 H224       -0.4772  -23.3688  -53.1699 H         1 UNK         0.0600 
    225 H225       -3.2722  -22.2401  -51.0163 H         1 UNK         0.3000 
    226 H226       -1.9708  -19.7842  -50.6050 H         1 UNK         0.0600 
    227 H227       -2.9206  -21.3009  -48.8224 H         1 UNK         0.0600 
    228 H228       -3.3789  -19.6195  -48.6055 H         1 UNK         0.0600 
    229 H229       -4.5406  -20.7681  -49.2570 H         1 UNK         0.0600 
    230 H230       -5.2351  -20.4330  -51.8783 H         1 UNK         0.3000 
    231 H231       -6.0102  -17.6645  -52.1282 H         1 UNK         0.0600 
    232 H232       -7.9450  -18.6615  -53.3549 H         1 UNK         0.0600 
    233 H233       -7.6443  -19.5180  -51.8511 H         1 UNK         0.0600 
    234 H234       -7.1359  -20.2250  -53.3839 H         1 UNK         0.0600 
    235 H235       -3.8435  -19.5593  -54.0147 H         1 UNK         0.3000 
    236 H236       -4.4441  -18.1565  -56.5666 H         1 UNK         0.0600 
    237 H237       -2.7734  -20.6521  -55.9730 H         1 UNK         0.0600 
    238 H238       -4.3806  -20.6036  -56.6818 H         1 UNK         0.0600 
    239 H239       -3.0278  -19.9376  -57.5680 H         1 UNK         0.0600 
    240 H240       -1.3350  -19.2677  -56.4483 H         1 UNK         0.3000 
    241 H241        0.5886  -18.4553  -56.8280 H         1 UNK         0.0600 
    242 H242       -0.7568  -14.9841  -58.2960 H         1 UNK         0.3800 
    243 H243       -1.7626  -15.9479  -57.2307 H         1 UNK         0.3800 
    244 H244        1.8269  -17.3813  -55.1254 H         1 UNK         0.0800 
    245 H245        0.6591  -18.4057  -54.3623 H         1 UNK         0.0800 
    246 H246       -1.2889  -17.6349  -52.9389 H         1 UNK         0.0800 
    247 H247       -1.2327  -16.1405  -52.0418 H         1 UNK         0.0800 
@<TRIPOS>BOND
     1    1    2 1    
     2    1  127 1    
     3    1  128 1    
     4    1  129 1    
     5    2    3 2    
     6    2    4 am   BACKBONE|DICT|INTERRES
     7    4    5 1    
     8    4  130 1    
     9    5    6 1    
    10    5   65 1    
    11    5  131 1    
    12    6    7 1    
    13    6  132 1    
    14    6  133 1    
    15    7    8 1    
    16    8    9 1    
    17    8  134 1    
    18    8  135 1    
    19    9   10 ar   
    20    9   14 ar   
    21   10   11 ar   
    22   10  136 1    
    23   11   12 ar   
    24   11  126 1    
    25   12   13 ar   
    26   12  137 1    
    27   13   14 ar   
    28   13   15 1    
    29   14  138 1    
    30   15   16 1    
    31   15  139 1    
    32   15  140 1    
    33   16   17 1    
    34   17   18 1    
    35   17  141 1    
    36   17  142 1    
    37   18   19 1    
    38   18   67 1    
    39   18  143 1    
    40   19   20 am   BACKBONE|DICT|INTERRES
    41   19  144 1    
    42   20   21 2    
    43   20   22 1    
    44   22   23 1    
    45   22   24 1    
    46   22  145 1    
    47   23  146 1    
    48   23  147 1    
    49   23  148 1    
    50   24   25 am   BACKBONE|DICT|INTERRES
    51   24  149 1    
    52   25   26 2    
    53   25   27 1    
    54   27   28 1    
    55   27   29 1    
    56   27  150 1    
    57   28  151 1    
    58   28  152 1    
    59   28  153 1    
    60   29   30 am   BACKBONE|DICT|INTERRES
    61   29  154 1    
    62   30   31 2    
    63   30   32 1    
    64   32   33 1    
    65   32   34 1    
    66   32  155 1    
    67   33  156 1    
    68   33  157 1    
    69   33  158 1    
    70   34   35 am   BACKBONE|DICT|INTERRES
    71   34  159 1    
    72   35   36 2    
    73   35   37 1    
    74   37   38 1    
    75   37   39 1    
    76   37  160 1    
    77   38  161 1    
    78   38  162 1    
    79   38  163 1    
    80   39   40 am   BACKBONE|DICT|INTERRES
    81   39  164 1    
    82   40   41 2    
    83   40   42 1    
    84   42   43 1    
    85   42   44 1    
    86   42  165 1    
    87   43  166 1    
    88   43  167 1    
    89   43  168 1    
    90   44   45 am   BACKBONE|DICT|INTERRES
    91   44  169 1    
    92   45   46 2    
    93   45   47 1    
    94   47   48 1    
    95   47   49 1    
    96   47  170 1    
    97   48  171 1    
    98   48  172 1    
    99   48  173 1    
   100   49   50 am   BACKBONE|DICT|INTERRES
   101   49  174 1    
   102   50   51 2    
   103   50   52 1    
   104   52   53 1    
   105   52   54 1    
   106   52  175 1    
   107   53  176 1    
   108   53  177 1    
   109   53  178 1    
   110   54   55 am   BACKBONE|DICT|INTERRES
   111   54  179 1    
   112   55   56 2    
   113   55   57 1    
   114   57   58 1    
   115   57   59 1    
   116   57  180 1    
   117   58  181 1    
   118   58  182 1    
   119   58  183 1    
   120   59   60 am   BACKBONE|DICT|INTERRES
   121   59  184 1    
   122   60   61 2    
   123   60   62 1    
   124   62   63 1    
   125   62   64 1    
   126   62  185 1    
   127   63  186 1    
   128   63  187 1    
   129   63  188 1    
   130   64   65 am   BACKBONE|DICT|INTERRES
   131   64  189 1    
   132   65   66 2    
   133   67   68 2    
   134   67   69 am   BACKBONE|DICT|INTERRES
   135   69   70 1    
   136   69  190 1    
   137   70   71 1    
   138   70   72 1    
   139   70  191 1    
   140   71  192 1    
   141   71  193 1    
   142   71  194 1    
   143   72   73 2    
   144   72   74 am   BACKBONE|DICT|INTERRES
   145   74   75 1    
   146   74  195 1    
   147   75   76 1    
   148   75   77 1    
   149   75  196 1    
   150   76  197 1    
   151   76  198 1    
   152   76  199 1    
   153   77   78 2    
   154   77   79 am   BACKBONE|DICT|INTERRES
   155   79   80 1    
   156   79  200 1    
   157   80   81 1    
   158   80   82 1    
   159   80  201 1    
   160   81  202 1    
   161   81  203 1    
   162   81  204 1    
   163   82   83 2    
   164   82   84 am   BACKBONE|DICT|INTERRES
   165   84   85 1    
   166   84  205 1    
   167   85   86 1    
   168   85   87 1    
   169   85  206 1    
   170   86  207 1    
   171   86  208 1    
   172   86  209 1    
   173   87   88 2    
   174   87   89 am   BACKBONE|DICT|INTERRES
   175   89   90 1    
   176   89  210 1    
   177   90   91 1    
   178   90   92 1    
   179   90  211 1    
   180   91  212 1    
   181   91  213 1    
   182   91  214 1    
   183   92   93 2    
   184   92   94 am   BACKBONE|DICT|INTERRES
   185   94   95 1    
   186   94  215 1    
   187   95   96 1    
   188   95   97 1    
   189   95  216 1    
   190   96  217 1    
   191   96  218 1    
   192   96  219 1    
   193   97   98 2    
   194   97   99 am   BACKBONE|DICT|INTERRES
   195   99  100 1    
   196   99  220 1    
   197  100  101 1    
   198  100  102 1    
   199  100  221 1    
   200  101  222 1    
   201  101  223 1    
   202  101  224 1    
   203  102  103 2    
   204  102  104 am   BACKBONE|DICT|INTERRES
   205  104  105 1    
   206  104  225 1    
   207  105  106 1    
   208  105  107 1    
   209  105  226 1    
   210  106  227 1    
   211  106  228 1    
   212  106  229 1    
   213  107  108 2    
   214  107  109 am   BACKBONE|DICT|INTERRES
   215  109  110 1    
   216  109  230 1    
   217  110  111 1    
   218  110  112 1    
   219  110  231 1    
   220  111  232 1    
   221  111  233 1    
   222  111  234 1    
   223  112  113 2    
   224  112  114 am   BACKBONE|DICT|INTERRES
   225  114  115 1    
   226  114  235 1    
   227  115  116 1    
   228  115  117 1    
   229  115  236 1    
   230  116  237 1    
   231  116  238 1    
   232  116  239 1    
   233  117  118 2    
   234  117  119 am   BACKBONE|DICT|INTERRES
   235  119  120 1    
   236  119  240 1    
   237  120  121 1    
   238  120  124 1    
   239  120  241 1    
   240  121  122 am   BACKBONE|DICT|INTERRES
   241  121  123 2    
   242  122  242 1    
   243  122  243 1    
   244  124  125 1    
   245  124  244 1    
   246  124  245 1    
   247  125  126 1    
   248  126  246 1    
   249  126  247 1    
@<TRIPOS>SUBSTRUCTURE
     1 UNK         1 GROUP             0       ****    0 ROOT    
