@<TRIPOS>MOLECULE
3R540
247   249    1
SMALL
USER_CHARGES


@<TRIPOS>ATOM
      1 CA         -7.4352  -13.5051  -47.4122 C.3       0 UNK        -0.1800 
      2 C          -5.9342  -13.7343  -47.5113 C.2       0 UNK         0.5000 
      3 O          -5.1607  -12.7850  -47.3913 O.2       0 UNK        -0.5000 
      4 N          -5.5168  -14.9925  -47.7126 N.am      1 UNK        -0.5000 
      5 CA         -4.1148  -15.4129  -47.8604 C.3       1 UNK         0.1400 
      6 C6         -4.0213  -16.9025  -48.2699 C.3       23 UNK        -0.0398 
      7 S7         -2.4387  -17.3182  -49.0737 S.3       23 UNK        -0.2404 
      8 C8         -1.8990  -18.7351  -48.0773 C.3       23 UNK        -0.0205 
      9 C9         -0.6494  -19.3693  -48.6639 C.ar      23 UNK        -0.0193 
     10 C10         0.5743  -18.6989  -48.6011 C.ar      23 UNK        -0.1150 
     11 C11         1.7188  -19.2612  -49.1720 C.ar      23 UNK        -0.0193 
     12 C12         1.6374  -20.5116  -49.7917 C.ar      23 UNK        -0.1150 
     13 C13         0.4243  -21.2015  -49.8427 C.ar      23 UNK        -0.0193 
     14 C14        -0.7163  -20.6202  -49.2830 C.ar      23 UNK        -0.1150 
     15 C15         0.3395  -22.5542  -50.5365 C.3       23 UNK        -0.0205 
     16 S16         0.8509  -23.9407  -49.4641 S.3       23 UNK        -0.2404 
     17 C17        -0.4829  -23.9726  -48.2126 C.3       23 UNK        -0.0398 
     18 CA         -0.0102  -23.7990  -46.7404 C.3       11 UNK         0.1400 
     19 N           1.1618  -22.9313  -46.5890 N.am      11 UNK        -0.5000 
     20 C           1.8928  -22.8039  -45.4721 C.2       10 UNK         0.5000 
     21 O           1.5587  -23.2579  -44.3758 O.2       10 UNK        -0.5000 
     22 CA          3.2714  -22.1371  -45.6217 C.3       10 UNK         0.1400 
     23 CB          3.3577  -21.1219  -46.7730 C.3       10 UNK        -0.1800 
     24 N           3.6751  -21.4982  -44.3726 N.am      10 UNK        -0.5000 
     25 C           4.9272  -21.4748  -43.8963 C.2       9 UNK         0.5000 
     26 O           5.8706  -22.0461  -44.4469 O.2       9 UNK        -0.5000 
     27 CA          5.1798  -20.6779  -42.6007 C.3       9 UNK         0.1400 
     28 CB          6.5461  -19.9684  -42.6160 C.3       9 UNK        -0.1800 
     29 N           4.1407  -19.6726  -42.3918 N.am      9 UNK        -0.5000 
     30 C           3.3606  -19.5658  -41.3090 C.2       8 UNK         0.5000 
     31 O           3.4481  -20.3058  -40.3284 O.2       8 UNK        -0.5000 
     32 CA          2.2976  -18.4466  -41.3117 C.3       8 UNK         0.1400 
     33 CB          2.7300  -17.2923  -40.3944 C.3       8 UNK        -0.1800 
     34 N           2.0109  -17.9039  -42.6408 N.am      8 UNK        -0.5000 
     35 C           1.4187  -18.5752  -43.6381 C.2       7 UNK         0.5000 
     36 O           1.0226  -19.7362  -43.5420 O.2       7 UNK        -0.5000 
     37 CA          1.2965  -17.8416  -44.9853 C.3       7 UNK         0.1400 
     38 CB         -0.0610  -17.1316  -45.0718 C.3       7 UNK        -0.1800 
     39 N           2.3750  -16.8770  -45.2361 N.am      7 UNK        -0.5000 
     40 C           3.6802  -17.1900  -45.3145 C.2       6 UNK         0.5000 
     41 O           4.1127  -18.3289  -45.1469 O.2       6 UNK        -0.5000 
     42 CA          4.6839  -16.0564  -45.6030 C.3       6 UNK         0.1400 
     43 CB          5.0620  -16.0385  -47.0921 C.3       6 UNK        -0.1800 
     44 N           4.2059  -14.7290  -45.2239 N.am      6 UNK        -0.5000 
     45 C           3.9582  -14.3197  -43.9722 C.2       5 UNK         0.5000 
     46 O           4.1457  -15.0152  -42.9736 O.2       5 UNK        -0.5000 
     47 CA          3.3615  -12.9056  -43.8210 C.3       5 UNK         0.1400 
     48 CB          4.4707  -11.8813  -43.5386 C.3       5 UNK        -0.1800 
     49 N           2.5818  -12.4627  -44.9849 N.am      5 UNK        -0.5000 
     50 C           1.4747  -13.0713  -45.4302 C.2       4 UNK         0.5000 
     51 O           1.0193  -14.1013  -44.9317 O.2       4 UNK        -0.5000 
     52 CA          0.7756  -12.4518  -46.6489 C.3       4 UNK         0.1400 
     53 CB          0.8523  -13.3964  -47.8609 C.3       4 UNK        -0.1800 
     54 N          -0.6213  -12.1965  -46.3117 N.am      4 UNK        -0.5000 
     55 C          -1.0420  -11.1180  -45.6332 C.2       3 UNK         0.5000 
     56 O          -0.3116  -10.1661  -45.3534 O.2       3 UNK        -0.5000 
     57 CA         -2.5143  -11.0896  -45.1726 C.3       3 UNK         0.1400 
     58 CB         -3.3703  -10.2842  -46.1612 C.3       3 UNK        -0.1800 
     59 N          -3.0904  -12.4248  -45.0095 N.am      3 UNK        -0.5000 
     60 C          -2.7268  -13.2966  -44.0556 C.2       2 UNK         0.5000 
     61 O          -1.9682  -13.0061  -43.1300 O.2       2 UNK        -0.5000 
     62 CA         -3.2856  -14.7347  -44.1414 C.3       2 UNK         0.1400 
     63 CB         -4.3250  -14.9767  -43.0357 C.3       2 UNK        -0.1800 
     64 N          -3.8860  -15.0866  -45.4313 N.am      2 UNK        -0.5000 
     65 C          -3.2535  -15.1058  -46.6140 C.2       1 UNK         0.5000 
     66 O          -2.0628  -14.8297  -46.7491 O.2       1 UNK        -0.5000 
     67 C          -1.1912  -23.3698  -45.8505 C.2       11 UNK         0.5000 
     68 O          -1.6764  -24.1737  -45.0528 O.2       11 UNK        -0.5000 
     69 N          -1.6277  -22.1127  -46.0318 N.am      12 UNK        -0.5000 
     70 CA         -2.7818  -21.4380  -45.4204 C.3       12 UNK         0.1400 
     71 CB         -2.5777  -21.2547  -43.9045 C.3       12 UNK        -0.1800 
     72 C          -4.1484  -22.0872  -45.7354 C.2       12 UNK         0.5000 
     73 O          -5.0193  -21.4313  -46.3080 O.2       12 UNK        -0.5000 
     74 N          -4.3085  -23.3548  -45.3462 N.am      13 UNK        -0.5000 
     75 CA         -5.5119  -24.1708  -45.4822 C.3       13 UNK         0.1400 
     76 CB         -5.3861  -25.3559  -44.5086 C.3       13 UNK        -0.1800 
     77 C          -5.7527  -24.6664  -46.9225 C.2       13 UNK         0.5000 
     78 O          -4.9221  -24.4541  -47.8109 O.2       13 UNK        -0.5000 
     79 N          -6.9001  -25.3363  -47.1130 N.am      14 UNK        -0.5000 
     80 CA         -7.3585  -25.9836  -48.3498 C.3       14 UNK         0.1400 
     81 CB         -6.4571  -27.1877  -48.6963 C.3       14 UNK        -0.1800 
     82 C          -7.5139  -24.9917  -49.5192 C.2       14 UNK         0.5000 
     83 O          -7.0917  -25.2828  -50.6394 O.2       14 UNK        -0.5000 
     84 N          -8.0825  -23.8142  -49.2152 N.am      15 UNK        -0.5000 
     85 CA         -8.2334  -22.6575  -50.1070 C.3       15 UNK         0.1400 
     86 CB         -9.2488  -22.9597  -51.2297 C.3       15 UNK        -0.1800 
     87 C          -6.8715  -22.1686  -50.6414 C.2       15 UNK         0.5000 
     88 O          -6.7181  -21.9565  -51.8454 O.2       15 UNK        -0.5000 
     89 N          -5.8948  -22.0577  -49.7270 N.am      16 UNK        -0.5000 
     90 CA         -4.4837  -21.7559  -49.9802 C.3       16 UNK         0.1400 
     91 CB         -4.3257  -20.3098  -50.4941 C.3       16 UNK        -0.1800 
     92 C          -3.8313  -22.8029  -50.9068 C.2       16 UNK         0.5000 
     93 O          -3.1978  -22.4365  -51.8958 O.2       16 UNK        -0.5000 
     94 N          -4.0461  -24.0872  -50.5830 N.am      17 UNK        -0.5000 
     95 CA         -3.6805  -25.2772  -51.3630 C.3       17 UNK         0.1400 
     96 CB         -2.1702  -25.5591  -51.2577 C.3       17 UNK        -0.1800 
     97 C          -4.1805  -25.2158  -52.8223 C.2       17 UNK         0.5000 
     98 O          -3.3938  -25.3732  -53.7576 O.2       17 UNK        -0.5000 
     99 N          -5.4888  -24.9671  -52.9722 N.am      18 UNK        -0.5000 
    100 CA        -6.2192  -24.7807  -54.2281 C.3       18 UNK         0.1400 
    101 CB        -6.2879  -26.1025  -55.0215 C.3       18 UNK        -0.1800 
    102 C         -5.6753  -23.5969  -55.0562 C.2       18 UNK         0.5000 
    103 O         -5.3279  -23.7612  -56.2276 O.2       18 UNK        -0.5000 
    104 N         -5.6283  -22.4205  -54.4161 N.am      19 UNK        -0.5000 
    105 CA        -5.2176  -21.1251  -54.9619 C.3       19 UNK         0.1400 
    106 CB        -6.2038  -20.6512  -56.0505 C.3       19 UNK        -0.1800 
    107 C         -3.7419  -21.0774  -55.4126 C.2       19 UNK         0.5000 
    108 O         -3.4303  -20.5056  -56.4587 O.2       19 UNK        -0.5000 
    109 N         -2.8495  -21.6283  -54.5816 N.am      20 UNK        -0.5000 
    110 CA        -1.3916  -21.5195  -54.6962 C.3       20 UNK         0.1400 
    111 CB        -0.7723  -22.8984  -54.4095 C.3       20 UNK        -0.1800 
    112 C         -0.8486  -20.4282  -53.7443 C.2       20 UNK         0.5000 
    113 O          0.2956  -20.5108  -53.2974 O.2       20 UNK        -0.5000 
    114 N         -1.7036  -19.4448  -53.4354 N.am      21 UNK        -0.5000 
    115 CA        -1.5195  -18.3590  -52.4785 C.3       21 UNK         0.1400 
    116 CB        -2.7906  -17.4916  -52.5199 C.3       21 UNK        -0.1800 
    117 C         -0.2873  -17.4724  -52.7301 C.2       21 UNK         0.5000 
    118 O          0.0041  -17.1370  -53.8810 O.2       21 UNK        -0.5000 
    119 N          0.3495  -17.0396  -51.6349 N.am      22 UNK        -0.5000 
    120 CA         1.3716  -15.9785  -51.6307 C.3       22 UNK         0.1400 
    121 C          0.7748  -14.5397  -51.6418 C.2       22 UNK         0.5000 
    122 N         -0.5168  -14.3466  -51.3997 N.am      22 UNK        -0.7600 
    123 O          1.4986  -13.5784  -51.8851 O.2       22 UNK        -0.5000 
    124 C124        2.3759  -16.1363  -50.4603 C.3       23 UNK        -0.0398 
    125 S125        3.4183  -17.6239  -50.6298 S.3       23 UNK        -0.2404 
    126 C126        3.0507  -18.5342  -49.0999 C.3       23 UNK        -0.0205 
    127 H127       -7.7599  -12.8119  -48.1882 H         1 UNK         0.0600 
    128 H128       -7.6850  -13.0742  -46.4426 H         1 UNK         0.0600 
    129 H129       -7.9963  -14.4326  -47.5277 H         1 UNK         0.0600 
    130 H130       -6.2065  -15.7259  -47.7960 H         1 UNK         0.3000 
    131 H131       -3.7063  -14.8133  -48.6771 H         1 UNK         0.0600 
    132 H132       -4.2067  -17.5573  -47.4164 H         1 UNK         0.0800 
    133 H133       -4.8004  -17.1357  -48.9971 H         1 UNK         0.0800 
    134 H134       -2.7099  -19.4629  -48.0301 H         1 UNK         0.0800 
    135 H135       -1.7066  -18.4101  -47.0561 H         1 UNK         0.0800 
    136 H136        0.6294  -17.7330  -48.1192 H         1 UNK         0.1150 
    137 H137        2.5207  -20.9484  -50.2362 H         1 UNK         0.1150 
    138 H138       -1.6598  -21.1387  -49.3432 H         1 UNK         0.1150 
    139 H139       -0.6729  -22.7252  -50.9013 H         1 UNK         0.0800 
    140 H140        0.9758  -22.5443  -51.4227 H         1 UNK         0.0800 
    141 H141       -0.9944  -24.9315  -48.2971 H         1 UNK         0.0800 
    142 H142       -1.2338  -23.2343  -48.4906 H         1 UNK         0.0800 
    143 H143        0.3060  -24.7852  -46.3928 H         1 UNK         0.0600 
    144 H144        1.5176  -22.5372  -47.4486 H         1 UNK         0.3000 
    145 H145        3.9608  -22.9538  -45.8448 H         1 UNK         0.0600 
    146 H146        3.2316  -21.6080  -47.7399 H         1 UNK         0.0600 
    147 H147        2.5982  -20.3474  -46.6758 H         1 UNK         0.0600 
    148 H148        4.3306  -20.6305  -46.7930 H         1 UNK         0.0600 
    149 H149        2.9307  -21.0605  -43.8437 H         1 UNK         0.3000 
    150 H150        5.1807  -21.4056  -41.7871 H         1 UNK         0.0600 
    151 H151        7.3634  -20.6845  -42.7094 H         1 UNK         0.0600 
    152 H152        6.7103  -19.4110  -41.6937 H         1 UNK         0.0600 
    153 H153        6.6220  -19.2682  -43.4490 H         1 UNK         0.0600 
    154 H154        3.9851  -19.0473  -43.1756 H         1 UNK         0.3000 
    155 H155        1.3741  -18.8737  -40.9154 H         1 UNK         0.0600 
    156 H156        1.9568  -16.5262  -40.3317 H         1 UNK         0.0600 
    157 H157        3.6447  -16.8175  -40.7520 H         1 UNK         0.0600 
    158 H158        2.9183  -17.6464  -39.3800 H         1 UNK         0.0600 
    159 H159        2.3344  -16.9635  -42.8228 H         1 UNK         0.3000 
    160 H160        1.3366  -18.5952  -45.7725 H         1 UNK         0.0600 
    161 H161       -0.1616  -16.3663  -44.3021 H         1 UNK         0.0600 
    162 H162       -0.8817  -17.8359  -44.9336 H         1 UNK         0.0600 
    163 H163       -0.1962  -16.6508  -46.0403 H         1 UNK         0.0600 
    164 H164        2.0932  -15.9068  -45.3210 H         1 UNK         0.3000 
    165 H165        5.5851  -16.2676  -45.0236 H         1 UNK         0.0600 
    166 H166        5.8625  -15.3244  -47.2862 H         1 UNK         0.0600 
    167 H167        5.4166  -17.0168  -47.4197 H         1 UNK         0.0600 
    168 H168        4.2130  -15.7674  -47.7207 H         1 UNK         0.0600 
    169 H169        4.0207  -14.0829  -45.9764 H         1 UNK         0.3000 
    170 H170        2.6890  -12.9281  -42.9609 H         1 UNK         0.0600 
    171 H171        5.0543  -12.1688  -42.6629 H         1 UNK         0.0600 
    172 H172        5.1609  -11.7932  -44.3786 H         1 UNK         0.0600 
    173 H173        4.0548  -10.8934  -43.3393 H         1 UNK         0.0600 
    174 H174        2.8956  -11.6178  -45.4408 H         1 UNK         0.3000 
    175 H175        1.2648  -11.5132  -46.9178 H         1 UNK         0.0600 
    176 H176        0.3274  -12.9787  -48.7201 H         1 UNK         0.0600 
    177 H177        1.8873  -13.5623  -48.1616 H         1 UNK         0.0600 
    178 H178        0.4148  -14.3723  -47.6465 H         1 UNK         0.0600 
    179 H179       -1.2545  -12.9795  -46.4403 H         1 UNK         0.3000 
    180 H180       -2.5485  -10.5853  -44.2047 H         1 UNK         0.0600 
    181 H181       -3.3540  -10.7261  -47.1582 H         1 UNK         0.0600 
    182 H182       -3.0042   -9.2606  -46.2505 H         1 UNK         0.0600 
    183 H183       -4.4090  -10.2313  -45.8344 H         1 UNK         0.0600 
    184 H184       -3.7299  -12.7290  -45.7344 H         1 UNK         0.3000 
    185 H185       -2.4455  -15.4116  -43.9755 H         1 UNK         0.0600 
    186 H186       -3.9071  -14.7637  -42.0508 H         1 UNK         0.0600 
    187 H187       -5.2024  -14.3417  -43.1643 H         1 UNK         0.0600 
    188 H188       -4.6581  -16.0147  -43.0265 H         1 UNK         0.0600 
    189 H189       -4.8743  -15.2917  -45.4222 H         1 UNK         0.3000 
    190 H190       -1.1117  -21.5490  -46.6917 H         1 UNK         0.3000 
    191 H191       -2.8086  -20.4390  -45.8551 H         1 UNK         0.0600 
    192 H192       -1.6618  -20.7006  -43.6976 H         1 UNK         0.0600 
    193 H193       -3.4032  -20.6935  -43.4652 H         1 UNK         0.0600 
    194 H194       -2.5149  -22.2077  -43.3790 H         1 UNK         0.0600 
    195 H195       -3.4824  -23.8254  -44.9852 H         1 UNK         0.3000 
    196 H196       -6.3709  -23.5642  -45.1885 H         1 UNK         0.0600 
    197 H197       -6.2889  -25.9674  -44.4979 H         1 UNK         0.0600 
    198 H198       -5.2240  -25.0102  -43.4874 H         1 UNK         0.0600 
    199 H199       -4.5518  -26.0058  -44.7764 H         1 UNK         0.0600 
    200 H200       -7.5193  -25.4457  -46.3217 H         1 UNK         0.3000 
    201 H201       -8.3584  -26.3703  -48.1478 H         1 UNK         0.0600 
    202 H202       -6.4081  -27.8926  -47.8665 H         1 UNK         0.0600 
    203 H203       -5.4386  -26.8796  -48.9318 H         1 UNK         0.0600 
    204 H204       -6.8427  -27.7315  -49.5596 H         1 UNK         0.0600 
    205 H205       -8.3857  -23.6740  -48.2617 H         1 UNK         0.3000 
    206 H206       -8.6384  -21.8440  -49.5035 H         1 UNK         0.0600 
    207 H207      -10.2029  -23.2898  -50.8193 H         1 UNK         0.0600 
    208 H208       -9.4440  -22.0690  -51.8281 H         1 UNK         0.0600 
    209 H209       -8.8898  -23.7345  -51.9077 H         1 UNK         0.0600 
    210 H210       -6.1146  -22.2919  -48.7688 H         1 UNK         0.3000 
    211 H211       -3.9725  -21.8294  -49.0195 H         1 UNK         0.0600 
    212 H212       -4.8031  -20.1664  -51.4633 H         1 UNK         0.0600 
    213 H213       -3.2761  -20.0475  -50.6142 H         1 UNK         0.0600 
    214 H214       -4.7616  -19.5949  -49.7970 H         1 UNK         0.0600 
    215 H215       -4.5574  -24.2715  -49.7239 H         1 UNK         0.3000 
    216 H216       -4.2007  -26.1178  -50.9026 H         1 UNK         0.0600 
    217 H217       -1.9011  -26.4635  -51.8044 H         1 UNK         0.0600 
    218 H218       -1.8741  -25.7150  -50.2230 H         1 UNK         0.0600 
    219 H219       -1.5753  -24.7434  -51.6648 H         1 UNK         0.0600 
    220 H220       -6.0515  -24.8913  -52.1265 H         1 UNK         0.3000 
    221 H221       -7.2396  -24.5151  -53.9479 H         1 UNK         0.0600 
    222 H222       -5.3040  -26.4252  -55.3629 H         1 UNK         0.0600 
    223 H223       -6.7118  -26.9032  -54.4154 H         1 UNK         0.0600 
    224 H224       -6.9200  -25.9940  -55.9036 H         1 UNK         0.0600 
    225 H225       -5.9419  -22.3903  -53.4467 H         1 UNK         0.3000 
    226 H226       -5.2952  -20.4218  -54.1315 H         1 UNK         0.0600 
    227 H227       -7.2307  -20.6666  -55.6850 H         1 UNK         0.0600 
    228 H228       -5.9857  -19.6275  -56.3566 H         1 UNK         0.0600 
    229 H229       -6.1554  -21.2757  -56.9429 H         1 UNK         0.0600 
    230 H230       -3.1746  -22.0419  -53.7087 H         1 UNK         0.3000 
    231 H231       -1.1119  -21.2300  -55.7108 H         1 UNK         0.0600 
    232 H232       -0.9645  -23.2156  -53.3850 H         1 UNK         0.0600 
    233 H233        0.3084  -22.8848  -54.5542 H         1 UNK         0.0600 
    234 H234       -1.1807  -23.6596  -55.0746 H         1 UNK         0.0600 
    235 H235       -2.6029  -19.4750  -53.8879 H         1 UNK         0.3000 
    236 H236       -1.4230  -18.8118  -51.4914 H         1 UNK         0.0600 
    237 H237       -3.6662  -18.0491  -52.1896 H         1 UNK         0.0600 
    238 H238       -2.7027  -16.6180  -51.8745 H         1 UNK         0.0600 
    239 H239       -2.9895  -17.1231  -53.5271 H         1 UNK         0.0600 
    240 H240        0.0611  -17.3828  -50.7298 H         1 UNK         0.3000 
    241 H241        1.9443  -16.0597  -52.5567 H         1 UNK         0.0600 
    242 H242       -0.8860  -13.4094  -51.4202 H         1 UNK         0.3800 
    243 H243       -1.1231  -15.1199  -51.1843 H         1 UNK         0.3800 
    244 H244        3.0579  -15.2849  -50.4209 H         1 UNK         0.0800 
    245 H245        1.8519  -16.1416  -49.5040 H         1 UNK         0.0800 
    246 H246        3.0704  -17.8584  -48.2455 H         1 UNK         0.0800 
    247 H247        3.8502  -19.2563  -48.9310 H         1 UNK         0.0800 
@<TRIPOS>BOND
     1    1    2 1    
     2    1  127 1    
     3    1  128 1    
     4    1  129 1    
     5    2    3 2    
     6    2    4 am   BACKBONE|DICT|INTERRES
     7    4    5 1    
     8    4  130 1    
     9    5    6 1    
    10    5   65 1    
    11    5  131 1    
    12    6    7 1    
    13    6  132 1    
    14    6  133 1    
    15    7    8 1    
    16    8    9 1    
    17    8  134 1    
    18    8  135 1    
    19    9   10 ar   
    20    9   14 ar   
    21   10   11 ar   
    22   10  136 1    
    23   11   12 ar   
    24   11  126 1    
    25   12   13 ar   
    26   12  137 1    
    27   13   14 ar   
    28   13   15 1    
    29   14  138 1    
    30   15   16 1    
    31   15  139 1    
    32   15  140 1    
    33   16   17 1    
    34   17   18 1    
    35   17  141 1    
    36   17  142 1    
    37   18   19 1    
    38   18   67 1    
    39   18  143 1    
    40   19   20 am   BACKBONE|DICT|INTERRES
    41   19  144 1    
    42   20   21 2    
    43   20   22 1    
    44   22   23 1    
    45   22   24 1    
    46   22  145 1    
    47   23  146 1    
    48   23  147 1    
    49   23  148 1    
    50   24   25 am   BACKBONE|DICT|INTERRES
    51   24  149 1    
    52   25   26 2    
    53   25   27 1    
    54   27   28 1    
    55   27   29 1    
    56   27  150 1    
    57   28  151 1    
    58   28  152 1    
    59   28  153 1    
    60   29   30 am   BACKBONE|DICT|INTERRES
    61   29  154 1    
    62   30   31 2    
    63   30   32 1    
    64   32   33 1    
    65   32   34 1    
    66   32  155 1    
    67   33  156 1    
    68   33  157 1    
    69   33  158 1    
    70   34   35 am   BACKBONE|DICT|INTERRES
    71   34  159 1    
    72   35   36 2    
    73   35   37 1    
    74   37   38 1    
    75   37   39 1    
    76   37  160 1    
    77   38  161 1    
    78   38  162 1    
    79   38  163 1    
    80   39   40 am   BACKBONE|DICT|INTERRES
    81   39  164 1    
    82   40   41 2    
    83   40   42 1    
    84   42   43 1    
    85   42   44 1    
    86   42  165 1    
    87   43  166 1    
    88   43  167 1    
    89   43  168 1    
    90   44   45 am   BACKBONE|DICT|INTERRES
    91   44  169 1    
    92   45   46 2    
    93   45   47 1    
    94   47   48 1    
    95   47   49 1    
    96   47  170 1    
    97   48  171 1    
    98   48  172 1    
    99   48  173 1    
   100   49   50 am   BACKBONE|DICT|INTERRES
   101   49  174 1    
   102   50   51 2    
   103   50   52 1    
   104   52   53 1    
   105   52   54 1    
   106   52  175 1    
   107   53  176 1    
   108   53  177 1    
   109   53  178 1    
   110   54   55 am   BACKBONE|DICT|INTERRES
   111   54  179 1    
   112   55   56 2    
   113   55   57 1    
   114   57   58 1    
   115   57   59 1    
   116   57  180 1    
   117   58  181 1    
   118   58  182 1    
   119   58  183 1    
   120   59   60 am   BACKBONE|DICT|INTERRES
   121   59  184 1    
   122   60   61 2    
   123   60   62 1    
   124   62   63 1    
   125   62   64 1    
   126   62  185 1    
   127   63  186 1    
   128   63  187 1    
   129   63  188 1    
   130   64   65 am   BACKBONE|DICT|INTERRES
   131   64  189 1    
   132   65   66 2    
   133   67   68 2    
   134   67   69 am   BACKBONE|DICT|INTERRES
   135   69   70 1    
   136   69  190 1    
   137   70   71 1    
   138   70   72 1    
   139   70  191 1    
   140   71  192 1    
   141   71  193 1    
   142   71  194 1    
   143   72   73 2    
   144   72   74 am   BACKBONE|DICT|INTERRES
   145   74   75 1    
   146   74  195 1    
   147   75   76 1    
   148   75   77 1    
   149   75  196 1    
   150   76  197 1    
   151   76  198 1    
   152   76  199 1    
   153   77   78 2    
   154   77   79 am   BACKBONE|DICT|INTERRES
   155   79   80 1    
   156   79  200 1    
   157   80   81 1    
   158   80   82 1    
   159   80  201 1    
   160   81  202 1    
   161   81  203 1    
   162   81  204 1    
   163   82   83 2    
   164   82   84 am   BACKBONE|DICT|INTERRES
   165   84   85 1    
   166   84  205 1    
   167   85   86 1    
   168   85   87 1    
   169   85  206 1    
   170   86  207 1    
   171   86  208 1    
   172   86  209 1    
   173   87   88 2    
   174   87   89 am   BACKBONE|DICT|INTERRES
   175   89   90 1    
   176   89  210 1    
   177   90   91 1    
   178   90   92 1    
   179   90  211 1    
   180   91  212 1    
   181   91  213 1    
   182   91  214 1    
   183   92   93 2    
   184   92   94 am   BACKBONE|DICT|INTERRES
   185   94   95 1    
   186   94  215 1    
   187   95   96 1    
   188   95   97 1    
   189   95  216 1    
   190   96  217 1    
   191   96  218 1    
   192   96  219 1    
   193   97   98 2    
   194   97   99 am   BACKBONE|DICT|INTERRES
   195   99  100 1    
   196   99  220 1    
   197  100  101 1    
   198  100  102 1    
   199  100  221 1    
   200  101  222 1    
   201  101  223 1    
   202  101  224 1    
   203  102  103 2    
   204  102  104 am   BACKBONE|DICT|INTERRES
   205  104  105 1    
   206  104  225 1    
   207  105  106 1    
   208  105  107 1    
   209  105  226 1    
   210  106  227 1    
   211  106  228 1    
   212  106  229 1    
   213  107  108 2    
   214  107  109 am   BACKBONE|DICT|INTERRES
   215  109  110 1    
   216  109  230 1    
   217  110  111 1    
   218  110  112 1    
   219  110  231 1    
   220  111  232 1    
   221  111  233 1    
   222  111  234 1    
   223  112  113 2    
   224  112  114 am   BACKBONE|DICT|INTERRES
   225  114  115 1    
   226  114  235 1    
   227  115  116 1    
   228  115  117 1    
   229  115  236 1    
   230  116  237 1    
   231  116  238 1    
   232  116  239 1    
   233  117  118 2    
   234  117  119 am   BACKBONE|DICT|INTERRES
   235  119  120 1    
   236  119  240 1    
   237  120  121 1    
   238  120  124 1    
   239  120  241 1    
   240  121  122 am   BACKBONE|DICT|INTERRES
   241  121  123 2    
   242  122  242 1    
   243  122  243 1    
   244  124  125 1    
   245  124  244 1    
   246  124  245 1    
   247  125  126 1    
   248  126  246 1    
   249  126  247 1    
@<TRIPOS>SUBSTRUCTURE
     1 UNK         1 GROUP             0       ****    0 ROOT    
