@<TRIPOS>MOLECULE
3R540
247   249    1
SMALL
USER_CHARGES


@<TRIPOS>ATOM
      1 CA         -2.5978  -14.6670  -49.5135 C.3       0 UNK        -0.1800 
      2 C          -1.2152  -14.2080  -49.9441 C.2       0 UNK         0.5000 
      3 O          -1.0644  -13.6323  -51.0205 O.2       0 UNK        -0.5000 
      4 N          -0.2032  -14.4534  -49.1061 N.am      1 UNK        -0.5000 
      5 CA          1.1967  -14.1097  -49.3486 C.3       1 UNK         0.1400 
      6 C6          2.1468  -15.1153  -48.6510 C.3       23 UNK        -0.0398 
      7 S7          3.8197  -15.0983  -49.3751 S.3       23 UNK        -0.2404 
      8 C8          4.5319  -16.6184  -48.6538 C.3       23 UNK        -0.0205 
      9 C9          4.0178  -17.9467  -49.2168 C.ar      23 UNK        -0.0193 
     10 C10         3.2626  -18.0405  -50.3950 C.ar      23 UNK        -0.1150 
     11 C11         2.8297  -19.2829  -50.8672 C.ar      23 UNK        -0.0193 
     12 C12         3.1624  -20.4430  -50.1641 C.ar      23 UNK        -0.1150 
     13 C13         3.9274  -20.3707  -48.9988 C.ar      23 UNK        -0.0193 
     14 C14         4.3488  -19.1218  -48.5331 C.ar      23 UNK        -0.1150 
     15 C15         4.3260  -21.6424  -48.2621 C.3       23 UNK        -0.0205 
     16 S16         3.4990  -21.7976  -46.6492 S.3       23 UNK        -0.2404 
     17 C17         1.7670  -22.1306  -47.1287 C.3       23 UNK        -0.0398 
     18 CA          1.2698  -23.5076  -46.6366 C.3       11 UNK         0.1400 
     19 N           1.4599  -23.6940  -45.1979 N.am      11 UNK        -0.5000 
     20 C           1.3888  -24.8704  -44.5644 C.2       10 UNK         0.5000 
     21 O           1.1666  -25.9414  -45.1294 O.2       10 UNK        -0.5000 
     22 CA          1.5476  -24.8267  -43.0342 C.3       10 UNK         0.1400 
     23 CB          3.0323  -24.7823  -42.6431 C.3       10 UNK        -0.1800 
     24 N           0.8515  -23.6851  -42.4356 N.am      10 UNK        -0.5000 
     25 C          -0.4804  -23.5368  -42.4350 C.2       9 UNK         0.5000 
     26 O          -1.2580  -24.3621  -42.9125 O.2       9 UNK        -0.5000 
     27 CA         -1.0392  -22.2378  -41.8283 C.3       9 UNK         0.1400 
     28 CB         -1.2408  -22.3971  -40.3139 C.3       9 UNK        -0.1800 
     29 N          -0.2238  -21.0467  -42.0848 N.am      9 UNK        -0.5000 
     30 C           0.0578  -20.5453  -43.2955 C.2       8 UNK         0.5000 
     31 O          -0.2286  -21.1124  -44.3518 O.2       8 UNK        -0.5000 
     32 CA          0.7829  -19.1863  -43.2998 C.3       8 UNK         0.1400 
     33 CB          2.3139  -19.3582  -43.3524 C.3       8 UNK        -0.1800 
     34 N           0.2637  -18.2894  -44.3401 N.am      8 UNK        -0.5000 
     35 C           0.5176  -18.2720  -45.6579 C.2       7 UNK         0.5000 
     36 O           1.4068  -18.9218  -46.2005 O.2       7 UNK        -0.5000 
     37 CA         -0.3310  -17.3137  -46.5217 C.3       7 UNK         0.1400 
     38 CB         -0.7186  -17.9291  -47.8795 C.3       7 UNK        -0.1800 
     39 N          -1.5055  -16.7486  -45.8441 N.am      7 UNK        -0.5000 
     40 C          -2.6035  -17.3819  -45.3995 C.2       6 UNK         0.5000 
     41 O          -2.8046  -18.5871  -45.5363 O.2       6 UNK        -0.5000 
     42 CA         -3.6351  -16.5349  -44.6241 C.3       6 UNK         0.1400 
     43 CB         -3.5645  -16.8601  -43.1236 C.3       6 UNK        -0.1800 
     44 N          -3.4409  -15.0932  -44.7993 N.am      6 UNK        -0.5000 
     45 C          -3.8738  -14.3947  -45.8572 C.2       5 UNK         0.5000 
     46 O          -4.5774  -14.8745  -46.7440 O.2       5 UNK        -0.5000 
     47 CA         -3.4297  -12.9205  -45.9610 C.3       5 UNK         0.1400 
     48 CB         -4.5426  -11.9880  -45.4604 C.3       5 UNK        -0.1800 
     49 N          -2.1852  -12.5966  -45.2533 N.am      5 UNK        -0.5000 
     50 C          -0.9855  -13.1380  -45.4991 C.2       4 UNK         0.5000 
     51 O          -0.7995  -14.0399  -46.3167 O.2       4 UNK        -0.5000 
     52 CA          0.1997  -12.5529  -44.7162 C.3       4 UNK         0.1400 
     53 CB          1.3880  -13.5269  -44.6326 C.3       4 UNK        -0.1800 
     54 N           0.6289  -11.3184  -45.3658 N.am      4 UNK        -0.5000 
     55 C           0.0995  -10.1113  -45.1223 C.2       3 UNK         0.5000 
     56 O          -0.7509   -9.9067  -44.2545 O.2       3 UNK        -0.5000 
     57 CA          0.5784   -8.9364  -45.9978 C.3       3 UNK         0.1400 
     58 CB          1.7110   -8.1710  -45.2970 C.3       3 UNK        -0.1800 
     59 N           1.0317   -9.3445  -47.3284 N.am      3 UNK        -0.5000 
     60 C           0.2436   -9.8407  -48.2917 C.2       2 UNK         0.5000 
     61 O          -0.9742   -9.9837  -48.1722 O.2       2 UNK        -0.5000 
     62 CA          0.9223  -10.2672  -49.6096 C.3       2 UNK         0.1400 
     63 CB          2.3563   -9.7198  -49.7934 C.3       2 UNK        -0.1800 
     64 N           0.9031  -11.7228  -49.7689 N.am      2 UNK        -0.5000 
     65 C           1.4321  -12.6386  -48.9446 C.2       1 UNK         0.5000 
     66 O           2.0318  -12.3605  -47.9036 O.2       1 UNK        -0.5000 
     67 C          -0.2066  -23.7196  -47.0148 C.2       11 UNK         0.5000 
     68 O          -0.4853  -24.3888  -48.0087 O.2       11 UNK        -0.5000 
     69 N          -1.1239  -23.1889  -46.1917 N.am      12 UNK        -0.5000 
     70 CA         -2.5701  -23.3649  -46.3264 C.3       12 UNK         0.1400 
     71 CB         -3.2999  -22.4695  -45.3164 C.3       12 UNK        -0.1800 
     72 C          -3.0179  -24.8297  -46.2000 C.2       12 UNK         0.5000 
     73 O          -3.9138  -25.2430  -46.9324 O.2       12 UNK        -0.5000 
     74 N          -2.3692  -25.5988  -45.3166 N.am      13 UNK        -0.5000 
     75 CA         -2.5666  -27.0417  -45.1913 C.3       13 UNK         0.1400 
     76 CB         -1.9057  -27.5416  -43.8976 C.3       13 UNK        -0.1800 
     77 C          -2.0359  -27.8142  -46.4142 C.2       13 UNK         0.5000 
     78 O          -2.7116  -28.7252  -46.8932 O.2       13 UNK        -0.5000 
     79 N          -0.8451  -27.4346  -46.8991 N.am      14 UNK        -0.5000 
     80 CA         -0.1653  -28.0726  -48.0269 C.3       14 UNK         0.1400 
     81 CB          1.3005  -27.6126  -48.0668 C.3       14 UNK        -0.1800 
     82 C          -0.8537  -27.8181  -49.3806 C.2       14 UNK         0.5000 
     83 O          -1.0919  -28.7677  -50.1279 O.2       14 UNK        -0.5000 
     84 N          -1.1534  -26.5466  -49.6761 N.am      15 UNK        -0.5000 
     85 CA         -1.7357  -26.1036  -50.9470 C.3       15 UNK         0.1400 
     86 CB         -1.1922  -24.7058  -51.2805 C.3       15 UNK        -0.1800 
     87 C          -3.2763  -26.0946  -50.9396 C.2       15 UNK         0.5000 
     88 O          -3.8780  -25.7808  -51.9665 O.2       15 UNK        -0.5000 
     89 N          -3.8882  -26.3966  -49.7868 N.am      16 UNK        -0.5000 
     90 CA         -5.3247  -26.4918  -49.4899 C.3       16 UNK         0.1400 
     91 CB         -6.0141  -27.5324  -50.3939 C.3       16 UNK        -0.1800 
     92 C          -6.0987  -25.1555  -49.4931 C.2       16 UNK         0.5000 
     93 O          -7.1212  -25.0650  -48.8116 O.2       16 UNK        -0.5000 
     94 N          -5.6272  -24.1489  -50.2392 N.am      17 UNK        -0.5000 
     95 CA         -6.2887  -22.8552  -50.4088 C.3       17 UNK         0.1400 
     96 CB         -7.3632  -22.9585  -51.5101 C.3       17 UNK        -0.1800 
     97 C          -5.2717  -21.7320  -50.6743 C.2       17 UNK         0.5000 
     98 O          -5.5455  -20.8413  -51.4809 O.2       17 UNK        -0.5000 
     99 N          -4.1180  -21.7720  -49.9872 N.am      18 UNK        -0.5000 
    100 CA        -3.0115  -20.8095  -50.1280 C.3       18 UNK         0.1400 
    101 CB        -1.8822  -21.1634  -49.1510 C.3       18 UNK        -0.1800 
    102 C         -3.4229  -19.3372  -49.9333 C.2       18 UNK         0.5000 
    103 O         -2.9147  -18.4665  -50.6365 O.2       18 UNK        -0.5000 
    104 N         -4.3839  -19.0970  -49.0303 N.am      19 UNK        -0.5000 
    105 CA        -4.9785  -17.7877  -48.7484 C.3       19 UNK         0.1400 
    106 CB        -5.9864  -17.9484  -47.6002 C.3       19 UNK        -0.1800 
    107 C         -5.6531  -17.1197  -49.9677 C.2       19 UNK         0.5000 
    108 O         -5.7864  -15.8962  -49.9867 O.2       19 UNK        -0.5000 
    109 N         -6.0543  -17.9242  -50.9610 N.am      20 UNK        -0.5000 
    110 CA        -6.5485  -17.4651  -52.2551 C.3       20 UNK         0.1400 
    111 CB        -7.8341  -18.2320  -52.6062 C.3       20 UNK        -0.1800 
    112 C         -5.4787  -17.6684  -53.3405 C.2       20 UNK         0.5000 
    113 O         -5.1876  -16.7352  -54.0900 O.2       20 UNK        -0.5000 
    114 N         -4.9168  -18.8840  -53.4097 N.am      21 UNK        -0.5000 
    115 CA        -4.0267  -19.3454  -54.4767 C.3       21 UNK         0.1400 
    116 CB        -3.7764  -20.8521  -54.3085 C.3       21 UNK        -0.1800 
    117 C         -2.6928  -18.5848  -54.5833 C.2       21 UNK         0.5000 
    118 O         -2.1795  -18.4370  -55.6936 O.2       21 UNK        -0.5000 
    119 N         -2.1580  -18.1139  -53.4503 N.am      22 UNK        -0.5000 
    120 CA        -0.9074  -17.3377  -53.3912 C.3       22 UNK         0.1400 
    121 C         -1.0837  -15.8270  -53.7207 C.2       22 UNK         0.5000 
    122 N         -2.2956  -15.3191  -53.9201 N.am      22 UNK        -0.7600 
    123 O         -0.0948  -15.1078  -53.8317 O.2       22 UNK        -0.5000 
    124 C124       -0.1497  -17.5525  -52.0547 C.3       23 UNK        -0.0398 
    125 S125        0.2318  -19.3194  -51.7826 S.3       23 UNK        -0.2404 
    126 C126        2.0111  -19.3857  -52.1429 C.3       23 UNK        -0.0205 
    127 H127       -2.9953  -15.3762  -50.2398 H         1 UNK         0.0600 
    128 H128       -2.5719  -15.1581  -48.5414 H         1 UNK         0.0600 
    129 H129       -3.2802  -13.8197  -49.4509 H         1 UNK         0.0600 
    130 H130       -0.4178  -14.7491  -48.1600 H         1 UNK         0.3000 
    131 H131        1.3806  -14.1869  -50.4230 H         1 UNK         0.0600 
    132 H132        1.7541  -16.1260  -48.7703 H         1 UNK         0.0800 
    133 H133        2.2083  -14.9433  -47.5763 H         1 UNK         0.0800 
    134 H134        5.6119  -16.5858  -48.8024 H         1 UNK         0.0800 
    135 H135        4.3702  -16.5964  -47.5747 H         1 UNK         0.0800 
    136 H136        3.0064  -17.1541  -50.9554 H         1 UNK         0.1150 
    137 H137        2.8307  -21.4039  -50.5318 H         1 UNK         0.1150 
    138 H138        4.9401  -19.0677  -47.6296 H         1 UNK         0.1150 
    139 H139        4.1151  -22.5282  -48.8633 H         1 UNK         0.0800 
    140 H140        5.4049  -21.6336  -48.1019 H         1 UNK         0.0800 
    141 H141        1.6637  -22.0565  -48.2122 H         1 UNK         0.0800 
    142 H142        1.1435  -21.3394  -46.7150 H         1 UNK         0.0800 
    143 H143        1.8534  -24.2739  -47.1513 H         1 UNK         0.0600 
    144 H144        1.6028  -22.8535  -44.6573 H         1 UNK         0.3000 
    145 H145        1.1133  -25.7427  -42.6277 H         1 UNK         0.0600 
    146 H146        3.1564  -24.8245  -41.5609 H         1 UNK         0.0600 
    147 H147        3.5715  -25.6317  -43.0646 H         1 UNK         0.0600 
    148 H148        3.5182  -23.8741  -43.0023 H         1 UNK         0.0600 
    149 H149        1.4202  -22.9596  -42.0247 H         1 UNK         0.3000 
    150 H150       -2.0176  -22.0631  -42.2793 H         1 UNK         0.0600 
    151 H151       -1.8637  -23.2648  -40.0918 H         1 UNK         0.0600 
    152 H152       -1.7380  -21.5257  -39.8875 H         1 UNK         0.0600 
    153 H153       -0.2921  -22.5321  -39.7928 H         1 UNK         0.0600 
    154 H154        0.0684  -20.5306  -41.2675 H         1 UNK         0.3000 
    155 H155        0.5482  -18.6845  -42.3597 H         1 UNK         0.0600 
    156 H156        2.6289  -19.9688  -44.1991 H         1 UNK         0.0600 
    157 H157        2.6782  -19.8518  -42.4510 H         1 UNK         0.0600 
    158 H158        2.8195  -18.3953  -43.4240 H         1 UNK         0.0600 
    159 H159       -0.4958  -17.6983  -44.0383 H         1 UNK         0.3000 
    160 H160        0.3233  -16.4669  -46.7267 H         1 UNK         0.0600 
    161 H161       -1.2611  -17.2194  -48.5021 H         1 UNK         0.0600 
    162 H162       -1.3520  -18.8022  -47.7423 H         1 UNK         0.0600 
    163 H163        0.1606  -18.2461  -48.4423 H         1 UNK         0.0600 
    164 H164       -1.4598  -15.7420  -45.7232 H         1 UNK         0.3000 
    165 H165       -4.6280  -16.8102  -44.9851 H         1 UNK         0.0600 
    166 H166       -4.3293  -16.3178  -42.5672 H         1 UNK         0.0600 
    167 H167       -3.7290  -17.9237  -42.9448 H         1 UNK         0.0600 
    168 H168       -2.5938  -16.6019  -42.6986 H         1 UNK         0.0600 
    169 H169       -2.8922  -14.6150  -44.1000 H         1 UNK         0.3000 
    170 H170       -3.2622  -12.7117  -47.0196 H         1 UNK         0.0600 
    171 H171       -5.4788  -12.1770  -45.9876 H         1 UNK         0.0600 
    172 H172       -4.7319  -12.1243  -44.3949 H         1 UNK         0.0600 
    173 H173       -4.2844  -10.9417  -45.6255 H         1 UNK         0.0600 
    174 H174       -2.2331  -11.8326  -44.5922 H         1 UNK         0.3000 
    175 H175       -0.1302  -12.3482  -43.6955 H         1 UNK         0.0600 
    176 H176        1.8054  -13.7453  -45.6144 H         1 UNK         0.0600 
    177 H177        2.1882  -13.1156  -44.0173 H         1 UNK         0.0600 
    178 H178        1.0869  -14.4749  -44.1852 H         1 UNK         0.0600 
    179 H179        1.2668  -11.4262  -46.1473 H         1 UNK         0.3000 
    180 H180       -0.2666   -8.2562  -46.1235 H         1 UNK         0.0600 
    181 H181        2.5950   -8.7956  -45.1616 H         1 UNK         0.0600 
    182 H182        1.3979   -7.8268  -44.3104 H         1 UNK         0.0600 
    183 H183        2.0052   -7.2903  -45.8684 H         1 UNK         0.0600 
    184 H184        2.0241   -9.2874  -47.5053 H         1 UNK         0.3000 
    185 H185        0.3094   -9.8586  -50.4143 H         1 UNK         0.0600 
    186 H186        2.3742   -8.6318  -49.7170 H         1 UNK         0.0600 
    187 H187        3.0539  -10.1178  -49.0559 H         1 UNK         0.0600 
    188 H188        2.7437   -9.9761  -50.7795 H         1 UNK         0.0600 
    189 H189        0.3413  -12.0721  -50.5377 H         1 UNK         0.3000 
    190 H190       -0.8068  -22.6038  -45.4226 H         1 UNK         0.3000 
    191 H191       -2.8537  -23.0418  -47.3272 H         1 UNK         0.0600 
    192 H192       -3.0115  -21.4244  -45.4341 H         1 UNK         0.0600 
    193 H193       -3.0830  -22.7640  -44.2903 H         1 UNK         0.0600 
    194 H194       -4.3803  -22.5277  -45.4529 H         1 UNK         0.0600 
    195 H195       -1.7020  -25.1679  -44.6847 H         1 UNK         0.3000 
    196 H196       -3.6393  -27.2325  -45.1162 H         1 UNK         0.0600 
    197 H197       -0.8318  -27.3534  -43.8927 H         1 UNK         0.0600 
    198 H198       -2.0524  -28.6151  -43.7733 H         1 UNK         0.0600 
    199 H199       -2.3335  -27.0510  -43.0231 H         1 UNK         0.0600 
    200 H200       -0.3379  -26.6968  -46.4235 H         1 UNK         0.3000 
    201 H201       -0.1700  -29.1507  -47.8528 H         1 UNK         0.0600 
    202 H202        1.3820  -26.5331  -48.1964 H         1 UNK         0.0600 
    203 H203        1.8367  -28.0843  -48.8912 H         1 UNK         0.0600 
    204 H204        1.8211  -27.8777  -47.1465 H         1 UNK         0.0600 
    205 H205       -0.9172  -25.8130  -49.0080 H         1 UNK         0.3000 
    206 H206       -1.4211  -26.7804  -51.7440 H         1 UNK         0.0600 
    207 H207       -1.5121  -24.3847  -52.2725 H         1 UNK         0.0600 
    208 H208       -1.5479  -23.9651  -50.5680 H         1 UNK         0.0600 
    209 H209       -0.1023  -24.6890  -51.2683 H         1 UNK         0.0600 
    210 H210       -3.2894  -26.5688  -48.9908 H         1 UNK         0.3000 
    211 H211       -5.3814  -26.8711  -48.4686 H         1 UNK         0.0600 
    212 H212       -6.0449  -27.2128  -51.4358 H         1 UNK         0.0600 
    213 H213       -5.5019  -28.4936  -50.3508 H         1 UNK         0.0600 
    214 H214       -7.0443  -27.6991  -50.0771 H         1 UNK         0.0600 
    215 H215       -4.8216  -24.3319  -50.8270 H         1 UNK         0.3000 
    216 H216       -6.7857  -22.5836  -49.4753 H         1 UNK         0.0600 
    217 H217       -7.9036  -22.0180  -51.6252 H         1 UNK         0.0600 
    218 H218       -8.1018  -23.7245  -51.2743 H         1 UNK         0.0600 
    219 H219       -6.9206  -23.2057  -52.4758 H         1 UNK         0.0600 
    220 H220       -3.9795  -22.5330  -49.3396 H         1 UNK         0.3000 
    221 H221       -2.6209  -20.9100  -51.1415 H         1 UNK         0.0600 
    222 H222       -2.1772  -20.9946  -48.1152 H         1 UNK         0.0600 
    223 H223       -1.5720  -22.1997  -49.2510 H         1 UNK         0.0600 
    224 H224       -0.9995  -20.5523  -49.3394 H         1 UNK         0.0600 
    225 H225       -4.7471  -19.8772  -48.5041 H         1 UNK         0.3000 
    226 H226       -4.1754  -17.1283  -48.4139 H         1 UNK         0.0600 
    227 H227       -5.5129  -18.3722  -46.7148 H         1 UNK         0.0600 
    228 H228       -6.4061  -16.9833  -47.3131 H         1 UNK         0.0600 
    229 H229       -6.8161  -18.5979  -47.8817 H         1 UNK         0.0600 
    230 H230       -5.8790  -18.9189  -50.8781 H         1 UNK         0.3000 
    231 H231       -6.7922  -16.4012  -52.2221 H         1 UNK         0.0600 
    232 H232       -8.6165  -18.0403  -51.8719 H         1 UNK         0.0600 
    233 H233       -7.6693  -19.3097  -52.6428 H         1 UNK         0.0600 
    234 H234       -8.2187  -17.9244  -53.5794 H         1 UNK         0.0600 
    235 H235       -5.1983  -19.5917  -52.7349 H         1 UNK         0.3000 
    236 H236       -4.5557  -19.1984  -55.4205 H         1 UNK         0.0600 
    237 H237       -3.1655  -21.2406  -55.1243 H         1 UNK         0.0600 
    238 H238       -3.2555  -21.0714  -53.3771 H         1 UNK         0.0600 
    239 H239       -4.7122  -21.4114  -54.3080 H         1 UNK         0.0600 
    240 H240       -2.6225  -18.2734  -52.5611 H         1 UNK         0.3000 
    241 H241       -0.2487  -17.7157  -54.1755 H         1 UNK         0.0600 
    242 H242       -2.3875  -14.3386  -54.1312 H         1 UNK         0.3800 
    243 H243       -3.1201  -15.9032  -53.8766 H         1 UNK         0.3800 
    244 H244        0.7752  -16.9747  -52.0341 H         1 UNK         0.0800 
    245 H245       -0.7425  -17.1887  -51.2149 H         1 UNK         0.0800 
    246 H246        2.2283  -20.3308  -52.6429 H         1 UNK         0.0800 
    247 H247        2.2919  -18.6030  -52.8491 H         1 UNK         0.0800 
@<TRIPOS>BOND
     1    1    2 1    
     2    1  127 1    
     3    1  128 1    
     4    1  129 1    
     5    2    3 2    
     6    2    4 am   BACKBONE|DICT|INTERRES
     7    4    5 1    
     8    4  130 1    
     9    5    6 1    
    10    5   65 1    
    11    5  131 1    
    12    6    7 1    
    13    6  132 1    
    14    6  133 1    
    15    7    8 1    
    16    8    9 1    
    17    8  134 1    
    18    8  135 1    
    19    9   10 ar   
    20    9   14 ar   
    21   10   11 ar   
    22   10  136 1    
    23   11   12 ar   
    24   11  126 1    
    25   12   13 ar   
    26   12  137 1    
    27   13   14 ar   
    28   13   15 1    
    29   14  138 1    
    30   15   16 1    
    31   15  139 1    
    32   15  140 1    
    33   16   17 1    
    34   17   18 1    
    35   17  141 1    
    36   17  142 1    
    37   18   19 1    
    38   18   67 1    
    39   18  143 1    
    40   19   20 am   BACKBONE|DICT|INTERRES
    41   19  144 1    
    42   20   21 2    
    43   20   22 1    
    44   22   23 1    
    45   22   24 1    
    46   22  145 1    
    47   23  146 1    
    48   23  147 1    
    49   23  148 1    
    50   24   25 am   BACKBONE|DICT|INTERRES
    51   24  149 1    
    52   25   26 2    
    53   25   27 1    
    54   27   28 1    
    55   27   29 1    
    56   27  150 1    
    57   28  151 1    
    58   28  152 1    
    59   28  153 1    
    60   29   30 am   BACKBONE|DICT|INTERRES
    61   29  154 1    
    62   30   31 2    
    63   30   32 1    
    64   32   33 1    
    65   32   34 1    
    66   32  155 1    
    67   33  156 1    
    68   33  157 1    
    69   33  158 1    
    70   34   35 am   BACKBONE|DICT|INTERRES
    71   34  159 1    
    72   35   36 2    
    73   35   37 1    
    74   37   38 1    
    75   37   39 1    
    76   37  160 1    
    77   38  161 1    
    78   38  162 1    
    79   38  163 1    
    80   39   40 am   BACKBONE|DICT|INTERRES
    81   39  164 1    
    82   40   41 2    
    83   40   42 1    
    84   42   43 1    
    85   42   44 1    
    86   42  165 1    
    87   43  166 1    
    88   43  167 1    
    89   43  168 1    
    90   44   45 am   BACKBONE|DICT|INTERRES
    91   44  169 1    
    92   45   46 2    
    93   45   47 1    
    94   47   48 1    
    95   47   49 1    
    96   47  170 1    
    97   48  171 1    
    98   48  172 1    
    99   48  173 1    
   100   49   50 am   BACKBONE|DICT|INTERRES
   101   49  174 1    
   102   50   51 2    
   103   50   52 1    
   104   52   53 1    
   105   52   54 1    
   106   52  175 1    
   107   53  176 1    
   108   53  177 1    
   109   53  178 1    
   110   54   55 am   BACKBONE|DICT|INTERRES
   111   54  179 1    
   112   55   56 2    
   113   55   57 1    
   114   57   58 1    
   115   57   59 1    
   116   57  180 1    
   117   58  181 1    
   118   58  182 1    
   119   58  183 1    
   120   59   60 am   BACKBONE|DICT|INTERRES
   121   59  184 1    
   122   60   61 2    
   123   60   62 1    
   124   62   63 1    
   125   62   64 1    
   126   62  185 1    
   127   63  186 1    
   128   63  187 1    
   129   63  188 1    
   130   64   65 am   BACKBONE|DICT|INTERRES
   131   64  189 1    
   132   65   66 2    
   133   67   68 2    
   134   67   69 am   BACKBONE|DICT|INTERRES
   135   69   70 1    
   136   69  190 1    
   137   70   71 1    
   138   70   72 1    
   139   70  191 1    
   140   71  192 1    
   141   71  193 1    
   142   71  194 1    
   143   72   73 2    
   144   72   74 am   BACKBONE|DICT|INTERRES
   145   74   75 1    
   146   74  195 1    
   147   75   76 1    
   148   75   77 1    
   149   75  196 1    
   150   76  197 1    
   151   76  198 1    
   152   76  199 1    
   153   77   78 2    
   154   77   79 am   BACKBONE|DICT|INTERRES
   155   79   80 1    
   156   79  200 1    
   157   80   81 1    
   158   80   82 1    
   159   80  201 1    
   160   81  202 1    
   161   81  203 1    
   162   81  204 1    
   163   82   83 2    
   164   82   84 am   BACKBONE|DICT|INTERRES
   165   84   85 1    
   166   84  205 1    
   167   85   86 1    
   168   85   87 1    
   169   85  206 1    
   170   86  207 1    
   171   86  208 1    
   172   86  209 1    
   173   87   88 2    
   174   87   89 am   BACKBONE|DICT|INTERRES
   175   89   90 1    
   176   89  210 1    
   177   90   91 1    
   178   90   92 1    
   179   90  211 1    
   180   91  212 1    
   181   91  213 1    
   182   91  214 1    
   183   92   93 2    
   184   92   94 am   BACKBONE|DICT|INTERRES
   185   94   95 1    
   186   94  215 1    
   187   95   96 1    
   188   95   97 1    
   189   95  216 1    
   190   96  217 1    
   191   96  218 1    
   192   96  219 1    
   193   97   98 2    
   194   97   99 am   BACKBONE|DICT|INTERRES
   195   99  100 1    
   196   99  220 1    
   197  100  101 1    
   198  100  102 1    
   199  100  221 1    
   200  101  222 1    
   201  101  223 1    
   202  101  224 1    
   203  102  103 2    
   204  102  104 am   BACKBONE|DICT|INTERRES
   205  104  105 1    
   206  104  225 1    
   207  105  106 1    
   208  105  107 1    
   209  105  226 1    
   210  106  227 1    
   211  106  228 1    
   212  106  229 1    
   213  107  108 2    
   214  107  109 am   BACKBONE|DICT|INTERRES
   215  109  110 1    
   216  109  230 1    
   217  110  111 1    
   218  110  112 1    
   219  110  231 1    
   220  111  232 1    
   221  111  233 1    
   222  111  234 1    
   223  112  113 2    
   224  112  114 am   BACKBONE|DICT|INTERRES
   225  114  115 1    
   226  114  235 1    
   227  115  116 1    
   228  115  117 1    
   229  115  236 1    
   230  116  237 1    
   231  116  238 1    
   232  116  239 1    
   233  117  118 2    
   234  117  119 am   BACKBONE|DICT|INTERRES
   235  119  120 1    
   236  119  240 1    
   237  120  121 1    
   238  120  124 1    
   239  120  241 1    
   240  121  122 am   BACKBONE|DICT|INTERRES
   241  121  123 2    
   242  122  242 1    
   243  122  243 1    
   244  124  125 1    
   245  124  244 1    
   246  124  245 1    
   247  125  126 1    
   248  126  246 1    
   249  126  247 1    
@<TRIPOS>SUBSTRUCTURE
     1 UNK         1 GROUP             0       ****    0 ROOT    
