@<TRIPOS>MOLECULE
3R540
247   249    1
SMALL
USER_CHARGES


@<TRIPOS>ATOM
      1 CA         -0.5488  -14.3241  -44.5076 C.3       0 UNK        -0.1800 
      2 C           0.1730  -13.8235  -45.7478 C.2       0 UNK         0.5000 
      3 O           0.3907  -12.6189  -45.8836 O.2       0 UNK        -0.5000 
      4 N           0.5412  -14.7392  -46.6530 N.am      1 UNK        -0.5000 
      5 CA          1.2227  -14.4565  -47.9217 C.3       1 UNK         0.1400 
      6 C6          1.3889  -15.7132  -48.8179 C.3       23 UNK        -0.0398 
      7 S7         -0.0767  -16.7979  -48.8846 S.3       23 UNK        -0.2404 
      8 C8         -1.3099  -15.7626  -49.7337 C.3       23 UNK        -0.0205 
      9 C9         -2.7098  -16.2673  -49.4285 C.ar      23 UNK        -0.0193 
     10 C10        -3.4754  -16.9088  -50.4055 C.ar      23 UNK        -0.1150 
     11 C11        -4.7401  -17.4239  -50.0948 C.ar      23 UNK        -0.0193 
     12 C12        -5.2332  -17.2847  -48.7926 C.ar      23 UNK        -0.1150 
     13 C13        -4.4845  -16.6258  -47.8135 C.ar      23 UNK        -0.0193 
     14 C14        -3.2312  -16.1066  -48.1437 C.ar      23 UNK        -0.1150 
     15 C15        -5.0240  -16.4703  -46.3994 C.3       23 UNK        -0.0205 
     16 S16        -3.9009  -17.1773  -45.1515 S.3       23 UNK        -0.2404 
     17 C17        -3.9950  -18.9613  -45.5188 C.3       23 UNK        -0.0398 
     18 CA         -2.7958  -19.4993  -46.3418 C.3       11 UNK         0.1400 
     19 N          -1.5021  -19.3326  -45.6665 N.am      11 UNK        -0.5000 
     20 C          -0.3135  -19.6536  -46.2030 C.2       10 UNK         0.5000 
     21 O          -0.1697  -20.0902  -47.3453 O.2       10 UNK        -0.5000 
     22 CA          0.9198  -19.5412  -45.2872 C.3       10 UNK         0.1400 
     23 CB          1.3909  -18.0851  -45.1473 C.3       10 UNK        -0.1800 
     24 N           0.6865  -20.1262  -43.9655 N.am      10 UNK        -0.5000 
     25 C           0.4277  -21.4246  -43.7499 C.2       9 UNK         0.5000 
     26 O           0.4135  -22.2757  -44.6370 O.2       9 UNK        -0.5000 
     27 CA          0.0766  -21.8415  -42.3124 C.3       9 UNK         0.1400 
     28 CB          1.3457  -22.0711  -41.4788 C.3       9 UNK        -0.1800 
     29 N          -0.7851  -20.8611  -41.6551 N.am      9 UNK        -0.5000 
     30 C          -2.0609  -20.6313  -41.9981 C.2       8 UNK         0.5000 
     31 O          -2.6577  -21.2516  -42.8786 O.2       8 UNK        -0.5000 
     32 CA         -2.7746  -19.4810  -41.2645 C.3       8 UNK         0.1400 
     33 CB         -3.3704  -19.9708  -39.9366 C.3       8 UNK        -0.1800 
     34 N          -1.9005  -18.3331  -41.0125 N.am      8 UNK        -0.5000 
     35 C          -1.3288  -17.5993  -41.9771 C.2       7 UNK         0.5000 
     36 O          -1.4558  -17.8288  -43.1775 O.2       7 UNK        -0.5000 
     37 CA         -0.4099  -16.4560  -41.5230 C.3       7 UNK         0.1400 
     38 CB         -1.2313  -15.2430  -41.0615 C.3       7 UNK        -0.1800 
     39 N           0.5326  -16.8393  -40.4731 N.am      7 UNK        -0.5000 
     40 C           1.4461  -17.8136  -40.5731 C.2       6 UNK         0.5000 
     41 O           1.5190  -18.5859  -41.5305 O.2       6 UNK        -0.5000 
     42 CA          2.4825  -17.8790  -39.4353 C.3       6 UNK         0.1400 
     43 CB          3.4385  -19.0779  -39.5653 C.3       6 UNK        -0.1800 
     44 N           3.2676  -16.6457  -39.4299 N.am      6 UNK        -0.5000 
     45 C           2.9154  -15.5072  -38.8180 C.2       5 UNK         0.5000 
     46 O           1.9285  -15.4005  -38.0888 O.2       5 UNK        -0.5000 
     47 CA          3.7759  -14.2700  -39.1314 C.3       5 UNK         0.1400 
     48 CB          5.0246  -14.2334  -38.2373 C.3       5 UNK        -0.1800 
     49 N           4.1804  -14.2175  -40.5397 N.am      5 UNK        -0.5000 
     50 C           3.3402  -13.9936  -41.5598 C.2       4 UNK         0.5000 
     51 O           2.1317  -13.7891  -41.4254 O.2       4 UNK        -0.5000 
     52 CA          3.9506  -14.0358  -42.9738 C.3       4 UNK         0.1400 
     53 CB          3.6265  -15.3825  -43.6403 C.3       4 UNK        -0.1800 
     54 N           3.4633  -12.9492  -43.8258 N.am      4 UNK        -0.5000 
     55 C           3.6110  -11.6403  -43.5722 C.2       3 UNK         0.5000 
     56 O           4.2574  -11.1993  -42.6193 O.2       3 UNK        -0.5000 
     57 CA          2.9173  -10.6707  -44.5528 C.3       3 UNK         0.1400 
     58 CB          3.3605   -9.2020  -44.3800 C.3       3 UNK        -0.1800 
     59 N           3.0289  -11.0950  -45.9518 N.am      3 UNK        -0.5000 
     60 C           4.1500  -11.2236  -46.6805 C.2       2 UNK         0.5000 
     61 O           5.2754  -10.9492  -46.2606 O.2       2 UNK        -0.5000 
     62 CA          3.9743  -11.7428  -48.1278 C.3       2 UNK         0.1400 
     63 CB          5.2489  -12.4131  -48.6836 C.3       2 UNK        -0.1800 
     64 N           2.8067  -12.6194  -48.2982 N.am      2 UNK        -0.5000 
     65 C           2.5875  -13.7852  -47.6729 C.2       1 UNK         0.5000 
     66 O           3.3846  -14.3140  -46.8963 O.2       1 UNK        -0.5000 
     67 C          -3.0501  -20.9714  -46.7270 C.2       11 UNK         0.5000 
     68 O          -3.4157  -21.2442  -47.8702 O.2       11 UNK        -0.5000 
     69 N          -2.8272  -21.8933  -45.7772 N.am      12 UNK        -0.5000 
     70 CA         -2.9746  -23.3360  -45.9741 C.3       12 UNK         0.1400 
     71 CB         -2.8190  -24.0628  -44.6303 C.3       12 UNK        -0.1800 
     72 C          -1.9978  -23.9031  -47.0186 C.2       12 UNK         0.5000 
     73 O          -2.4131  -24.6969  -47.8623 O.2       12 UNK        -0.5000 
     74 N          -0.7316  -23.4664  -46.9672 N.am      13 UNK        -0.5000 
     75 CA          0.3103  -23.8314  -47.9257 C.3       13 UNK         0.1400 
     76 CB          1.6689  -23.2865  -47.4606 C.3       13 UNK        -0.1800 
     77 C          -0.0123  -23.3566  -49.3511 C.2       13 UNK         0.5000 
     78 O           0.1058  -24.1470  -50.2863 O.2       13 UNK        -0.5000 
     79 N          -0.4578  -22.0995  -49.4885 N.am      14 UNK        -0.5000 
     80 CA         -0.8982  -21.5160  -50.7562 C.3       14 UNK         0.1400 
     81 CB         -1.1796  -20.0191  -50.5654 C.3       14 UNK        -0.1800 
     82 C          -2.1205  -22.2413  -51.3470 C.2       14 UNK         0.5000 
     83 O          -2.1164  -22.5597  -52.5375 O.2       14 UNK        -0.5000 
     84 N          -3.1104  -22.5358  -50.4913 N.am      15 UNK        -0.5000 
     85 CA         -4.3234  -23.2715  -50.8460 C.3       15 UNK         0.1400 
     86 CB         -5.3130  -23.2342  -49.6727 C.3       15 UNK        -0.1800 
     87 C          -4.0505  -24.7225  -51.2854 C.2       15 UNK         0.5000 
     88 O          -4.7384  -25.2311  -52.1703 O.2       15 UNK        -0.5000 
     89 N          -3.0515  -25.3665  -50.6693 N.am      16 UNK        -0.5000 
     90 CA         -2.5922  -26.7030  -51.0363 C.3       16 UNK         0.1400 
     91 CB         -1.7595  -27.2933  -49.8877 C.3       16 UNK        -0.1800 
     92 C          -1.7902  -26.7004  -52.3499 C.2       16 UNK         0.5000 
     93 O          -2.0314  -27.5487  -53.2096 O.2       16 UNK        -0.5000 
     94 N          -0.8426  -25.7618  -52.4750 N.am      17 UNK        -0.5000 
     95 CA          0.1087  -25.6950  -53.5833 C.3       17 UNK         0.1400 
     96 CB          1.2892  -24.7950  -53.1867 C.3       17 UNK        -0.1800 
     97 C          -0.5002  -25.2099  -54.9090 C.2       17 UNK         0.5000 
     98 O          -0.1092  -25.7155  -55.9623 O.2       17 UNK        -0.5000 
     99 N          -1.4087  -24.2282  -54.8460 N.am      18 UNK        -0.5000 
    100 CA        -1.9041  -23.4945  -56.0137 C.3       18 UNK         0.1400 
    101 CB        -1.2450  -22.1047  -56.0303 C.3       18 UNK        -0.1800 
    102 C         -3.4421  -23.4361  -56.0691 C.2       18 UNK         0.5000 
    103 O         -3.9948  -22.5228  -56.6882 O.2       18 UNK        -0.5000 
    104 N         -4.0985  -24.4265  -55.4449 N.am      19 UNK        -0.5000 
    105 CA        -5.5515  -24.6129  -55.3268 C.3       19 UNK         0.1400 
    106 CB        -6.1966  -24.7827  -56.7195 C.3       19 UNK        -0.1800 
    107 C         -6.2412  -23.5065  -54.5009 C.2       19 UNK         0.5000 
    108 O         -5.5837  -22.5839  -54.0224 O.2       19 UNK        -0.5000 
    109 N         -7.5676  -23.6097  -54.3367 N.am      20 UNK        -0.5000 
    110 CA        -8.3871  -22.7047  -53.5181 C.3       20 UNK         0.1400 
    111 CB        -9.8308  -23.2295  -53.4906 C.3       20 UNK        -0.1800 
    112 C         -8.3594  -21.2248  -53.9588 C.2       20 UNK         0.5000 
    113 O         -8.6097  -20.3429  -53.1366 O.2       20 UNK        -0.5000 
    114 N         -8.0440  -20.9800  -55.2375 N.am      21 UNK        -0.5000 
    115 CA        -7.8169  -19.6497  -55.8026 C.3       21 UNK         0.1400 
    116 CB        -7.9673  -19.7362  -57.3297 C.3       21 UNK        -0.1800 
    117 C         -6.4401  -19.0567  -55.4334 C.2       21 UNK         0.5000 
    118 O         -6.2620  -17.8443  -55.5588 O.2       21 UNK        -0.5000 
    119 N         -5.4989  -19.9087  -55.0032 N.am      22 UNK        -0.5000 
    120 CA        -4.1017  -19.5891  -54.6710 C.3       22 UNK         0.1400 
    121 C         -3.3027  -19.0188  -55.8808 C.2       22 UNK         0.5000 
    122 N         -3.4470  -19.6048  -57.0627 N.am      22 UNK        -0.7600 
    123 O         -2.5535  -18.0525  -55.7611 O.2       22 UNK        -0.5000 
    124 C124       -3.9536  -18.7413  -53.3800 C.3       23 UNK        -0.0398 
    125 S125       -4.7454  -19.5271  -51.9311 S.3       23 UNK        -0.2404 
    126 C126       -5.5922  -18.1138  -51.1555 C.3       23 UNK        -0.0205 
    127 H127       -1.5053  -13.8134  -44.3979 H         1 UNK         0.0600 
    128 H128        0.0528  -14.1170  -43.6226 H         1 UNK         0.0600 
    129 H129       -0.7437  -15.3956  -44.5562 H         1 UNK         0.0600 
    130 H130        0.3308  -15.7130  -46.4920 H         1 UNK         0.3000 
    131 H131        0.5932  -13.7442  -48.4575 H         1 UNK         0.0600 
    132 H132        1.6545  -15.4213  -49.8352 H         1 UNK         0.0800 
    133 H133        2.2128  -16.3326  -48.4575 H         1 UNK         0.0800 
    134 H134       -1.1122  -15.7687  -50.8066 H         1 UNK         0.0800 
    135 H135       -1.2359  -14.7264  -49.4054 H         1 UNK         0.0800 
    136 H136       -3.0784  -17.0174  -51.4030 H         1 UNK         0.1150 
    137 H137       -6.2063  -17.6830  -48.5421 H         1 UNK         0.1150 
    138 H138       -2.6421  -15.6069  -47.3871 H         1 UNK         0.1150 
    139 H139       -5.1555  -15.4079  -46.1905 H         1 UNK         0.0800 
    140 H140       -6.0094  -16.9279  -46.2993 H         1 UNK         0.0800 
    141 H141       -4.9340  -19.1570  -46.0401 H         1 UNK         0.0800 
    142 H142       -4.0657  -19.4886  -44.5662 H         1 UNK         0.0800 
    143 H143       -2.7418  -18.9317  -47.2731 H         1 UNK         0.0600 
    144 H144       -1.5262  -18.9316  -44.7318 H         1 UNK         0.3000 
    145 H145        1.7283  -20.1064  -45.7554 H         1 UNK         0.0600 
    146 H146        2.2915  -18.0220  -44.5365 H         1 UNK         0.0600 
    147 H147        1.6286  -17.6586  -46.1224 H         1 UNK         0.0600 
    148 H148        0.6329  -17.4531  -44.6878 H         1 UNK         0.0600 
    149 H149        0.7105  -19.4951  -43.1712 H         1 UNK         0.3000 
    150 H150       -0.4674  -22.7871  -42.3613 H         1 UNK         0.0600 
    151 H151        1.9505  -22.8701  -41.9095 H         1 UNK         0.0600 
    152 H152        1.1028  -22.3618  -40.4568 H         1 UNK         0.0600 
    153 H153        1.9705  -21.1797  -41.4375 H         1 UNK         0.0600 
    154 H154       -0.3523  -20.2629  -40.9671 H         1 UNK         0.3000 
    155 H155       -3.5935  -19.1421  -41.9027 H         1 UNK         0.0600 
    156 H156       -2.5951  -20.2947  -39.2412 H         1 UNK         0.0600 
    157 H157       -4.0406  -20.8162  -40.0985 H         1 UNK         0.0600 
    158 H158       -3.9510  -19.1859  -39.4515 H         1 UNK         0.0600 
    159 H159       -1.7255  -18.0892  -40.0488 H         1 UNK         0.3000 
    160 H160        0.1879  -16.1577  -42.3854 H         1 UNK         0.0600 
    161 H161       -1.9441  -14.9384  -41.8290 H         1 UNK         0.0600 
    162 H162       -0.5873  -14.3867  -40.8598 H         1 UNK         0.0600 
    163 H163       -1.7968  -15.4588  -40.1543 H         1 UNK         0.0600 
    164 H164        0.5790  -16.2332  -39.6635 H         1 UNK         0.3000 
    165 H165        1.9416  -17.9810  -38.4921 H         1 UNK         0.0600 
    166 H166        4.1653  -19.0909  -38.7530 H         1 UNK         0.0600 
    167 H167        2.8897  -20.0189  -39.5214 H         1 UNK         0.0600 
    168 H168        3.9891  -19.0591  -40.5068 H         1 UNK         0.0600 
    169 H169        4.0706  -16.6270  -40.0409 H         1 UNK         0.3000 
    170 H170        3.1760  -13.3832  -38.9154 H         1 UNK         0.0600 
    171 H171        4.7489  -14.2541  -37.1821 H         1 UNK         0.0600 
    172 H172        5.6803  -15.0853  -38.4219 H         1 UNK         0.0600 
    173 H173        5.6013  -13.3233  -38.4031 H         1 UNK         0.0600 
    174 H174        5.1606  -14.3652  -40.7327 H         1 UNK         0.3000 
    175 H175        5.0350  -13.9367  -42.8958 H         1 UNK         0.0600 
    176 H176        3.9415  -16.2192  -43.0151 H         1 UNK         0.0600 
    177 H177        4.1398  -15.4841  -44.5962 H         1 UNK         0.0600 
    178 H178        2.5563  -15.4939  -43.8202 H         1 UNK         0.0600 
    179 H179        2.9530  -13.2227  -44.6536 H         1 UNK         0.3000 
    180 H180        1.8545  -10.7167  -44.3106 H         1 UNK         0.0600 
    181 H181        4.4315   -9.0774  -44.5412 H         1 UNK         0.0600 
    182 H182        3.1394   -8.8443  -43.3737 H         1 UNK         0.0600 
    183 H183        2.8373   -8.5477  -45.0773 H         1 UNK         0.0600 
    184 H184        2.1564  -11.3976  -46.3693 H         1 UNK         0.3000 
    185 H185        3.7797  -10.8591  -48.7371 H         1 UNK         0.0600 
    186 H186        6.0826  -11.7105  -48.7063 H         1 UNK         0.0600 
    187 H187        5.5576  -13.2647  -48.0768 H         1 UNK         0.0600 
    188 H188        5.0967  -12.7653  -49.7038 H         1 UNK         0.0600 
    189 H189        2.0830  -12.2548  -48.9027 H         1 UNK         0.3000 
    190 H190       -2.5536  -21.5906  -44.8474 H         1 UNK         0.3000 
    191 H191       -3.9877  -23.5166  -46.3391 H         1 UNK         0.0600 
    192 H192       -2.9417  -25.1397  -44.7520 H         1 UNK         0.0600 
    193 H193       -1.8362  -23.8914  -44.1909 H         1 UNK         0.0600 
    194 H194       -3.5688  -23.7293  -43.9128 H         1 UNK         0.0600 
    195 H195       -0.4520  -22.8495  -46.2084 H         1 UNK         0.3000 
    196 H196        0.3733  -24.9213  -47.9468 H         1 UNK         0.0600 
    197 H197        2.4578  -23.5482  -48.1669 H         1 UNK         0.0600 
    198 H198        1.9486  -23.7022  -46.4926 H         1 UNK         0.0600 
    199 H199        1.6573  -22.2003  -47.3670 H         1 UNK         0.0600 
    200 H200       -0.5063  -21.4993  -48.6692 H         1 UNK         0.3000 
    201 H201       -0.0775  -21.6168  -51.4692 H         1 UNK         0.0600 
    202 H202       -0.2915  -19.4975  -50.2100 H         1 UNK         0.0600 
    203 H203       -1.9801  -19.8431  -49.8454 H         1 UNK         0.0600 
    204 H204       -1.4745  -19.5539  -51.5053 H         1 UNK         0.0600 
    205 H205       -3.0493  -22.1975  -49.5349 H         1 UNK         0.3000 
    206 H206       -4.7826  -22.7474  -51.6820 H         1 UNK         0.0600 
    207 H207       -4.8969  -23.7035  -48.7809 H         1 UNK         0.0600 
    208 H208       -5.5808  -22.2082  -49.4189 H         1 UNK         0.0600 
    209 H209       -6.2358  -23.7587  -49.9234 H         1 UNK         0.0600 
    210 H210       -2.5779  -24.9123  -49.8955 H         1 UNK         0.3000 
    211 H211       -3.4659  -27.3428  -51.1781 H         1 UNK         0.0600 
    212 H212       -0.8846  -26.6815  -49.6655 H         1 UNK         0.0600 
    213 H213       -1.4069  -28.2953  -50.1348 H         1 UNK         0.0600 
    214 H214       -2.3502  -27.3718  -48.9748 H         1 UNK         0.0600 
    215 H215       -0.6847  -25.1135  -51.7070 H         1 UNK         0.3000 
    216 H216        0.5000  -26.7008  -53.7512 H         1 UNK         0.0600 
    217 H217        2.0273  -24.7389  -53.9879 H         1 UNK         0.0600 
    218 H218        1.7984  -25.1795  -52.3029 H         1 UNK         0.0600 
    219 H219        0.9617  -23.7775  -52.9686 H         1 UNK         0.0600 
    220 H220       -1.6759  -23.8478  -53.9404 H         1 UNK         0.3000 
    221 H221       -1.6105  -24.0030  -56.9338 H         1 UNK         0.0600 
    222 H222       -1.5114  -21.5527  -56.9312 H         1 UNK         0.0600 
    223 H223       -0.1581  -22.1856  -56.0177 H         1 UNK         0.0600 
    224 H224       -1.5431  -21.5098  -55.1671 H         1 UNK         0.0600 
    225 H225       -3.5375  -25.0910  -54.9311 H         1 UNK         0.3000 
    226 H226       -5.6888  -25.5444  -54.7761 H         1 UNK         0.0600 
    227 H227       -7.2277  -25.1277  -56.6406 H         1 UNK         0.0600 
    228 H228       -6.2093  -23.8476  -57.2804 H         1 UNK         0.0600 
    229 H229       -5.6591  -25.5212  -57.3144 H         1 UNK         0.0600 
    230 H230       -8.0511  -24.3909  -54.7554 H         1 UNK         0.3000 
    231 H231       -7.9920  -22.7404  -52.5006 H         1 UNK         0.0600 
    232 H232       -9.8772  -24.2386  -53.0806 H         1 UNK         0.0600 
    233 H233      -10.2694  -23.2503  -54.4890 H         1 UNK         0.0600 
    234 H234      -10.4651  -22.5983  -52.8666 H         1 UNK         0.0600 
    235 H235       -7.8577  -21.7673  -55.8407 H         1 UNK         0.3000 
    236 H236       -8.5823  -18.9704  -55.4214 H         1 UNK         0.0600 
    237 H237       -8.9571  -20.0973  -57.6097 H         1 UNK         0.0600 
    238 H238       -7.8373  -18.7566  -57.7915 H         1 UNK         0.0600 
    239 H239       -7.2269  -20.4064  -57.7688 H         1 UNK         0.0600 
    240 H240       -5.7388  -20.8866  -54.8702 H         1 UNK         0.3000 
    241 H241       -3.6331  -20.5507  -54.4589 H         1 UNK         0.0600 
    242 H242       -2.9470  -19.2498  -57.8615 H         1 UNK         0.3800 
    243 H243       -3.9695  -20.4706  -57.1338 H         1 UNK         0.3800 
    244 H244       -4.3608  -17.7426  -53.5407 H         1 UNK         0.0800 
    245 H245       -2.8978  -18.6043  -53.1456 H         1 UNK         0.0800 
    246 H246       -6.5140  -18.4912  -50.7105 H         1 UNK         0.0800 
    247 H247       -5.9023  -17.3882  -51.9079 H         1 UNK         0.0800 
@<TRIPOS>BOND
     1    1    2 1    
     2    1  127 1    
     3    1  128 1    
     4    1  129 1    
     5    2    3 2    
     6    2    4 am   BACKBONE|DICT|INTERRES
     7    4    5 1    
     8    4  130 1    
     9    5    6 1    
    10    5   65 1    
    11    5  131 1    
    12    6    7 1    
    13    6  132 1    
    14    6  133 1    
    15    7    8 1    
    16    8    9 1    
    17    8  134 1    
    18    8  135 1    
    19    9   10 ar   
    20    9   14 ar   
    21   10   11 ar   
    22   10  136 1    
    23   11   12 ar   
    24   11  126 1    
    25   12   13 ar   
    26   12  137 1    
    27   13   14 ar   
    28   13   15 1    
    29   14  138 1    
    30   15   16 1    
    31   15  139 1    
    32   15  140 1    
    33   16   17 1    
    34   17   18 1    
    35   17  141 1    
    36   17  142 1    
    37   18   19 1    
    38   18   67 1    
    39   18  143 1    
    40   19   20 am   BACKBONE|DICT|INTERRES
    41   19  144 1    
    42   20   21 2    
    43   20   22 1    
    44   22   23 1    
    45   22   24 1    
    46   22  145 1    
    47   23  146 1    
    48   23  147 1    
    49   23  148 1    
    50   24   25 am   BACKBONE|DICT|INTERRES
    51   24  149 1    
    52   25   26 2    
    53   25   27 1    
    54   27   28 1    
    55   27   29 1    
    56   27  150 1    
    57   28  151 1    
    58   28  152 1    
    59   28  153 1    
    60   29   30 am   BACKBONE|DICT|INTERRES
    61   29  154 1    
    62   30   31 2    
    63   30   32 1    
    64   32   33 1    
    65   32   34 1    
    66   32  155 1    
    67   33  156 1    
    68   33  157 1    
    69   33  158 1    
    70   34   35 am   BACKBONE|DICT|INTERRES
    71   34  159 1    
    72   35   36 2    
    73   35   37 1    
    74   37   38 1    
    75   37   39 1    
    76   37  160 1    
    77   38  161 1    
    78   38  162 1    
    79   38  163 1    
    80   39   40 am   BACKBONE|DICT|INTERRES
    81   39  164 1    
    82   40   41 2    
    83   40   42 1    
    84   42   43 1    
    85   42   44 1    
    86   42  165 1    
    87   43  166 1    
    88   43  167 1    
    89   43  168 1    
    90   44   45 am   BACKBONE|DICT|INTERRES
    91   44  169 1    
    92   45   46 2    
    93   45   47 1    
    94   47   48 1    
    95   47   49 1    
    96   47  170 1    
    97   48  171 1    
    98   48  172 1    
    99   48  173 1    
   100   49   50 am   BACKBONE|DICT|INTERRES
   101   49  174 1    
   102   50   51 2    
   103   50   52 1    
   104   52   53 1    
   105   52   54 1    
   106   52  175 1    
   107   53  176 1    
   108   53  177 1    
   109   53  178 1    
   110   54   55 am   BACKBONE|DICT|INTERRES
   111   54  179 1    
   112   55   56 2    
   113   55   57 1    
   114   57   58 1    
   115   57   59 1    
   116   57  180 1    
   117   58  181 1    
   118   58  182 1    
   119   58  183 1    
   120   59   60 am   BACKBONE|DICT|INTERRES
   121   59  184 1    
   122   60   61 2    
   123   60   62 1    
   124   62   63 1    
   125   62   64 1    
   126   62  185 1    
   127   63  186 1    
   128   63  187 1    
   129   63  188 1    
   130   64   65 am   BACKBONE|DICT|INTERRES
   131   64  189 1    
   132   65   66 2    
   133   67   68 2    
   134   67   69 am   BACKBONE|DICT|INTERRES
   135   69   70 1    
   136   69  190 1    
   137   70   71 1    
   138   70   72 1    
   139   70  191 1    
   140   71  192 1    
   141   71  193 1    
   142   71  194 1    
   143   72   73 2    
   144   72   74 am   BACKBONE|DICT|INTERRES
   145   74   75 1    
   146   74  195 1    
   147   75   76 1    
   148   75   77 1    
   149   75  196 1    
   150   76  197 1    
   151   76  198 1    
   152   76  199 1    
   153   77   78 2    
   154   77   79 am   BACKBONE|DICT|INTERRES
   155   79   80 1    
   156   79  200 1    
   157   80   81 1    
   158   80   82 1    
   159   80  201 1    
   160   81  202 1    
   161   81  203 1    
   162   81  204 1    
   163   82   83 2    
   164   82   84 am   BACKBONE|DICT|INTERRES
   165   84   85 1    
   166   84  205 1    
   167   85   86 1    
   168   85   87 1    
   169   85  206 1    
   170   86  207 1    
   171   86  208 1    
   172   86  209 1    
   173   87   88 2    
   174   87   89 am   BACKBONE|DICT|INTERRES
   175   89   90 1    
   176   89  210 1    
   177   90   91 1    
   178   90   92 1    
   179   90  211 1    
   180   91  212 1    
   181   91  213 1    
   182   91  214 1    
   183   92   93 2    
   184   92   94 am   BACKBONE|DICT|INTERRES
   185   94   95 1    
   186   94  215 1    
   187   95   96 1    
   188   95   97 1    
   189   95  216 1    
   190   96  217 1    
   191   96  218 1    
   192   96  219 1    
   193   97   98 2    
   194   97   99 am   BACKBONE|DICT|INTERRES
   195   99  100 1    
   196   99  220 1    
   197  100  101 1    
   198  100  102 1    
   199  100  221 1    
   200  101  222 1    
   201  101  223 1    
   202  101  224 1    
   203  102  103 2    
   204  102  104 am   BACKBONE|DICT|INTERRES
   205  104  105 1    
   206  104  225 1    
   207  105  106 1    
   208  105  107 1    
   209  105  226 1    
   210  106  227 1    
   211  106  228 1    
   212  106  229 1    
   213  107  108 2    
   214  107  109 am   BACKBONE|DICT|INTERRES
   215  109  110 1    
   216  109  230 1    
   217  110  111 1    
   218  110  112 1    
   219  110  231 1    
   220  111  232 1    
   221  111  233 1    
   222  111  234 1    
   223  112  113 2    
   224  112  114 am   BACKBONE|DICT|INTERRES
   225  114  115 1    
   226  114  235 1    
   227  115  116 1    
   228  115  117 1    
   229  115  236 1    
   230  116  237 1    
   231  116  238 1    
   232  116  239 1    
   233  117  118 2    
   234  117  119 am   BACKBONE|DICT|INTERRES
   235  119  120 1    
   236  119  240 1    
   237  120  121 1    
   238  120  124 1    
   239  120  241 1    
   240  121  122 am   BACKBONE|DICT|INTERRES
   241  121  123 2    
   242  122  242 1    
   243  122  243 1    
   244  124  125 1    
   245  124  244 1    
   246  124  245 1    
   247  125  126 1    
   248  126  246 1    
   249  126  247 1    
@<TRIPOS>SUBSTRUCTURE
     1 UNK         1 GROUP             0       ****    0 ROOT    
