@<TRIPOS>MOLECULE
3R540
247   249    1
SMALL
USER_CHARGES


@<TRIPOS>ATOM
      1 CA         -4.7500  -14.5210  -45.7942 C.3       0 UNK        -0.1800 
      2 C          -3.7122  -15.1255  -44.8510 C.2       0 UNK         0.5000 
      3 O          -3.7520  -14.8452  -43.6550 O.2       0 UNK        -0.5000 
      4 N          -2.7712  -15.9487  -45.3309 N.am      1 UNK        -0.5000 
      5 CA         -2.5360  -16.2847  -46.7394 C.3       1 UNK         0.1400 
      6 C6         -1.9055  -17.6933  -46.8950 C.3       23 UNK        -0.0398 
      7 S7         -3.1511  -18.9402  -47.3547 S.3       23 UNK        -0.2404 
      8 C8         -3.1988  -18.7985  -49.1677 C.3       23 UNK        -0.0205 
      9 C9         -1.8453  -19.0188  -49.8250 C.ar      23 UNK        -0.0193 
     10 C10        -1.2782  -18.0098  -50.6068 C.ar      23 UNK        -0.1150 
     11 C11        -0.0641  -18.2179  -51.2638 C.ar      23 UNK        -0.0193 
     12 C12         0.6059  -19.4334  -51.1025 C.ar      23 UNK        -0.1150 
     13 C13         0.0588  -20.4441  -50.3067 C.ar      23 UNK        -0.0193 
     14 C14        -1.1739  -20.2360  -49.6805 C.ar      23 UNK        -0.1150 
     15 C15         0.7831  -21.7726  -50.1575 C.3       23 UNK        -0.0205 
     16 S16         2.2108  -21.6739  -49.0310 S.3       23 UNK        -0.2404 
     17 C17         1.4288  -21.3659  -47.4120 C.3       23 UNK        -0.0398 
     18 CA          0.9229  -22.6660  -46.7260 C.3       11 UNK         0.1400 
     19 N           1.3210  -22.7484  -45.3193 N.am      11 UNK        -0.5000 
     20 C           1.2474  -23.8524  -44.5621 C.2       10 UNK         0.5000 
     21 O           0.9064  -24.9553  -44.9896 O.2       10 UNK        -0.5000 
     22 CA          1.5625  -23.6762  -43.0637 C.3       10 UNK         0.1400 
     23 CB          3.0721  -23.7970  -42.8095 C.3       10 UNK        -0.1800 
     24 N           1.0836  -22.3929  -42.5428 N.am      10 UNK        -0.5000 
     25 C          -0.2119  -22.0700  -42.4184 C.2       9 UNK         0.5000 
     26 O          -1.1297  -22.8578  -42.6463 O.2       9 UNK        -0.5000 
     27 CA         -0.5384  -20.6125  -42.0306 C.3       9 UNK         0.1400 
     28 CB         -0.6521  -20.4741  -40.5062 C.3       9 UNK        -0.1800 
     29 N           0.4266  -19.6309  -42.5408 N.am      9 UNK        -0.5000 
     30 C           0.7015  -19.4284  -43.8386 C.2       8 UNK         0.5000 
     31 O           0.1405  -20.0480  -44.7415 O.2       8 UNK        -0.5000 
     32 CA          1.7994  -18.4094  -44.2016 C.3       8 UNK         0.1400 
     33 CB          1.4434  -17.5983  -45.4586 C.3       8 UNK        -0.1800 
     34 N           2.1037  -17.4959  -43.1009 N.am      8 UNK        -0.5000 
     35 C           3.0778  -17.6766  -42.1966 C.2       7 UNK         0.5000 
     36 O           3.8561  -18.6299  -42.2213 O.2       7 UNK        -0.5000 
     37 CA          3.1887  -16.6474  -41.0529 C.3       7 UNK         0.1400 
     38 CB          4.4078  -15.7345  -41.2476 C.3       7 UNK        -0.1800 
     39 N           1.9844  -15.8275  -40.9026 N.am      7 UNK        -0.5000 
     40 C           0.8412  -16.2715  -40.3595 C.2       6 UNK         0.5000 
     41 O           0.7138  -17.3999  -39.8847 O.2       6 UNK        -0.5000 
     42 CA         -0.3714  -15.3198  -40.3755 C.3       6 UNK         0.1400 
     43 CB         -0.5013  -14.5931  -39.0285 C.3       6 UNK        -0.1800 
     44 N          -0.3364  -14.3264  -41.4516 N.am      6 UNK        -0.5000 
     45 C          -0.3676  -14.6068  -42.7613 C.2       5 UNK         0.5000 
     46 O          -0.4155  -15.7552  -43.2080 O.2       5 UNK        -0.5000 
     47 CA         -0.3067  -13.4205  -43.7462 C.3       5 UNK         0.1400 
     48 CB         -0.2637  -12.0270  -43.0782 C.3       5 UNK        -0.1800 
     49 N           0.7958  -13.5793  -44.6995 N.am      5 UNK        -0.5000 
     50 C           2.1010  -13.6626  -44.4078 C.2       4 UNK         0.5000 
     51 O           2.5340  -13.5667  -43.2579 O.2       4 UNK        -0.5000 
     52 CA          3.0918  -13.8955  -45.5678 C.3       4 UNK         0.1400 
     53 CB          4.2837  -14.7726  -45.1178 C.3       4 UNK        -0.1800 
     54 N           2.4708  -14.4477  -46.7826 N.am      4 UNK        -0.5000 
     55 C           3.0656  -14.4389  -47.9872 C.2       3 UNK         0.5000 
     56 O           4.1343  -13.8692  -48.2135 O.2       3 UNK        -0.5000 
     57 CA          2.3814  -15.2051  -49.1378 C.3       3 UNK         0.1400 
     58 CB          2.7086  -16.7051  -49.0609 C.3       3 UNK        -0.1800 
     59 N           0.9326  -15.0254  -49.1918 N.am      3 UNK        -0.5000 
     60 C           0.3176  -13.8730  -49.4913 C.2       2 UNK         0.5000 
     61 O           0.9177  -12.8428  -49.7992 O.2       2 UNK        -0.5000 
     62 CA         -1.2268  -13.8537  -49.4423 C.3       2 UNK         0.1400 
     63 CB         -1.8095  -13.8571  -50.8659 C.3       2 UNK        -0.1800 
     64 N          -1.8662  -14.9294  -48.6713 N.am      2 UNK        -0.5000 
     65 C          -1.6411  -15.2085  -47.3806 C.2       1 UNK         0.5000 
     66 O          -0.7514  -14.6776  -46.7167 O.2       1 UNK        -0.5000 
     67 C          -0.6043  -22.8171  -46.8578 C.2       11 UNK         0.5000 
     68 O          -1.0679  -23.5743  -47.7086 O.2       11 UNK        -0.5000 
     69 N          -1.3525  -22.1338  -45.9783 N.am      12 UNK        -0.5000 
     70 CA         -2.8104  -22.2017  -45.8774 C.3       12 UNK         0.1400 
     71 CB         -3.3118  -21.2524  -44.7759 C.3       12 UNK        -0.1800 
     72 C          -3.3167  -23.6290  -45.6237 C.2       12 UNK         0.5000 
     73 O          -4.2389  -24.0688  -46.3079 O.2       12 UNK        -0.5000 
     74 N          -2.6747  -24.3354  -44.6840 N.am      13 UNK        -0.5000 
     75 CA         -2.9530  -25.7339  -44.3616 C.3       13 UNK         0.1400 
     76 CB         -2.1455  -26.1373  -43.1186 C.3       13 UNK        -0.1800 
     77 C          -2.6676  -26.6935  -45.5327 C.2       13 UNK         0.5000 
     78 O          -3.4448  -27.6223  -45.7550 O.2       13 UNK        -0.5000 
     79 N          -1.5722  -26.4473  -46.2643 N.am      14 UNK        -0.5000 
     80 CA         -1.1574  -27.2391  -47.4218 C.3       14 UNK         0.1400 
     81 CB          0.3089  -26.9232  -47.7568 C.3       14 UNK        -0.1800 
     82 C          -2.0577  -27.0197  -48.6517 C.2       14 UNK         0.5000 
     83 O          -2.4619  -27.9918  -49.2908 O.2       14 UNK        -0.5000 
     84 N          -2.3470  -25.7507  -48.9660 N.am      15 UNK        -0.5000 
     85 CA         -3.0993  -25.3400  -50.1534 C.3       15 UNK         0.1400 
     86 CB         -2.6538  -23.9232  -50.5510 C.3       15 UNK        -0.1800 
     87 C          -4.6269  -25.3752  -49.9694 C.2       15 UNK         0.5000 
     88 O          -5.3438  -25.1963  -50.9531 O.2       15 UNK        -0.5000 
     89 N          -5.1019  -25.5430  -48.7264 N.am      16 UNK        -0.5000 
     90 CA         -6.4963  -25.3807  -48.2911 C.3       16 UNK         0.1400 
     91 CB         -7.4125  -26.4526  -48.9177 C.3       16 UNK        -0.1800 
     92 C          -6.9917  -23.9345  -48.5186 C.2       16 UNK         0.5000 
     93 O          -8.1034  -23.7164  -49.0024 O.2       16 UNK        -0.5000 
     94 N          -6.1128  -22.9785  -48.1832 N.am      17 UNK        -0.5000 
     95 CA         -6.2484  -21.5225  -48.3019 C.3       17 UNK         0.1400 
     96 CB         -7.3632  -21.0039  -47.3718 C.3       17 UNK        -0.1800 
     97 C          -6.3894  -20.9904  -49.7470 C.2       17 UNK         0.5000 
     98 O          -6.7604  -19.8292  -49.9261 O.2       17 UNK        -0.5000 
     99 N          -6.0718  -21.8133  -50.7559 N.am      18 UNK        -0.5000 
    100 CA        -6.1004  -21.4356  -52.1671 C.3       18 UNK         0.1400 
    101 CB        -6.2356  -22.7011  -53.0296 C.3       18 UNK        -0.1800 
    102 C         -4.8420  -20.6327  -52.5420 C.2       18 UNK         0.5000 
    103 O         -3.7750  -21.2193  -52.7318 O.2       18 UNK        -0.5000 
    104 N         -4.9848  -19.3071  -52.6588 N.am      19 UNK        -0.5000 
    105 CA        -3.9343  -18.3821  -53.0919 C.3       19 UNK         0.1400 
    106 CB        -4.2458  -16.9796  -52.5377 C.3       19 UNK        -0.1800 
    107 C         -3.7800  -18.3908  -54.6273 C.2       19 UNK         0.5000 
    108 O         -4.0311  -17.3779  -55.2848 O.2       19 UNK        -0.5000 
    109 N         -3.4070  -19.5548  -55.1741 N.am      20 UNK        -0.5000 
    110 CA        -3.2236  -19.8159  -56.6012 C.3       20 UNK         0.1400 
    111 CB        -2.8578  -21.2957  -56.7959 C.3       20 UNK        -0.1800 
    112 C         -2.1613  -18.8904  -57.2232 C.2       20 UNK         0.5000 
    113 O         -0.9887  -18.9752  -56.8545 O.2       20 UNK        -0.5000 
    114 N         -2.6090  -17.9987  -58.1176 N.am      21 UNK        -0.5000 
    115 CA        -1.8725  -16.9376  -58.8208 C.3       21 UNK         0.1400 
    116 CB        -0.7164  -17.5103  -59.6634 C.3       21 UNK        -0.1800 
    117 C         -1.3885  -15.7781  -57.9236 C.2       21 UNK         0.5000 
    118 O         -1.4347  -14.6269  -58.3596 O.2       21 UNK        -0.5000 
    119 N         -0.9411  -16.0838  -56.7017 N.am      22 UNK        -0.5000 
    120 CA        -0.4851  -15.1176  -55.6913 C.3       22 UNK         0.1400 
    121 C         -1.6114  -14.2759  -55.0221 C.2       22 UNK         0.5000 
    122 N         -2.8735  -14.6846  -55.0678 N.am      22 UNK        -0.7600 
    123 O         -1.3329  -13.2168  -54.4669 O.2       22 UNK        -0.5000 
    124 C124        0.4434  -15.7844  -54.6440 C.3       23 UNK        -0.0398 
    125 S125       -0.3234  -17.2073  -53.7956 S.3       23 UNK        -0.2404 
    126 C126        0.4963  -17.1425  -52.1779 C.3       23 UNK        -0.0205 
    127 H127       -5.3738  -15.3007  -46.2314 H         1 UNK         0.0600 
    128 H128       -5.4043  -13.8367  -45.2538 H         1 UNK         0.0600 
    129 H129       -4.2726  -13.9573  -46.5955 H         1 UNK         0.0600 
    130 H130       -2.0554  -16.2658  -44.6889 H         1 UNK         0.3000 
    131 H131       -3.4863  -16.2664  -47.2750 H         1 UNK         0.0600 
    132 H132       -1.0967  -17.7207  -47.6264 H         1 UNK         0.0800 
    133 H133       -1.4463  -18.0212  -45.9616 H         1 UNK         0.0800 
    134 H134       -3.6073  -17.8221  -49.4261 H         1 UNK         0.0800 
    135 H135       -3.8964  -19.5346  -49.5643 H         1 UNK         0.0800 
    136 H136       -1.8003  -17.0749  -50.7433 H         1 UNK         0.1150 
    137 H137        1.5466  -19.6010  -51.6079 H         1 UNK         0.1150 
    138 H138       -1.6150  -21.0202  -49.0817 H         1 UNK         0.1150 
    139 H139        0.1021  -22.5493  -49.8133 H         1 UNK         0.0800 
    140 H140        1.1344  -22.0977  -51.1378 H         1 UNK         0.0800 
    141 H141        0.6509  -20.6060  -47.5085 H         1 UNK         0.0800 
    142 H142        2.1978  -20.8938  -46.7992 H         1 UNK         0.0800 
    143 H143        1.3737  -23.5275  -47.2239 H         1 UNK         0.0600 
    144 H144        1.5317  -21.8719  -44.8662 H         1 UNK         0.3000 
    145 H145        1.0578  -24.4779  -42.5201 H         1 UNK         0.0600 
    146 H146        3.2977  -23.7435  -41.7443 H         1 UNK         0.0600 
    147 H147        3.4533  -24.7519  -43.1739 H         1 UNK         0.0600 
    148 H148        3.6315  -23.0067  -43.3117 H         1 UNK         0.0600 
    149 H149        1.7798  -21.6961  -42.3218 H         1 UNK         0.3000 
    150 H150       -1.5101  -20.3708  -42.4645 H         1 UNK         0.0600 
    151 H151       -1.3480  -21.2074  -40.0961 H         1 UNK         0.0600 
    152 H152       -1.0238  -19.4879  -40.2285 H         1 UNK         0.0600 
    153 H153        0.3104  -20.6215  -40.0148 H         1 UNK         0.0600 
    154 H154        0.9073  -19.0697  -41.8519 H         1 UNK         0.3000 
    155 H155        2.6859  -18.9982  -44.4449 H         1 UNK         0.0600 
    156 H156        0.6117  -16.9169  -45.2859 H         1 UNK         0.0600 
    157 H157        1.1717  -18.2488  -46.2904 H         1 UNK         0.0600 
    158 H158        2.2976  -17.0106  -45.7865 H         1 UNK         0.0600 
    159 H159        1.4593  -16.7220  -42.9821 H         1 UNK         0.3000 
    160 H160        3.3408  -17.2089  -40.1286 H         1 UNK         0.0600 
    161 H161        4.5222  -15.0452  -40.4110 H         1 UNK         0.0600 
    162 H162        4.3282  -15.1445  -42.1586 H         1 UNK         0.0600 
    163 H163        5.3267  -16.3182  -41.3156 H         1 UNK         0.0600 
    164 H164        2.0109  -14.9002  -41.3076 H         1 UNK         0.3000 
    165 H165       -1.2628  -15.9337  -40.5210 H         1 UNK         0.0600 
    166 H166       -1.4053  -13.9849  -38.9932 H         1 UNK         0.0600 
    167 H167       -0.5586  -15.3053  -38.2041 H         1 UNK         0.0600 
    168 H168        0.3519  -13.9404  -38.8398 H         1 UNK         0.0600 
    169 H169       -0.2748  -13.3590  -41.1699 H         1 UNK         0.3000 
    170 H170       -1.2254  -13.4682  -44.3307 H         1 UNK         0.0600 
    171 H171       -1.1452  -11.8607  -42.4578 H         1 UNK         0.0600 
    172 H172        0.6178  -11.8920  -42.4508 H         1 UNK         0.0600 
    173 H173       -0.2533  -11.2387  -43.8309 H         1 UNK         0.0600 
    174 H174        0.4849  -13.7441  -45.6518 H         1 UNK         0.3000 
    175 H175        3.4795  -12.9059  -45.8175 H         1 UNK         0.0600 
    176 H176        3.9540  -15.7424  -44.7463 H         1 UNK         0.0600 
    177 H177        4.9952  -14.9494  -45.9236 H         1 UNK         0.0600 
    178 H178        4.8415  -14.2879  -44.3163 H         1 UNK         0.0600 
    179 H179        1.5702  -14.8964  -46.6786 H         1 UNK         0.3000 
    180 H180        2.7984  -14.8237  -50.0725 H         1 UNK         0.0600 
    181 H181        3.7806  -16.8688  -48.9425 H         1 UNK         0.0600 
    182 H182        2.4062  -17.2229  -49.9694 H         1 UNK         0.0600 
    183 H183        2.2083  -17.1883  -48.2232 H         1 UNK         0.0600 
    184 H184        0.3637  -15.8197  -48.9443 H         1 UNK         0.3000 
    185 H185       -1.5087  -12.9124  -48.9663 H         1 UNK         0.0600 
    186 H186       -1.3921  -13.0452  -51.4633 H         1 UNK         0.0600 
    187 H187       -1.5967  -14.7870  -51.3924 H         1 UNK         0.0600 
    188 H188       -2.8909  -13.7204  -50.8525 H         1 UNK         0.0600 
    189 H189       -2.6130  -15.4133  -49.1463 H         1 UNK         0.3000 
    190 H190       -0.8817  -21.4837  -45.3545 H         1 UNK         0.3000 
    191 H191       -3.2106  -21.8674  -46.8355 H         1 UNK         0.0600 
    192 H192       -3.1518  -21.6586  -43.7781 H         1 UNK         0.0600 
    193 H193       -4.3825  -21.0755  -44.8828 H         1 UNK         0.0600 
    194 H194       -2.8144  -20.2839  -44.8173 H         1 UNK         0.0600 
    195 H195       -1.9613  -23.8709  -44.1299 H         1 UNK         0.3000 
    196 H196       -4.0147  -25.8138  -44.1190 H         1 UNK         0.0600 
    197 H197       -2.3495  -27.1712  -42.8377 H         1 UNK         0.0600 
    198 H198       -2.3999  -25.5108  -42.2634 H         1 UNK         0.0600 
    199 H199       -1.0722  -26.0478  -43.2897 H         1 UNK         0.0600 
    200 H200       -0.9715  -25.6756  -46.0011 H         1 UNK         0.3000 
    201 H201       -1.2176  -28.2952  -47.1502 H         1 UNK         0.0600 
    202 H202        0.4494  -25.8720  -48.0101 H         1 UNK         0.0600 
    203 H203        0.9626  -27.1526  -46.9151 H         1 UNK         0.0600 
    204 H204        0.6521  -27.5148  -48.6064 H         1 UNK         0.0600 
    205 H205       -1.9459  -25.0009  -48.4041 H         1 UNK         0.3000 
    206 H206       -2.8567  -26.0122  -50.9791 H         1 UNK         0.0600 
    207 H207       -2.8720  -23.1952  -49.7687 H         1 UNK         0.0600 
    208 H208       -1.5840  -23.8923  -50.7533 H         1 UNK         0.0600 
    209 H209       -3.1599  -23.5905  -51.4579 H         1 UNK         0.0600 
    210 H210       -4.4252  -25.6284  -47.9786 H         1 UNK         0.3000 
    211 H211       -6.4993  -25.5386  -47.2116 H         1 UNK         0.0600 
    212 H212       -7.5242  -26.3189  -49.9938 H         1 UNK         0.0600 
    213 H213       -8.4109  -26.4120  -48.4808 H         1 UNK         0.0600 
    214 H214       -7.0220  -27.4550  -48.7424 H         1 UNK         0.0600 
    215 H215       -5.2614  -23.3020  -47.7323 H         1 UNK         0.3000 
    216 H216       -5.3079  -21.1122  -47.9338 H         1 UNK         0.0600 
    217 H217       -8.3506  -21.3211  -47.7080 H         1 UNK         0.0600 
    218 H218       -7.3660  -19.9140  -47.3313 H         1 UNK         0.0600 
    219 H219       -7.2232  -21.3624  -46.3519 H         1 UNK         0.0600 
    220 H220       -5.7733  -22.7557  -50.5468 H         1 UNK         0.3000 
    221 H221       -6.9826  -20.8189  -52.3527 H         1 UNK         0.0600 
    222 H222       -5.3789  -23.3657  -52.9141 H         1 UNK         0.0600 
    223 H223       -7.1314  -23.2641  -52.7669 H         1 UNK         0.0600 
    224 H224       -6.3086  -22.4445  -54.0870 H         1 UNK         0.0600 
    225 H225       -5.8913  -18.8993  -52.4790 H         1 UNK         0.3000 
    226 H226       -2.9812  -18.7059  -52.6709 H         1 UNK         0.0600 
    227 H227       -4.3708  -16.9964  -51.4566 H         1 UNK         0.0600 
    228 H228       -3.4328  -16.2872  -52.7587 H         1 UNK         0.0600 
    229 H229       -5.1587  -16.5672  -52.9690 H         1 UNK         0.0600 
    230 H230       -3.2320  -20.3292  -54.5436 H         1 UNK         0.3000 
    231 H231       -4.1813  -19.6384  -57.0946 H         1 UNK         0.0600 
    232 H232       -3.6433  -21.9497  -56.4164 H         1 UNK         0.0600 
    233 H233       -1.9310  -21.5523  -56.2811 H         1 UNK         0.0600 
    234 H234       -2.7225  -21.5285  -57.8529 H         1 UNK         0.0600 
    235 H235       -3.6043  -17.9916  -58.2938 H         1 UNK         0.3000 
    236 H236       -2.5921  -16.5033  -59.5168 H         1 UNK         0.0600 
    237 H237       -0.2628  -16.7314  -60.2776 H         1 UNK         0.0600 
    238 H238        0.0739  -17.9320  -59.0420 H         1 UNK         0.0600 
    239 H239       -1.0681  -18.2916  -60.3371 H         1 UNK         0.0600 
    240 H240       -0.9189  -17.0624  -56.4322 H         1 UNK         0.3000 
    241 H241        0.1314  -14.3886  -56.2208 H         1 UNK         0.0600 
    242 H242       -3.5870  -14.1152  -54.6438 H         1 UNK         0.3800 
    243 H243       -3.1222  -15.5924  -55.4454 H         1 UNK         0.3800 
    244 H244        0.7770  -15.0502  -53.9084 H         1 UNK         0.0800 
    245 H245        1.3489  -16.1411  -55.1363 H         1 UNK         0.0800 
    246 H246        1.5711  -17.2723  -52.3121 H         1 UNK         0.0800 
    247 H247        0.3528  -16.1595  -51.7304 H         1 UNK         0.0800 
@<TRIPOS>BOND
     1    1    2 1    
     2    1  127 1    
     3    1  128 1    
     4    1  129 1    
     5    2    3 2    
     6    2    4 am   BACKBONE|DICT|INTERRES
     7    4    5 1    
     8    4  130 1    
     9    5    6 1    
    10    5   65 1    
    11    5  131 1    
    12    6    7 1    
    13    6  132 1    
    14    6  133 1    
    15    7    8 1    
    16    8    9 1    
    17    8  134 1    
    18    8  135 1    
    19    9   10 ar   
    20    9   14 ar   
    21   10   11 ar   
    22   10  136 1    
    23   11   12 ar   
    24   11  126 1    
    25   12   13 ar   
    26   12  137 1    
    27   13   14 ar   
    28   13   15 1    
    29   14  138 1    
    30   15   16 1    
    31   15  139 1    
    32   15  140 1    
    33   16   17 1    
    34   17   18 1    
    35   17  141 1    
    36   17  142 1    
    37   18   19 1    
    38   18   67 1    
    39   18  143 1    
    40   19   20 am   BACKBONE|DICT|INTERRES
    41   19  144 1    
    42   20   21 2    
    43   20   22 1    
    44   22   23 1    
    45   22   24 1    
    46   22  145 1    
    47   23  146 1    
    48   23  147 1    
    49   23  148 1    
    50   24   25 am   BACKBONE|DICT|INTERRES
    51   24  149 1    
    52   25   26 2    
    53   25   27 1    
    54   27   28 1    
    55   27   29 1    
    56   27  150 1    
    57   28  151 1    
    58   28  152 1    
    59   28  153 1    
    60   29   30 am   BACKBONE|DICT|INTERRES
    61   29  154 1    
    62   30   31 2    
    63   30   32 1    
    64   32   33 1    
    65   32   34 1    
    66   32  155 1    
    67   33  156 1    
    68   33  157 1    
    69   33  158 1    
    70   34   35 am   BACKBONE|DICT|INTERRES
    71   34  159 1    
    72   35   36 2    
    73   35   37 1    
    74   37   38 1    
    75   37   39 1    
    76   37  160 1    
    77   38  161 1    
    78   38  162 1    
    79   38  163 1    
    80   39   40 am   BACKBONE|DICT|INTERRES
    81   39  164 1    
    82   40   41 2    
    83   40   42 1    
    84   42   43 1    
    85   42   44 1    
    86   42  165 1    
    87   43  166 1    
    88   43  167 1    
    89   43  168 1    
    90   44   45 am   BACKBONE|DICT|INTERRES
    91   44  169 1    
    92   45   46 2    
    93   45   47 1    
    94   47   48 1    
    95   47   49 1    
    96   47  170 1    
    97   48  171 1    
    98   48  172 1    
    99   48  173 1    
   100   49   50 am   BACKBONE|DICT|INTERRES
   101   49  174 1    
   102   50   51 2    
   103   50   52 1    
   104   52   53 1    
   105   52   54 1    
   106   52  175 1    
   107   53  176 1    
   108   53  177 1    
   109   53  178 1    
   110   54   55 am   BACKBONE|DICT|INTERRES
   111   54  179 1    
   112   55   56 2    
   113   55   57 1    
   114   57   58 1    
   115   57   59 1    
   116   57  180 1    
   117   58  181 1    
   118   58  182 1    
   119   58  183 1    
   120   59   60 am   BACKBONE|DICT|INTERRES
   121   59  184 1    
   122   60   61 2    
   123   60   62 1    
   124   62   63 1    
   125   62   64 1    
   126   62  185 1    
   127   63  186 1    
   128   63  187 1    
   129   63  188 1    
   130   64   65 am   BACKBONE|DICT|INTERRES
   131   64  189 1    
   132   65   66 2    
   133   67   68 2    
   134   67   69 am   BACKBONE|DICT|INTERRES
   135   69   70 1    
   136   69  190 1    
   137   70   71 1    
   138   70   72 1    
   139   70  191 1    
   140   71  192 1    
   141   71  193 1    
   142   71  194 1    
   143   72   73 2    
   144   72   74 am   BACKBONE|DICT|INTERRES
   145   74   75 1    
   146   74  195 1    
   147   75   76 1    
   148   75   77 1    
   149   75  196 1    
   150   76  197 1    
   151   76  198 1    
   152   76  199 1    
   153   77   78 2    
   154   77   79 am   BACKBONE|DICT|INTERRES
   155   79   80 1    
   156   79  200 1    
   157   80   81 1    
   158   80   82 1    
   159   80  201 1    
   160   81  202 1    
   161   81  203 1    
   162   81  204 1    
   163   82   83 2    
   164   82   84 am   BACKBONE|DICT|INTERRES
   165   84   85 1    
   166   84  205 1    
   167   85   86 1    
   168   85   87 1    
   169   85  206 1    
   170   86  207 1    
   171   86  208 1    
   172   86  209 1    
   173   87   88 2    
   174   87   89 am   BACKBONE|DICT|INTERRES
   175   89   90 1    
   176   89  210 1    
   177   90   91 1    
   178   90   92 1    
   179   90  211 1    
   180   91  212 1    
   181   91  213 1    
   182   91  214 1    
   183   92   93 2    
   184   92   94 am   BACKBONE|DICT|INTERRES
   185   94   95 1    
   186   94  215 1    
   187   95   96 1    
   188   95   97 1    
   189   95  216 1    
   190   96  217 1    
   191   96  218 1    
   192   96  219 1    
   193   97   98 2    
   194   97   99 am   BACKBONE|DICT|INTERRES
   195   99  100 1    
   196   99  220 1    
   197  100  101 1    
   198  100  102 1    
   199  100  221 1    
   200  101  222 1    
   201  101  223 1    
   202  101  224 1    
   203  102  103 2    
   204  102  104 am   BACKBONE|DICT|INTERRES
   205  104  105 1    
   206  104  225 1    
   207  105  106 1    
   208  105  107 1    
   209  105  226 1    
   210  106  227 1    
   211  106  228 1    
   212  106  229 1    
   213  107  108 2    
   214  107  109 am   BACKBONE|DICT|INTERRES
   215  109  110 1    
   216  109  230 1    
   217  110  111 1    
   218  110  112 1    
   219  110  231 1    
   220  111  232 1    
   221  111  233 1    
   222  111  234 1    
   223  112  113 2    
   224  112  114 am   BACKBONE|DICT|INTERRES
   225  114  115 1    
   226  114  235 1    
   227  115  116 1    
   228  115  117 1    
   229  115  236 1    
   230  116  237 1    
   231  116  238 1    
   232  116  239 1    
   233  117  118 2    
   234  117  119 am   BACKBONE|DICT|INTERRES
   235  119  120 1    
   236  119  240 1    
   237  120  121 1    
   238  120  124 1    
   239  120  241 1    
   240  121  122 am   BACKBONE|DICT|INTERRES
   241  121  123 2    
   242  122  242 1    
   243  122  243 1    
   244  124  125 1    
   245  124  244 1    
   246  124  245 1    
   247  125  126 1    
   248  126  246 1    
   249  126  247 1    
@<TRIPOS>SUBSTRUCTURE
     1 UNK         1 GROUP             0       ****    0 ROOT    
