@<TRIPOS>MOLECULE
3R540
247   249    1
SMALL
USER_CHARGES


@<TRIPOS>ATOM
      1 CA         -1.9995   -8.7511  -44.6660 C.3       0 UNK        -0.1800 
      2 C          -1.7236  -10.1534  -45.1884 C.2       0 UNK         0.5000 
      3 O          -1.6536  -10.3537  -46.4013 O.2       0 UNK        -0.5000 
      4 N          -1.5455  -11.1243  -44.2803 N.am      1 UNK        -0.5000 
      5 CA         -1.3031  -12.5404  -44.5950 C.3       1 UNK         0.1400 
      6 C6         -1.4355  -13.4413  -43.3396 C.3       23 UNK        -0.0398 
      7 S7         -1.9565  -15.1390  -43.7620 S.3       23 UNK        -0.2404 
      8 C8         -3.7644  -14.9718  -43.6671 C.3       23 UNK        -0.0205 
      9 C9         -4.4586  -16.0178  -44.5236 C.ar      23 UNK        -0.0193 
     10 C10        -4.8353  -15.7107  -45.8336 C.ar      23 UNK        -0.1150 
     11 C11        -5.5040  -16.6539  -46.6172 C.ar      23 UNK        -0.0193 
     12 C12        -5.7637  -17.9226  -46.0936 C.ar      23 UNK        -0.1150 
     13 C13        -5.3822  -18.2529  -44.7894 C.ar      23 UNK        -0.0193 
     14 C14        -4.7448  -17.2829  -44.0030 C.ar      23 UNK        -0.1150 
     15 C15        -5.7206  -19.6499  -44.2673 C.3       23 UNK        -0.0205 
     16 S16        -4.7119  -20.2551  -42.8691 S.3       23 UNK        -0.2404 
     17 C17        -3.0210  -20.2422  -43.5585 C.3       23 UNK        -0.0398 
     18 CA         -2.7294  -21.3304  -44.6182 C.3       11 UNK         0.1400 
     19 N          -1.4116  -21.1187  -45.2240 N.am      11 UNK        -0.5000 
     20 C          -0.8722  -21.8392  -46.2146 C.2       10 UNK         0.5000 
     21 O          -1.4453  -22.7731  -46.7697 O.2       10 UNK        -0.5000 
     22 CA          0.5629  -21.4917  -46.6271 C.3       10 UNK         0.1400 
     23 CB          0.5803  -20.2558  -47.5367 C.3       10 UNK        -0.1800 
     24 N           1.4049  -21.2836  -45.4500 N.am      10 UNK        -0.5000 
     25 C           1.8674  -22.2829  -44.6830 C.2       9 UNK         0.5000 
     26 O           1.7252  -23.4737  -44.9591 O.2       9 UNK        -0.5000 
     27 CA          2.5747  -21.8979  -43.3701 C.3       9 UNK         0.1400 
     28 CB          4.0958  -21.8302  -43.5609 C.3       9 UNK        -0.1800 
     29 N           2.0973  -20.6297  -42.8191 N.am      9 UNK        -0.5000 
     30 C           0.8983  -20.4689  -42.2416 C.2       8 UNK         0.5000 
     31 O           0.0806  -21.3789  -42.1017 O.2       8 UNK        -0.5000 
     32 CA          0.5280  -19.0390  -41.8017 C.3       8 UNK         0.1400 
     33 CB          1.0672  -18.7490  -40.3937 C.3       8 UNK        -0.1800 
     34 N           1.0034  -18.0061  -42.7258 N.am      8 UNK        -0.5000 
     35 C           0.6639  -17.9259  -44.0195 C.2       7 UNK         0.5000 
     36 O          -0.0943  -18.7273  -44.5641 O.2       7 UNK        -0.5000 
     37 CA          1.2828  -16.7955  -44.8604 C.3       7 UNK         0.1400 
     38 CB          1.9821  -15.6970  -44.0267 C.3       7 UNK        -0.1800 
     39 N           2.1860  -17.3199  -45.8879 N.am      7 UNK        -0.5000 
     40 C           3.3306  -17.9944  -45.7011 C.2       6 UNK         0.5000 
     41 O           3.7311  -18.3491  -44.5911 O.2       6 UNK        -0.5000 
     42 CA          4.1798  -18.3376  -46.9471 C.3       6 UNK         0.1400 
     43 CB          4.5733  -19.8241  -46.9772 C.3       6 UNK        -0.1800 
     44 N           3.5331  -17.9998  -48.2166 N.am      6 UNK        -0.5000 
     45 C           3.5403  -16.7952  -48.8022 C.2       5 UNK         0.5000 
     46 O           4.1145  -15.8118  -48.3344 O.2       5 UNK        -0.5000 
     47 CA          2.7624  -16.6588  -50.1305 C.3       5 UNK         0.1400 
     48 CB          2.4813  -18.0097  -50.8296 C.3       5 UNK        -0.1800 
     49 N           1.5147  -15.9052  -49.9671 N.am      5 UNK        -0.5000 
     50 C           0.5188  -16.1637  -49.1078 C.2       4 UNK         0.5000 
     51 O           0.5404  -17.0944  -48.3031 O.2       4 UNK        -0.5000 
     52 CA         -0.6925  -15.2141  -49.1578 C.3       4 UNK         0.1400 
     53 CB         -1.7824  -15.5905  -48.1361 C.3       4 UNK        -0.1800 
     54 N          -0.2810  -13.8284  -48.9342 N.am      4 UNK        -0.5000 
     55 C           0.1259  -12.9779  -49.8874 C.2       3 UNK         0.5000 
     56 O           0.2273  -13.2973  -51.0725 O.2       3 UNK        -0.5000 
     57 CA          0.4924  -11.5403  -49.4633 C.3       3 UNK         0.1400 
     58 CB         -0.6837  -10.5892  -49.7308 C.3       3 UNK        -0.1800 
     59 N           0.8768  -11.4367  -48.0558 N.am      3 UNK        -0.5000 
     60 C           2.0521  -11.8534  -47.5606 C.2       2 UNK         0.5000 
     61 O           2.9751  -12.2635  -48.2643 O.2       2 UNK        -0.5000 
     62 CA          2.2284  -11.8294  -46.0253 C.3       2 UNK         0.1400 
     63 CB          3.0525  -10.6051  -45.5985 C.3       2 UNK        -0.1800 
     64 N           0.9707  -11.8375  -45.2705 N.am      2 UNK        -0.5000 
     65 C           0.0248  -12.7853  -45.3488 C.2       1 UNK         0.5000 
     66 O           0.1484  -13.7921  -46.0416 O.2       1 UNK        -0.5000 
     67 C          -2.8863  -22.7638  -44.0648 C.2       11 UNK         0.5000 
     68 O          -3.8802  -23.4273  -44.3651 O.2       11 UNK        -0.5000 
     69 N          -1.8567  -23.2476  -43.3544 N.am      12 UNK        -0.5000 
     70 CA         -1.7447  -24.6215  -42.8544 C.3       12 UNK         0.1400 
     71 CB         -0.5026  -24.7167  -41.9554 C.3       12 UNK        -0.1800 
     72 C          -1.6886  -25.7001  -43.9596 C.2       12 UNK         0.5000 
     73 O          -1.9764  -26.8641  -43.6800 O.2       12 UNK        -0.5000 
     74 N          -1.3354  -25.2975  -45.1860 N.am      13 UNK        -0.5000 
     75 CA         -1.2542  -26.1311  -46.3833 C.3       13 UNK         0.1400 
     76 CB          0.1362  -25.9342  -47.0127 C.3       13 UNK        -0.1800 
     77 C          -2.3935  -25.8158  -47.3767 C.2       13 UNK         0.5000 
     78 O          -2.2427  -26.0790  -48.5705 O.2       13 UNK        -0.5000 
     79 N          -3.5069  -25.2520  -46.8795 N.am      14 UNK        -0.5000 
     80 CA         -4.7314  -24.9097  -47.6143 C.3       14 UNK         0.1400 
     81 CB         -5.4490  -26.1881  -48.0970 C.3       14 UNK        -0.1800 
     82 C          -4.4849  -23.8901  -48.7464 C.2       14 UNK         0.5000 
     83 O          -4.8556  -24.1310  -49.8960 O.2       14 UNK        -0.5000 
     84 N          -3.8353  -22.7763  -48.3817 N.am      15 UNK        -0.5000 
     85 CA         -3.3658  -21.6910  -49.2506 C.3       15 UNK         0.1400 
     86 CB         -4.5363  -20.9860  -49.9622 C.3       15 UNK        -0.1800 
     87 C          -2.2470  -22.1653  -50.2015 C.2       15 UNK         0.5000 
     88 O          -2.2440  -21.8317  -51.3919 O.2       15 UNK        -0.5000 
     89 N          -1.3128  -22.9354  -49.6208 N.am      16 UNK        -0.5000 
     90 CA         -0.1366  -23.5543  -50.2359 C.3       16 UNK         0.1400 
     91 CB          0.9268  -22.4847  -50.5489 C.3       16 UNK        -0.1800 
     92 C          -0.5057  -24.4340  -51.4442 C.2       16 UNK         0.5000 
     93 O           0.0768  -24.2866  -52.5215 O.2       16 UNK        -0.5000 
     94 N          -1.5137  -25.2949  -51.2418 N.am      17 UNK        -0.5000 
     95 CA         -2.2090  -26.1575  -52.2027 C.3       17 UNK         0.1400 
     96 CB         -1.2648  -27.2279  -52.7835 C.3       17 UNK        -0.1800 
     97 C          -2.9396  -25.3761  -53.3126 C.2       17 UNK         0.5000 
     98 O          -4.1596  -25.4869  -53.4382 O.2       17 UNK        -0.5000 
     99 N          -2.1776  -24.6009  -54.0879 N.am      18 UNK        -0.5000 
    100 CA        -2.6404  -23.7192  -55.1532 C.3       18 UNK         0.1400 
    101 CB        -2.9260  -24.5434  -56.4239 C.3       18 UNK        -0.1800 
    102 C         -1.6520  -22.5684  -55.4353 C.2       18 UNK         0.5000 
    103 O         -1.8882  -21.8102  -56.3768 O.2       18 UNK        -0.5000 
    104 N         -0.5585  -22.4436  -54.6630 N.am      19 UNK        -0.5000 
    105 CA         0.4620  -21.4150  -54.8848 C.3       19 UNK         0.1400 
    106 CB         1.7833  -21.8246  -54.2202 C.3       19 UNK        -0.1800 
    107 C          0.0128  -20.0152  -54.4271 C.2       19 UNK         0.5000 
    108 O          0.3667  -19.0364  -55.0860 O.2       19 UNK        -0.5000 
    109 N         -0.7753  -19.9391  -53.3435 N.am      20 UNK        -0.5000 
    110 CA        -1.4779  -18.7166  -52.9471 C.3       20 UNK         0.1400 
    111 CB        -1.4317  -18.5257  -51.4210 C.3       20 UNK        -0.1800 
    112 C         -2.9232  -18.7651  -53.4649 C.2       20 UNK         0.5000 
    113 O         -3.3705  -17.8050  -54.0917 O.2       20 UNK        -0.5000 
    114 N         -3.6134  -19.8901  -53.2081 N.am      21 UNK        -0.5000 
    115 CA        -4.9807  -20.2227  -53.6441 C.3       21 UNK         0.1400 
    116 CB        -5.0328  -20.3868  -55.1775 C.3       21 UNK        -0.1800 
    117 C         -6.0851  -19.2606  -53.1448 C.2       21 UNK         0.5000 
    118 O         -7.1890  -19.2670  -53.6933 O.2       21 UNK        -0.5000 
    119 N         -5.7769  -18.4420  -52.1333 N.am      22 UNK        -0.5000 
    120 CA        -6.6765  -17.4402  -51.5519 C.3       22 UNK         0.1400 
    121 C         -7.8444  -18.0434  -50.7167 C.2       22 UNK         0.5000 
    122 N         -8.9015  -17.2763  -50.4837 N.am      22 UNK        -0.7600 
    123 O         -7.7994  -19.1829  -50.2582 O.2       22 UNK        -0.5000 
    124 C124       -5.8751  -16.3587  -50.7826 C.3       23 UNK        -0.0398 
    125 S125       -4.9602  -16.9777  -49.3256 S.3       23 UNK        -0.2404 
    126 C126       -6.0014  -16.2859  -48.0049 C.3       23 UNK        -0.0205 
    127 H127       -2.9609   -8.3961  -45.0371 H         1 UNK         0.0600 
    128 H128       -2.0228   -8.7210  -43.5765 H         1 UNK         0.0600 
    129 H129       -1.2257   -8.0645  -45.0094 H         1 UNK         0.0600 
    130 H130       -1.6002  -10.8927  -43.2982 H         1 UNK         0.3000 
    131 H131       -2.0970  -12.8216  -45.2910 H         1 UNK         0.0600 
    132 H132       -0.5001  -13.4812  -42.7788 H         1 UNK         0.0800 
    133 H133       -2.1723  -13.0296  -42.6483 H         1 UNK         0.0800 
    134 H134       -4.0823  -15.0608  -42.6273 H         1 UNK         0.0800 
    135 H135       -4.0630  -13.9749  -43.9956 H         1 UNK         0.0800 
    136 H136       -4.6267  -14.7290  -46.2353 H         1 UNK         0.1150 
    137 H137       -6.2812  -18.6500  -46.7040 H         1 UNK         0.1150 
    138 H138       -4.4620  -17.5044  -42.9842 H         1 UNK         0.1150 
    139 H139       -6.7648  -19.6473  -43.9528 H         1 UNK         0.0800 
    140 H140       -5.6523  -20.3746  -45.0798 H         1 UNK         0.0800 
    141 H141       -2.3286  -20.3398  -42.7224 H         1 UNK         0.0800 
    142 H142       -2.8252  -19.2569  -43.9826 H         1 UNK         0.0800 
    143 H143       -3.4546  -21.2165  -45.4255 H         1 UNK         0.0600 
    144 H144       -0.8819  -20.3218  -44.8745 H         1 UNK         0.3000 
    145 H145        0.9593  -22.3336  -47.1985 H         1 UNK         0.0600 
    146 H146        1.5794  -20.0605  -47.9197 H         1 UNK         0.0600 
    147 H147       -0.0733  -20.3913  -48.3992 H         1 UNK         0.0600 
    148 H148        0.2384  -19.3625  -47.0172 H         1 UNK         0.0600 
    149 H149        1.5002  -20.3337  -45.1194 H         1 UNK         0.3000 
    150 H150        2.3641  -22.6875  -42.6453 H         1 UNK         0.0600 
    151 H151        4.4794  -22.7536  -43.9968 H         1 UNK         0.0600 
    152 H152        4.6047  -21.6845  -42.6080 H         1 UNK         0.0600 
    153 H153        4.3807  -21.0109  -44.2184 H         1 UNK         0.0600 
    154 H154        2.6953  -19.8225  -42.9416 H         1 UNK         0.3000 
    155 H155       -0.5610  -18.9741  -41.7682 H         1 UNK         0.0600 
    156 H156        0.7123  -19.4930  -39.6792 H         1 UNK         0.0600 
    157 H157        0.7349  -17.7738  -40.0371 H         1 UNK         0.0600 
    158 H158        2.1575  -18.7630  -40.3685 H         1 UNK         0.0600 
    159 H159        1.6506  -17.3259  -42.3553 H         1 UNK         0.3000 
    160 H160        0.4534  -16.3329  -45.3960 H         1 UNK         0.0600 
    161 H161        2.8349  -16.0757  -43.4630 H         1 UNK         0.0600 
    162 H162        1.2887  -15.2420  -43.3190 H         1 UNK         0.0600 
    163 H163        2.3480  -14.8997  -44.6727 H         1 UNK         0.0600 
    164 H164        1.8704  -17.1665  -46.8412 H         1 UNK         0.3000 
    165 H165        5.1010  -17.7572  -46.8656 H         1 UNK         0.0600 
    166 H166        5.1270  -20.0684  -47.8840 H         1 UNK         0.0600 
    167 H167        5.2224  -20.0689  -46.1368 H         1 UNK         0.0600 
    168 H168        3.7050  -20.4802  -46.9280 H         1 UNK         0.0600 
    169 H169        3.0029  -18.7348  -48.6598 H         1 UNK         0.3000 
    170 H170        3.3948  -16.0697  -50.7963 H         1 UNK         0.0600 
    171 H171        1.8205  -18.6514  -50.2462 H         1 UNK         0.0600 
    172 H172        2.0118  -17.8545  -51.8013 H         1 UNK         0.0600 
    173 H173        3.4063  -18.5598  -51.0071 H         1 UNK         0.0600 
    174 H174        1.4121  -15.0892  -50.5581 H         1 UNK         0.3000 
    175 H175       -1.1344  -15.3067  -50.1519 H         1 UNK         0.0600 
    176 H176       -1.4166  -15.5519  -47.1103 H         1 UNK         0.0600 
    177 H177       -2.6430  -14.9260  -48.2104 H         1 UNK         0.0600 
    178 H178       -2.1408  -16.6059  -48.3083 H         1 UNK         0.0600 
    179 H179       -0.2304  -13.5430  -47.9614 H         1 UNK         0.3000 
    180 H180        1.3348  -11.2181  -50.0789 H         1 UNK         0.0600 
    181 H181       -1.5652  -10.8677  -49.1519 H         1 UNK         0.0600 
    182 H182       -0.9654  -10.6027  -50.7845 H         1 UNK         0.0600 
    183 H183       -0.4266   -9.5609  -49.4760 H         1 UNK         0.0600 
    184 H184        0.1642  -11.1039  -47.4165 H         1 UNK         0.3000 
    185 H185        2.7836  -12.7286  -45.7521 H         1 UNK         0.0600 
    186 H186        2.5319   -9.6732  -45.8225 H         1 UNK         0.0600 
    187 H187        3.2644  -10.6244  -44.5293 H         1 UNK         0.0600 
    188 H188        4.0116  -10.5786  -46.1175 H         1 UNK         0.0600 
    189 H189        0.7850  -11.0287  -44.6959 H         1 UNK         0.3000 
    190 H190       -1.0905  -22.6229  -43.1202 H         1 UNK         0.3000 
    191 H191       -2.6271  -24.8262  -42.2449 H         1 UNK         0.0600 
    192 H192        0.4100  -24.4950  -42.5103 H         1 UNK         0.0600 
    193 H193       -0.5647  -24.0183  -41.1206 H         1 UNK         0.0600 
    194 H194       -0.3973  -25.7173  -41.5342 H         1 UNK         0.0600 
    195 H195       -1.1547  -24.3130  -45.3373 H         1 UNK         0.3000 
    196 H196       -1.3567  -27.1854  -46.1203 H         1 UNK         0.0600 
    197 H197        0.9222  -26.2384  -46.3213 H         1 UNK         0.0600 
    198 H198        0.3136  -24.8902  -47.2689 H         1 UNK         0.0600 
    199 H199        0.2566  -26.5287  -47.9190 H         1 UNK         0.0600 
    200 H200       -3.5124  -25.0099  -45.8960 H         1 UNK         0.3000 
    201 H201       -5.3899  -24.4166  -46.8976 H         1 UNK         0.0600 
    202 H202       -6.4128  -25.9473  -48.5468 H         1 UNK         0.0600 
    203 H203       -5.6395  -26.8696  -47.2680 H         1 UNK         0.0600 
    204 H204       -4.8653  -26.7252  -48.8454 H         1 UNK         0.0600 
    205 H205       -3.4849  -22.7419  -47.4326 H         1 UNK         0.3000 
    206 H206       -2.9056  -20.9552  -48.5894 H         1 UNK         0.0600 
    207 H207       -5.3205  -20.7095  -49.2573 H         1 UNK         0.0600 
    208 H208       -4.9845  -21.6114  -50.7341 H         1 UNK         0.0600 
    209 H209       -4.1974  -20.0663  -50.4350 H         1 UNK         0.0600 
    210 H210       -1.4364  -23.1280  -48.6310 H         1 UNK         0.3000 
    211 H211        0.2905  -24.2318  -49.4974 H         1 UNK         0.0600 
    212 H212        1.2898  -22.0140  -49.6377 H         1 UNK         0.0600 
    213 H213        1.7956  -22.9243  -51.0396 H         1 UNK         0.0600 
    214 H214        0.5329  -21.6989  -51.1926 H         1 UNK         0.0600 
    215 H215       -1.8955  -25.3434  -50.2998 H         1 UNK         0.3000 
    216 H216       -2.9765  -26.6768  -51.6264 H         1 UNK         0.0600 
    217 H217       -1.8064  -27.9037  -53.4463 H         1 UNK         0.0600 
    218 H218       -0.4490  -26.7916  -53.3601 H         1 UNK         0.0600 
    219 H219       -0.8257  -27.8333  -51.9905 H         1 UNK         0.0600 
    220 H220       -1.1888  -24.5666  -53.8601 H         1 UNK         0.3000 
    221 H221       -3.5703  -23.2509  -54.8257 H         1 UNK         0.0600 
    222 H222       -2.0254  -25.0400  -56.7866 H         1 UNK         0.0600 
    223 H223       -3.6801  -25.3091  -56.2418 H         1 UNK         0.0600 
    224 H224       -3.3018  -23.9116  -57.2295 H         1 UNK         0.0600 
    225 H225       -0.3966  -23.0717  -53.8824 H         1 UNK         0.3000 
    226 H226        0.6527  -21.3573  -55.9589 H         1 UNK         0.0600 
    227 H227        2.1118  -22.8055  -54.5640 H         1 UNK         0.0600 
    228 H228        2.5745  -21.1131  -54.4593 H         1 UNK         0.0600 
    229 H229        1.6980  -21.8610  -53.1379 H         1 UNK         0.0600 
    230 H230       -1.0379  -20.7911  -52.8625 H         1 UNK         0.3000 
    231 H231       -0.9970  -17.8416  -53.3896 H         1 UNK         0.0600 
    232 H232       -1.9112  -17.5892  -51.1341 H         1 UNK         0.0600 
    233 H233       -0.4052  -18.4874  -51.0615 H         1 UNK         0.0600 
    234 H234       -1.9386  -19.3222  -50.8827 H         1 UNK         0.0600 
    235 H235       -3.1557  -20.6065  -52.6515 H         1 UNK         0.3000 
    236 H236       -5.2071  -21.1940  -53.2025 H         1 UNK         0.0600 
    237 H237       -4.2704  -21.0760  -55.5311 H         1 UNK         0.0600 
    238 H238       -5.9952  -20.7856  -55.4997 H         1 UNK         0.0600 
    239 H239       -4.8850  -19.4363  -55.6907 H         1 UNK         0.0600 
    240 H240       -4.8626  -18.5102  -51.7153 H         1 UNK         0.3000 
    241 H241       -7.1480  -16.9334  -52.3965 H         1 UNK         0.0600 
    242 H242       -8.9741  -16.3408  -50.8525 H         1 UNK         0.3800 
    243 H243       -9.6633  -17.6512  -49.9400 H         1 UNK         0.3800 
    244 H244       -5.1473  -15.9046  -51.4566 H         1 UNK         0.0800 
    245 H245       -6.5343  -15.5409  -50.4878 H         1 UNK         0.0800 
    246 H246       -7.0245  -16.6454  -48.1241 H         1 UNK         0.0800 
    247 H247       -6.0431  -15.2009  -48.1129 H         1 UNK         0.0800 
@<TRIPOS>BOND
     1    1    2 1    
     2    1  127 1    
     3    1  128 1    
     4    1  129 1    
     5    2    3 2    
     6    2    4 am   BACKBONE|DICT|INTERRES
     7    4    5 1    
     8    4  130 1    
     9    5    6 1    
    10    5   65 1    
    11    5  131 1    
    12    6    7 1    
    13    6  132 1    
    14    6  133 1    
    15    7    8 1    
    16    8    9 1    
    17    8  134 1    
    18    8  135 1    
    19    9   10 ar   
    20    9   14 ar   
    21   10   11 ar   
    22   10  136 1    
    23   11   12 ar   
    24   11  126 1    
    25   12   13 ar   
    26   12  137 1    
    27   13   14 ar   
    28   13   15 1    
    29   14  138 1    
    30   15   16 1    
    31   15  139 1    
    32   15  140 1    
    33   16   17 1    
    34   17   18 1    
    35   17  141 1    
    36   17  142 1    
    37   18   19 1    
    38   18   67 1    
    39   18  143 1    
    40   19   20 am   BACKBONE|DICT|INTERRES
    41   19  144 1    
    42   20   21 2    
    43   20   22 1    
    44   22   23 1    
    45   22   24 1    
    46   22  145 1    
    47   23  146 1    
    48   23  147 1    
    49   23  148 1    
    50   24   25 am   BACKBONE|DICT|INTERRES
    51   24  149 1    
    52   25   26 2    
    53   25   27 1    
    54   27   28 1    
    55   27   29 1    
    56   27  150 1    
    57   28  151 1    
    58   28  152 1    
    59   28  153 1    
    60   29   30 am   BACKBONE|DICT|INTERRES
    61   29  154 1    
    62   30   31 2    
    63   30   32 1    
    64   32   33 1    
    65   32   34 1    
    66   32  155 1    
    67   33  156 1    
    68   33  157 1    
    69   33  158 1    
    70   34   35 am   BACKBONE|DICT|INTERRES
    71   34  159 1    
    72   35   36 2    
    73   35   37 1    
    74   37   38 1    
    75   37   39 1    
    76   37  160 1    
    77   38  161 1    
    78   38  162 1    
    79   38  163 1    
    80   39   40 am   BACKBONE|DICT|INTERRES
    81   39  164 1    
    82   40   41 2    
    83   40   42 1    
    84   42   43 1    
    85   42   44 1    
    86   42  165 1    
    87   43  166 1    
    88   43  167 1    
    89   43  168 1    
    90   44   45 am   BACKBONE|DICT|INTERRES
    91   44  169 1    
    92   45   46 2    
    93   45   47 1    
    94   47   48 1    
    95   47   49 1    
    96   47  170 1    
    97   48  171 1    
    98   48  172 1    
    99   48  173 1    
   100   49   50 am   BACKBONE|DICT|INTERRES
   101   49  174 1    
   102   50   51 2    
   103   50   52 1    
   104   52   53 1    
   105   52   54 1    
   106   52  175 1    
   107   53  176 1    
   108   53  177 1    
   109   53  178 1    
   110   54   55 am   BACKBONE|DICT|INTERRES
   111   54  179 1    
   112   55   56 2    
   113   55   57 1    
   114   57   58 1    
   115   57   59 1    
   116   57  180 1    
   117   58  181 1    
   118   58  182 1    
   119   58  183 1    
   120   59   60 am   BACKBONE|DICT|INTERRES
   121   59  184 1    
   122   60   61 2    
   123   60   62 1    
   124   62   63 1    
   125   62   64 1    
   126   62  185 1    
   127   63  186 1    
   128   63  187 1    
   129   63  188 1    
   130   64   65 am   BACKBONE|DICT|INTERRES
   131   64  189 1    
   132   65   66 2    
   133   67   68 2    
   134   67   69 am   BACKBONE|DICT|INTERRES
   135   69   70 1    
   136   69  190 1    
   137   70   71 1    
   138   70   72 1    
   139   70  191 1    
   140   71  192 1    
   141   71  193 1    
   142   71  194 1    
   143   72   73 2    
   144   72   74 am   BACKBONE|DICT|INTERRES
   145   74   75 1    
   146   74  195 1    
   147   75   76 1    
   148   75   77 1    
   149   75  196 1    
   150   76  197 1    
   151   76  198 1    
   152   76  199 1    
   153   77   78 2    
   154   77   79 am   BACKBONE|DICT|INTERRES
   155   79   80 1    
   156   79  200 1    
   157   80   81 1    
   158   80   82 1    
   159   80  201 1    
   160   81  202 1    
   161   81  203 1    
   162   81  204 1    
   163   82   83 2    
   164   82   84 am   BACKBONE|DICT|INTERRES
   165   84   85 1    
   166   84  205 1    
   167   85   86 1    
   168   85   87 1    
   169   85  206 1    
   170   86  207 1    
   171   86  208 1    
   172   86  209 1    
   173   87   88 2    
   174   87   89 am   BACKBONE|DICT|INTERRES
   175   89   90 1    
   176   89  210 1    
   177   90   91 1    
   178   90   92 1    
   179   90  211 1    
   180   91  212 1    
   181   91  213 1    
   182   91  214 1    
   183   92   93 2    
   184   92   94 am   BACKBONE|DICT|INTERRES
   185   94   95 1    
   186   94  215 1    
   187   95   96 1    
   188   95   97 1    
   189   95  216 1    
   190   96  217 1    
   191   96  218 1    
   192   96  219 1    
   193   97   98 2    
   194   97   99 am   BACKBONE|DICT|INTERRES
   195   99  100 1    
   196   99  220 1    
   197  100  101 1    
   198  100  102 1    
   199  100  221 1    
   200  101  222 1    
   201  101  223 1    
   202  101  224 1    
   203  102  103 2    
   204  102  104 am   BACKBONE|DICT|INTERRES
   205  104  105 1    
   206  104  225 1    
   207  105  106 1    
   208  105  107 1    
   209  105  226 1    
   210  106  227 1    
   211  106  228 1    
   212  106  229 1    
   213  107  108 2    
   214  107  109 am   BACKBONE|DICT|INTERRES
   215  109  110 1    
   216  109  230 1    
   217  110  111 1    
   218  110  112 1    
   219  110  231 1    
   220  111  232 1    
   221  111  233 1    
   222  111  234 1    
   223  112  113 2    
   224  112  114 am   BACKBONE|DICT|INTERRES
   225  114  115 1    
   226  114  235 1    
   227  115  116 1    
   228  115  117 1    
   229  115  236 1    
   230  116  237 1    
   231  116  238 1    
   232  116  239 1    
   233  117  118 2    
   234  117  119 am   BACKBONE|DICT|INTERRES
   235  119  120 1    
   236  119  240 1    
   237  120  121 1    
   238  120  124 1    
   239  120  241 1    
   240  121  122 am   BACKBONE|DICT|INTERRES
   241  121  123 2    
   242  122  242 1    
   243  122  243 1    
   244  124  125 1    
   245  124  244 1    
   246  124  245 1    
   247  125  126 1    
   248  126  246 1    
   249  126  247 1    
@<TRIPOS>SUBSTRUCTURE
     1 UNK         1 GROUP             0       ****    0 ROOT    
