@<TRIPOS>MOLECULE
3R540
247   249    1
SMALL
USER_CHARGES


@<TRIPOS>ATOM
      1 CA         -2.6081  -14.7155  -45.2835 C.3       0 UNK        -0.1800 
      2 C          -1.4095  -14.0079  -45.8979 C.2       0 UNK         0.5000 
      3 O          -0.5702  -13.4892  -45.1602 O.2       0 UNK        -0.5000 
      4 N          -1.3280  -13.9930  -47.2363 N.am      1 UNK        -0.5000 
      5 CA         -0.2336  -13.4583  -48.0626 C.3       1 UNK         0.1400 
      6 C6          1.0256  -14.3719  -48.0730 C.3       23 UNK        -0.0398 
      7 S7          0.6457  -16.0935  -48.5489 S.3       23 UNK        -0.2404 
      8 C8          1.4711  -16.2363  -50.1598 C.3       23 UNK        -0.0205 
      9 C9          1.2287  -17.6108  -50.7625 C.ar      23 UNK        -0.0193 
     10 C10         0.0639  -17.8552  -51.4948 C.ar      23 UNK        -0.1150 
     11 C11        -0.1800  -19.1161  -52.0465 C.ar      23 UNK        -0.0193 
     12 C12         0.7604  -20.1348  -51.8648 C.ar      23 UNK        -0.1150 
     13 C13         1.9326  -19.9032  -51.1394 C.ar      23 UNK        -0.0193 
     14 C14         2.1602  -18.6388  -50.5868 C.ar      23 UNK        -0.1150 
     15 C15         2.9616  -21.0144  -50.9829 C.3       23 UNK        -0.0205 
     16 S16         2.4305  -22.2938  -49.8016 S.3       23 UNK        -0.2404 
     17 C17         2.6702  -21.4310  -48.2133 C.3       23 UNK        -0.0398 
     18 CA          2.0286  -22.1771  -47.0113 C.3       11 UNK         0.1400 
     19 N           2.5971  -21.7441  -45.7337 N.am      11 UNK        -0.5000 
     20 C           3.8060  -22.1346  -45.3053 C.2       10 UNK         0.5000 
     21 O           4.4956  -22.9733  -45.8874 O.2       10 UNK        -0.5000 
     22 CA          4.3695  -21.4657  -44.0394 C.3       10 UNK         0.1400 
     23 CB          5.0158  -20.1179  -44.3936 C.3       10 UNK        -0.1800 
     24 N           3.3757  -21.2763  -42.9854 N.am      10 UNK        -0.5000 
     25 C           2.8567  -22.2710  -42.2522 C.2       9 UNK         0.5000 
     26 O           3.1725  -23.4545  -42.3826 O.2       9 UNK        -0.5000 
     27 CA          1.8038  -21.8836  -41.1955 C.3       9 UNK         0.1400 
     28 CB          2.4835  -21.4457  -39.8893 C.3       9 UNK        -0.1800 
     29 N           0.8939  -20.8288  -41.6412 N.am      9 UNK        -0.5000 
     30 C           0.0634  -20.9342  -42.6874 C.2       8 UNK         0.5000 
     31 O          -0.0378  -21.9353  -43.3965 O.2       8 UNK        -0.5000 
     32 CA         -0.7321  -19.6737  -43.0563 C.3       8 UNK         0.1400 
     33 CB         -1.8538  -19.3877  -42.0476 C.3       8 UNK        -0.1800 
     34 N           0.1348  -18.5051  -43.1928 N.am      8 UNK        -0.5000 
     35 C           1.1567  -18.4032  -44.0547 C.2       7 UNK         0.5000 
     36 O           1.4335  -19.2559  -44.8990 O.2       7 UNK        -0.5000 
     37 CA          2.0366  -17.1514  -43.9334 C.3       7 UNK         0.1400 
     38 CB          1.4063  -15.9941  -44.7092 C.3       7 UNK        -0.1800 
     39 N           2.2542  -16.7596  -42.5409 N.am      7 UNK        -0.5000 
     40 C           2.9960  -17.4588  -41.6707 C.2       6 UNK         0.5000 
     41 O           3.6157  -18.4791  -41.9668 O.2       6 UNK        -0.5000 
     42 CA          3.0017  -16.9659  -40.2137 C.3       6 UNK         0.1400 
     43 CB          4.0317  -15.8458  -40.0141 C.3       6 UNK        -0.1800 
     44 N           1.6808  -16.5046  -39.7867 N.am      6 UNK        -0.5000 
     45 C           0.6385  -17.3241  -39.5875 C.2       5 UNK         0.5000 
     46 O           0.7019  -18.5481  -39.7097 O.2       5 UNK        -0.5000 
     47 CA         -0.7096  -16.6689  -39.2318 C.3       5 UNK         0.1400 
     48 CB         -0.8468  -16.5147  -37.7101 C.3       5 UNK        -0.1800 
     49 N          -0.9237  -15.3674  -39.8694 N.am      5 UNK        -0.5000 
     50 C          -0.9643  -15.1519  -41.1914 C.2       4 UNK         0.5000 
     51 O          -0.7967  -16.0410  -42.0260 O.2       4 UNK        -0.5000 
     52 CA         -1.2241  -13.7102  -41.6742 C.3       4 UNK         0.1400 
     53 CB         -1.6778  -12.7415  -40.5589 C.3       4 UNK        -0.1800 
     54 N          -0.0806  -13.1491  -42.4008 N.am      4 UNK        -0.5000 
     55 C           1.1698  -12.9862  -41.9437 C.2       3 UNK         0.5000 
     56 O           1.5403  -13.3829  -40.8373 O.2       3 UNK        -0.5000 
     57 CA          2.1793  -12.2420  -42.8417 C.3       3 UNK         0.1400 
     58 CB          3.5025  -13.0165  -42.9924 C.3       3 UNK        -0.1800 
     59 N           1.6561  -11.8666  -44.1646 N.am      3 UNK        -0.5000 
     60 C           2.0197  -10.7479  -44.8162 C.2       2 UNK         0.5000 
     61 O           2.8023   -9.9210  -44.3441 O.2       2 UNK        -0.5000 
     62 CA          1.4427  -10.5105  -46.2287 C.3       2 UNK         0.1400 
     63 CB          2.3856   -9.6935  -47.1336 C.3       2 UNK        -0.1800 
     64 N           1.1193  -11.7769  -46.8781 N.am      2 UNK        -0.5000 
     65 C           0.0742  -11.9893  -47.6880 C.2       1 UNK         0.5000 
     66 O          -0.6681  -11.0950  -48.0984 O.2       1 UNK        -0.5000 
     67 C           0.4943  -22.0695  -47.0451 C.2       11 UNK         0.5000 
     68 O          -0.1653  -23.0303  -47.4429 O.2       11 UNK        -0.5000 
     69 N          -0.0595  -20.9044  -46.6819 N.am      12 UNK        -0.5000 
     70 CA         -1.4271  -20.5120  -47.0429 C.3       12 UNK         0.1400 
     71 CB         -1.6063  -18.9959  -46.8534 C.3       12 UNK        -0.1800 
     72 C          -2.5662  -21.3242  -46.3906 C.2       12 UNK         0.5000 
     73 O          -3.6886  -21.2628  -46.8910 O.2       12 UNK        -0.5000 
     74 N          -2.2835  -22.0905  -45.3258 N.am      13 UNK        -0.5000 
     75 CA         -3.2368  -23.0439  -44.7477 C.3       13 UNK         0.1400 
     76 CB         -2.8327  -23.3878  -43.3066 C.3       13 UNK        -0.1800 
     77 C          -3.3576  -24.3318  -45.5846 C.2       13 UNK         0.5000 
     78 O          -4.4298  -24.9364  -45.6084 O.2       13 UNK        -0.5000 
     79 N          -2.2671  -24.7283  -46.2553 N.am      14 UNK        -0.5000 
     80 CA         -2.2288  -25.8689  -47.1699 C.3       14 UNK         0.1400 
     81 CB         -0.8128  -26.4660  -47.1900 C.3       14 UNK        -0.1800 
     82 C          -2.6655  -25.4411  -48.5793 C.2       14 UNK         0.5000 
     83 O          -3.4751  -26.1235  -49.2064 O.2       14 UNK        -0.5000 
     84 N          -2.1657  -24.2829  -49.0278 N.am      15 UNK        -0.5000 
     85 CA         -2.4728  -23.6487  -50.3104 C.3       15 UNK         0.1400 
     86 CB         -1.2456  -22.8400  -50.7550 C.3       15 UNK        -0.1800 
     87 C          -3.7536  -22.7860  -50.2575 C.2       15 UNK         0.5000 
     88 O          -3.8536  -21.7818  -50.9663 O.2       15 UNK        -0.5000 
     89 N          -4.7250  -23.2011  -49.4315 N.am      16 UNK        -0.5000 
     90 CA         -5.9880  -22.5131  -49.1413 C.3       16 UNK         0.1400 
     91 CB         -6.6956  -23.2499  -47.9939 C.3       16 UNK        -0.1800 
     92 C          -6.9321  -22.3484  -50.3499 C.2       16 UNK         0.5000 
     93 O          -7.8813  -21.5677  -50.2733 O.2       16 UNK        -0.5000 
     94 N          -6.6416  -23.0564  -51.4504 N.am      17 UNK        -0.5000 
     95 CA         -7.2548  -22.8806  -52.7675 C.3       17 UNK         0.1400 
     96 CB         -6.7289  -23.9825  -53.6967 C.3       17 UNK        -0.1800 
     97 C          -7.0112  -21.4807  -53.3738 C.2       17 UNK         0.5000 
     98 O          -7.8393  -21.0247  -54.1632 O.2       17 UNK        -0.5000 
     99 N          -5.9143  -20.8217  -52.9590 N.am      18 UNK        -0.5000 
    100 CA        -5.5765  -19.4083  -53.1530 C.3       18 UNK         0.1400 
    101 CB        -6.3774  -18.5490  -52.1523 C.3       18 UNK        -0.1800 
    102 C         -5.7083  -18.9264  -54.6114 C.2       18 UNK         0.5000 
    103 O         -4.7988  -19.1577  -55.4069 O.2       18 UNK        -0.5000 
    104 N         -6.8390  -18.2854  -54.9407 N.am      19 UNK        -0.5000 
    105 CA        -7.1793  -17.7717  -56.2694 C.3       19 UNK         0.1400 
    106 CB        -8.5305  -17.0454  -56.1934 C.3       19 UNK        -0.1800 
    107 C         -7.2060  -18.8457  -57.3750 C.2       19 UNK         0.5000 
    108 O         -6.9254  -18.5250  -58.5309 O.2       19 UNK        -0.5000 
    109 N         -7.4849  -20.1052  -57.0099 N.am      20 UNK        -0.5000 
    110 CA        -7.4024  -21.2724  -57.8897 C.3       20 UNK         0.1400 
    111 CB        -8.3655  -22.3563  -57.3766 C.3       20 UNK        -0.1800 
    112 C         -5.9456  -21.7692  -58.0272 C.2       20 UNK         0.5000 
    113 O         -5.6463  -22.9232  -57.7111 O.2       20 UNK        -0.5000 
    114 N         -5.0610  -20.8643  -58.4740 N.am      21 UNK        -0.5000 
    115 CA        -3.6329  -21.0522  -58.7649 C.3       21 UNK         0.1400 
    116 CB        -3.4721  -21.8670  -60.0648 C.3       21 UNK        -0.1800 
    117 C         -2.8131  -21.6414  -57.5944 C.2       21 UNK         0.5000 
    118 O         -1.8498  -22.3741  -57.8279 O.2       21 UNK        -0.5000 
    119 N         -3.2249  -21.3302  -56.3584 N.am      22 UNK        -0.5000 
    120 CA        -2.6968  -21.8713  -55.0949 C.3       22 UNK         0.1400 
    121 C         -2.8787  -23.4114  -54.9160 C.2       22 UNK         0.5000 
    122 N         -3.7298  -24.0765  -55.6900 N.am      22 UNK        -0.7600 
    123 O         -2.2719  -24.0126  -54.0346 O.2       22 UNK        -0.5000 
    124 C124       -1.2522  -21.3837  -54.7893 C.3       23 UNK        -0.0398 
    125 S125       -1.1724  -19.5675  -54.6068 S.3       23 UNK        -0.2404 
    126 C126       -1.4668  -19.3703  -52.8195 C.3       23 UNK        -0.0205 
    127 H127       -2.2694  -15.4818  -44.5858 H         1 UNK         0.0600 
    128 H128       -3.2281  -15.1959  -46.0406 H         1 UNK         0.0600 
    129 H129       -3.2247  -14.0023  -44.7369 H         1 UNK         0.0600 
    130 H130       -2.0745  -14.4215  -47.7642 H         1 UNK         0.3000 
    131 H131       -0.6172  -13.4317  -49.0838 H         1 UNK         0.0600 
    132 H132        1.7799  -13.9691  -48.7511 H         1 UNK         0.0800 
    133 H133        1.4906  -14.4075  -47.0889 H         1 UNK         0.0800 
    134 H134        1.0976  -15.4628  -50.8327 H         1 UNK         0.0800 
    135 H135        2.5408  -16.0577  -50.0398 H         1 UNK         0.0800 
    136 H136       -0.6579  -17.0611  -51.6254 H         1 UNK         0.1150 
    137 H137        0.5879  -21.1122  -52.2891 H         1 UNK         0.1150 
    138 H138        3.0630  -18.4526  -50.0220 H         1 UNK         0.1150 
    139 H139        3.1267  -21.4836  -51.9538 H         1 UNK         0.0800 
    140 H140        3.9272  -20.6110  -50.6739 H         1 UNK         0.0800 
    141 H141        2.2909  -20.4102  -48.2827 H         1 UNK         0.0800 
    142 H142        3.7473  -21.3368  -48.0711 H         1 UNK         0.0800 
    143 H143        2.2504  -23.2419  -47.1158 H         1 UNK         0.0600 
    144 H144        2.0887  -21.0319  -45.2170 H         1 UNK         0.3000 
    145 H145        5.1549  -22.1152  -43.6467 H         1 UNK         0.0600 
    146 H146        5.5112  -19.6782  -43.5279 H         1 UNK         0.0600 
    147 H147        4.2794  -19.4027  -44.7598 H         1 UNK         0.0600 
    148 H148        5.7709  -20.2382  -45.1714 H         1 UNK         0.0600 
    149 H149        3.1171  -20.3199  -42.7698 H         1 UNK         0.3000 
    150 H150        1.2033  -22.7715  -40.9871 H         1 UNK         0.0600 
    151 H151        3.1564  -22.2200  -39.5187 H         1 UNK         0.0600 
    152 H152        1.7480  -21.2520  -39.1082 H         1 UNK         0.0600 
    153 H153        3.0704  -20.5368  -40.0273 H         1 UNK         0.0600 
    154 H154        0.9028  -19.9659  -41.1055 H         1 UNK         0.3000 
    155 H155       -1.2005  -19.8580  -44.0198 H         1 UNK         0.0600 
    156 H156       -2.5697  -20.2089  -42.0183 H         1 UNK         0.0600 
    157 H157       -2.4054  -18.4866  -42.3166 H         1 UNK         0.0600 
    158 H158       -1.4700  -19.2563  -41.0374 H         1 UNK         0.0600 
    159 H159       -0.0687  -17.7111  -42.5917 H         1 UNK         0.3000 
    160 H160        3.0031  -17.3782  -44.3873 H         1 UNK         0.0600 
    161 H161        0.5237  -15.6115  -44.2014 H         1 UNK         0.0600 
    162 H162        1.0925  -16.3206  -45.6995 H         1 UNK         0.0600 
    163 H163        2.1050  -15.1717  -44.8458 H         1 UNK         0.0600 
    164 H164        1.7191  -15.9753  -42.1979 H         1 UNK         0.3000 
    165 H165        3.2927  -17.8071  -39.5806 H         1 UNK         0.0600 
    166 H166        4.0934  -15.5498  -38.9668 H         1 UNK         0.0600 
    167 H167        5.0269  -16.1707  -40.3202 H         1 UNK         0.0600 
    168 H168        3.7807  -14.9610  -40.5970 H         1 UNK         0.0600 
    169 H169        1.5427  -15.5048  -39.7104 H         1 UNK         0.3000 
    170 H170       -1.5006  -17.3368  -39.5773 H         1 UNK         0.0600 
    171 H171       -0.1025  -15.8271  -37.3064 H         1 UNK         0.0600 
    172 H172       -1.8338  -16.1399  -37.4384 H         1 UNK         0.0600 
    173 H173       -0.7153  -17.4737  -37.2070 H         1 UNK         0.0600 
    174 H174       -1.0458  -14.5773  -39.2530 H         1 UNK         0.3000 
    175 H175       -2.0389  -13.7806  -42.3957 H         1 UNK         0.0600 
    176 H176       -0.9048  -12.5837  -39.8060 H         1 UNK         0.0600 
    177 H177       -1.9318  -11.7664  -40.9748 H         1 UNK         0.0600 
    178 H178       -2.5696  -13.1123  -40.0519 H         1 UNK         0.0600 
    179 H179       -0.2780  -12.9126  -43.3673 H         1 UNK         0.3000 
    180 H180        2.4009  -11.3263  -42.2895 H         1 UNK         0.0600 
    181 H181        4.2001  -12.4929  -43.6460 H         1 UNK         0.0600 
    182 H182        3.3493  -14.0152  -43.3962 H         1 UNK         0.0600 
    183 H183        3.9974  -13.1268  -42.0277 H         1 UNK         0.0600 
    184 H184        0.9650  -12.4840  -44.5827 H         1 UNK         0.3000 
    185 H185        0.5252   -9.9369  -46.0817 H         1 UNK         0.0600 
    186 H186        1.9404   -9.5199  -48.1134 H         1 UNK         0.0600 
    187 H187        2.6000   -8.7155  -46.7014 H         1 UNK         0.0600 
    188 H188        3.3368  -10.2053  -47.2837 H         1 UNK         0.0600 
    189 H189        1.6666  -12.5677  -46.5715 H         1 UNK         0.3000 
    190 H190        0.5254  -20.1810  -46.2731 H         1 UNK         0.3000 
    191 H191       -1.5265  -20.6964  -48.1146 H         1 UNK         0.0600 
    192 H192       -0.9094  -18.4446  -47.4840 H         1 UNK         0.0600 
    193 H193       -1.4439  -18.6739  -45.8278 H         1 UNK         0.0600 
    194 H194       -2.6110  -18.6810  -47.1381 H         1 UNK         0.0600 
    195 H195       -1.3450  -22.0897  -44.9390 H         1 UNK         0.3000 
    196 H196       -4.2234  -22.5766  -44.7128 H         1 UNK         0.0600 
    197 H197       -2.7789  -22.4950  -42.6855 H         1 UNK         0.0600 
    198 H198       -1.8635  -23.8864  -43.2675 H         1 UNK         0.0600 
    199 H199       -3.5616  -24.0569  -42.8476 H         1 UNK         0.0600 
    200 H200       -1.4442  -24.1375  -46.2416 H         1 UNK         0.3000 
    201 H201       -2.9150  -26.6433  -46.8202 H         1 UNK         0.0600 
    202 H202       -0.5133  -26.7992  -46.1962 H         1 UNK         0.0600 
    203 H203       -0.0708  -25.7469  -47.5387 H         1 UNK         0.0600 
    204 H204       -0.7655  -27.3319  -47.8514 H         1 UNK         0.0600 
    205 H205       -1.4963  -23.7912  -48.4393 H         1 UNK         0.3000 
    206 H206       -2.6445  -24.4258  -51.0580 H         1 UNK         0.0600 
    207 H207       -1.0464  -22.0007  -50.0884 H         1 UNK         0.0600 
    208 H208       -0.3515  -23.4625  -50.7869 H         1 UNK         0.0600 
    209 H209       -1.3938  -22.4415  -51.7561 H         1 UNK         0.0600 
    210 H210       -4.5612  -24.0576  -48.9214 H         1 UNK         0.3000 
    211 H211       -5.7393  -21.5070  -48.7983 H         1 UNK         0.0600 
    212 H212       -6.9154  -24.2856  -48.2555 H         1 UNK         0.0600 
    213 H213       -7.6392  -22.7667  -47.7372 H         1 UNK         0.0600 
    214 H214       -6.0814  -23.2522  -47.0935 H         1 UNK         0.0600 
    215 H215       -5.8532  -23.6840  -51.4025 H         1 UNK         0.3000 
    216 H216       -8.3339  -23.0057  -52.6580 H         1 UNK         0.0600 
    217 H217       -7.1171  -23.8738  -54.7086 H         1 UNK         0.0600 
    218 H218       -7.0241  -24.9700  -53.3419 H         1 UNK         0.0600 
    219 H219       -5.6418  -23.9619  -53.7569 H         1 UNK         0.0600 
    220 H220       -5.2941  -21.3102  -52.3206 H         1 UNK         0.3000 
    221 H221       -4.5216  -19.3095  -52.8955 H         1 UNK         0.0600 
    222 H222       -7.4542  -18.6800  -52.2652 H         1 UNK         0.0600 
    223 H223       -6.1239  -18.8165  -51.1262 H         1 UNK         0.0600 
    224 H224       -6.1530  -17.4882  -52.2723 H         1 UNK         0.0600 
    225 H225       -7.5469  -18.1832  -54.2284 H         1 UNK         0.3000 
    226 H226       -6.4135  -17.0435  -56.5438 H         1 UNK         0.0600 
    227 H227       -8.4964  -16.2203  -55.4817 H         1 UNK         0.0600 
    228 H228       -8.8041  -16.6256  -57.1624 H         1 UNK         0.0600 
    229 H229       -9.3320  -17.7200  -55.8894 H         1 UNK         0.0600 
    230 H230       -7.6603  -20.2963  -56.0274 H         1 UNK         0.3000 
    231 H231       -7.7374  -20.9904  -58.8900 H         1 UNK         0.0600 
    232 H232       -8.3412  -23.2394  -58.0161 H         1 UNK         0.0600 
    233 H233       -9.3932  -21.9934  -57.3634 H         1 UNK         0.0600 
    234 H234       -8.1126  -22.6726  -56.3662 H         1 UNK         0.0600 
    235 H235       -5.4234  -19.9348  -58.6579 H         1 UNK         0.3000 
    236 H236       -3.2250  -20.0567  -58.9445 H         1 UNK         0.0600 
    237 H237       -3.8213  -22.8928  -59.9410 H         1 UNK         0.0600 
    238 H238       -4.0341  -21.4182  -60.8838 H         1 UNK         0.0600 
    239 H239       -2.4281  -21.9103  -60.3774 H         1 UNK         0.0600 
    240 H240       -3.9798  -20.6585  -56.2511 H         1 UNK         0.3000 
    241 H241       -3.3403  -21.4524  -54.3211 H         1 UNK         0.0600 
    242 H242       -4.2681  -23.6035  -56.4089 H         1 UNK         0.3800 
    243 H243       -3.8390  -25.0691  -55.5606 H         1 UNK         0.3800 
    244 H244       -0.5696  -21.6836  -55.5849 H         1 UNK         0.0800 
    245 H245       -0.8622  -21.8438  -53.8836 H         1 UNK         0.0800 
    246 H246       -2.1548  -18.5349  -52.6833 H         1 UNK         0.0800 
    247 H247       -1.9793  -20.2422  -52.4127 H         1 UNK         0.0800 
@<TRIPOS>BOND
     1    1    2 1    
     2    1  127 1    
     3    1  128 1    
     4    1  129 1    
     5    2    3 2    
     6    2    4 am   BACKBONE|DICT|INTERRES
     7    4    5 1    
     8    4  130 1    
     9    5    6 1    
    10    5   65 1    
    11    5  131 1    
    12    6    7 1    
    13    6  132 1    
    14    6  133 1    
    15    7    8 1    
    16    8    9 1    
    17    8  134 1    
    18    8  135 1    
    19    9   10 ar   
    20    9   14 ar   
    21   10   11 ar   
    22   10  136 1    
    23   11   12 ar   
    24   11  126 1    
    25   12   13 ar   
    26   12  137 1    
    27   13   14 ar   
    28   13   15 1    
    29   14  138 1    
    30   15   16 1    
    31   15  139 1    
    32   15  140 1    
    33   16   17 1    
    34   17   18 1    
    35   17  141 1    
    36   17  142 1    
    37   18   19 1    
    38   18   67 1    
    39   18  143 1    
    40   19   20 am   BACKBONE|DICT|INTERRES
    41   19  144 1    
    42   20   21 2    
    43   20   22 1    
    44   22   23 1    
    45   22   24 1    
    46   22  145 1    
    47   23  146 1    
    48   23  147 1    
    49   23  148 1    
    50   24   25 am   BACKBONE|DICT|INTERRES
    51   24  149 1    
    52   25   26 2    
    53   25   27 1    
    54   27   28 1    
    55   27   29 1    
    56   27  150 1    
    57   28  151 1    
    58   28  152 1    
    59   28  153 1    
    60   29   30 am   BACKBONE|DICT|INTERRES
    61   29  154 1    
    62   30   31 2    
    63   30   32 1    
    64   32   33 1    
    65   32   34 1    
    66   32  155 1    
    67   33  156 1    
    68   33  157 1    
    69   33  158 1    
    70   34   35 am   BACKBONE|DICT|INTERRES
    71   34  159 1    
    72   35   36 2    
    73   35   37 1    
    74   37   38 1    
    75   37   39 1    
    76   37  160 1    
    77   38  161 1    
    78   38  162 1    
    79   38  163 1    
    80   39   40 am   BACKBONE|DICT|INTERRES
    81   39  164 1    
    82   40   41 2    
    83   40   42 1    
    84   42   43 1    
    85   42   44 1    
    86   42  165 1    
    87   43  166 1    
    88   43  167 1    
    89   43  168 1    
    90   44   45 am   BACKBONE|DICT|INTERRES
    91   44  169 1    
    92   45   46 2    
    93   45   47 1    
    94   47   48 1    
    95   47   49 1    
    96   47  170 1    
    97   48  171 1    
    98   48  172 1    
    99   48  173 1    
   100   49   50 am   BACKBONE|DICT|INTERRES
   101   49  174 1    
   102   50   51 2    
   103   50   52 1    
   104   52   53 1    
   105   52   54 1    
   106   52  175 1    
   107   53  176 1    
   108   53  177 1    
   109   53  178 1    
   110   54   55 am   BACKBONE|DICT|INTERRES
   111   54  179 1    
   112   55   56 2    
   113   55   57 1    
   114   57   58 1    
   115   57   59 1    
   116   57  180 1    
   117   58  181 1    
   118   58  182 1    
   119   58  183 1    
   120   59   60 am   BACKBONE|DICT|INTERRES
   121   59  184 1    
   122   60   61 2    
   123   60   62 1    
   124   62   63 1    
   125   62   64 1    
   126   62  185 1    
   127   63  186 1    
   128   63  187 1    
   129   63  188 1    
   130   64   65 am   BACKBONE|DICT|INTERRES
   131   64  189 1    
   132   65   66 2    
   133   67   68 2    
   134   67   69 am   BACKBONE|DICT|INTERRES
   135   69   70 1    
   136   69  190 1    
   137   70   71 1    
   138   70   72 1    
   139   70  191 1    
   140   71  192 1    
   141   71  193 1    
   142   71  194 1    
   143   72   73 2    
   144   72   74 am   BACKBONE|DICT|INTERRES
   145   74   75 1    
   146   74  195 1    
   147   75   76 1    
   148   75   77 1    
   149   75  196 1    
   150   76  197 1    
   151   76  198 1    
   152   76  199 1    
   153   77   78 2    
   154   77   79 am   BACKBONE|DICT|INTERRES
   155   79   80 1    
   156   79  200 1    
   157   80   81 1    
   158   80   82 1    
   159   80  201 1    
   160   81  202 1    
   161   81  203 1    
   162   81  204 1    
   163   82   83 2    
   164   82   84 am   BACKBONE|DICT|INTERRES
   165   84   85 1    
   166   84  205 1    
   167   85   86 1    
   168   85   87 1    
   169   85  206 1    
   170   86  207 1    
   171   86  208 1    
   172   86  209 1    
   173   87   88 2    
   174   87   89 am   BACKBONE|DICT|INTERRES
   175   89   90 1    
   176   89  210 1    
   177   90   91 1    
   178   90   92 1    
   179   90  211 1    
   180   91  212 1    
   181   91  213 1    
   182   91  214 1    
   183   92   93 2    
   184   92   94 am   BACKBONE|DICT|INTERRES
   185   94   95 1    
   186   94  215 1    
   187   95   96 1    
   188   95   97 1    
   189   95  216 1    
   190   96  217 1    
   191   96  218 1    
   192   96  219 1    
   193   97   98 2    
   194   97   99 am   BACKBONE|DICT|INTERRES
   195   99  100 1    
   196   99  220 1    
   197  100  101 1    
   198  100  102 1    
   199  100  221 1    
   200  101  222 1    
   201  101  223 1    
   202  101  224 1    
   203  102  103 2    
   204  102  104 am   BACKBONE|DICT|INTERRES
   205  104  105 1    
   206  104  225 1    
   207  105  106 1    
   208  105  107 1    
   209  105  226 1    
   210  106  227 1    
   211  106  228 1    
   212  106  229 1    
   213  107  108 2    
   214  107  109 am   BACKBONE|DICT|INTERRES
   215  109  110 1    
   216  109  230 1    
   217  110  111 1    
   218  110  112 1    
   219  110  231 1    
   220  111  232 1    
   221  111  233 1    
   222  111  234 1    
   223  112  113 2    
   224  112  114 am   BACKBONE|DICT|INTERRES
   225  114  115 1    
   226  114  235 1    
   227  115  116 1    
   228  115  117 1    
   229  115  236 1    
   230  116  237 1    
   231  116  238 1    
   232  116  239 1    
   233  117  118 2    
   234  117  119 am   BACKBONE|DICT|INTERRES
   235  119  120 1    
   236  119  240 1    
   237  120  121 1    
   238  120  124 1    
   239  120  241 1    
   240  121  122 am   BACKBONE|DICT|INTERRES
   241  121  123 2    
   242  122  242 1    
   243  122  243 1    
   244  124  125 1    
   245  124  244 1    
   246  124  245 1    
   247  125  126 1    
   248  126  246 1    
   249  126  247 1    
@<TRIPOS>SUBSTRUCTURE
     1 UNK         1 GROUP             0       ****    0 ROOT    
