@<TRIPOS>MOLECULE
3R540
247   249    1
SMALL
USER_CHARGES


@<TRIPOS>ATOM
      1 CA          7.6584  -11.0410  -46.0349 C.3       0 UNK        -0.1800 
      2 C           6.3141  -11.7479  -45.9523 C.2       0 UNK         0.5000 
      3 O           5.5516  -11.5022  -45.0191 O.2       0 UNK        -0.5000 
      4 N           6.0084  -12.6069  -46.9340 N.am      1 UNK        -0.5000 
      5 CA          4.7865  -13.4225  -47.0249 C.3       1 UNK         0.1400 
      6 C6          4.8734  -14.3908  -48.2318 C.3       23 UNK        -0.0398 
      7 S7          3.7487  -15.8213  -48.1035 S.3       23 UNK        -0.2404 
      8 C8          3.0567  -15.8582  -49.7861 C.3       23 UNK        -0.0205 
      9 C9          1.9923  -16.9345  -49.9078 C.ar      23 UNK        -0.0193 
     10 C10         0.6432  -16.6060  -49.7529 C.ar      23 UNK        -0.1150 
     11 C11        -0.3408  -17.5970  -49.8030 C.ar      23 UNK        -0.0193 
     12 C12         0.0400  -18.9266  -50.0072 C.ar      23 UNK        -0.1150 
     13 C13         1.3823  -19.2645  -50.2005 C.ar      23 UNK        -0.0193 
     14 C14         2.3550  -18.2616  -50.1546 C.ar      23 UNK        -0.1150 
     15 C15         1.7730  -20.7175  -50.4427 C.3       23 UNK        -0.0205 
     16 S16         2.8861  -21.3907  -49.1633 S.3       23 UNK        -0.2404 
     17 C17         1.9920  -21.0133  -47.6176 C.3       23 UNK        -0.0398 
     18 CA          1.1939  -22.2001  -47.0331 C.3       11 UNK         0.1400 
     19 N           0.8320  -21.9463  -45.6390 N.am      11 UNK        -0.5000 
     20 C           0.2755  -22.8304  -44.8022 C.2       10 UNK         0.5000 
     21 O           0.0508  -24.0039  -45.0961 O.2       10 UNK        -0.5000 
     22 CA         -0.1488  -22.2938  -43.4224 C.3       10 UNK         0.1400 
     23 CB          1.0494  -22.2328  -42.4637 C.3       10 UNK        -0.1800 
     24 N          -0.7822  -20.9755  -43.5080 N.am      10 UNK        -0.5000 
     25 C          -1.9420  -20.7403  -44.1388 C.2       9 UNK         0.5000 
     26 O          -2.6231  -21.6233  -44.6605 O.2       9 UNK        -0.5000 
     27 CA         -2.3992  -19.2738  -44.2431 C.3       9 UNK         0.1400 
     28 CB         -3.0649  -18.8158  -42.9372 C.3       9 UNK        -0.1800 
     29 N          -1.3090  -18.3606  -44.5907 N.am      9 UNK        -0.5000 
     30 C          -0.6340  -18.3882  -45.7491 C.2       8 UNK         0.5000 
     31 O          -0.8912  -19.1674  -46.6651 O.2       8 UNK        -0.5000 
     32 CA          0.5623  -17.4263  -45.8865 C.3       8 UNK         0.1400 
     33 CB          0.0917  -16.0061  -46.2270 C.3       8 UNK        -0.1800 
     34 N           1.3925  -17.3889  -44.6821 N.am      8 UNK        -0.5000 
     35 C           2.0395  -18.4452  -44.1701 C.2       7 UNK         0.5000 
     36 O           2.0538  -19.5588  -44.6905 O.2       7 UNK        -0.5000 
     37 CA          2.7338  -18.2419  -42.8150 C.3       7 UNK         0.1400 
     38 CB          4.1140  -17.5915  -42.9931 C.3       7 UNK        -0.1800 
     39 N           1.9095  -17.4424  -41.9090 N.am      7 UNK        -0.5000 
     40 C           0.7790  -17.8837  -41.3380 C.2       6 UNK         0.5000 
     41 O           0.3420  -19.0258  -41.4831 O.2       6 UNK        -0.5000 
     42 CA         -0.0155  -16.8676  -40.4960 C.3       6 UNK         0.1400 
     43 CB          0.5461  -16.7904  -39.0686 C.3       6 UNK        -0.1800 
     44 N          -0.0238  -15.5284  -41.0873 N.am      6 UNK        -0.5000 
     45 C          -0.6350  -15.2148  -42.2385 C.2       5 UNK         0.5000 
     46 O          -1.2989  -16.0152  -42.8951 O.2       5 UNK        -0.5000 
     47 CA         -0.4356  -13.7819  -42.7697 C.3       5 UNK         0.1400 
     48 CB         -1.5224  -12.8469  -42.2201 C.3       5 UNK        -0.1800 
     49 N           0.8821  -13.2139  -42.4744 N.am      5 UNK        -0.5000 
     50 C           2.0582  -13.7391  -42.8402 C.2       4 UNK         0.5000 
     51 O           2.1653  -14.8037  -43.4512 O.2       4 UNK        -0.5000 
     52 CA          3.3116  -12.9372  -42.4390 C.3       4 UNK         0.1400 
     53 CB          4.6128  -13.7316  -42.6475 C.3       4 UNK        -0.1800 
     54 N           3.4050  -11.6802  -43.1777 N.am      4 UNK        -0.5000 
     55 C           2.6876  -10.5736  -42.9428 C.2       3 UNK         0.5000 
     56 O           1.8455  -10.4844  -42.0476 O.2       3 UNK        -0.5000 
     57 CA          2.9453   -9.3742  -43.8689 C.3       3 UNK         0.1400 
     58 CB          4.2021   -8.6084  -43.4262 C.3       3 UNK        -0.1800 
     59 N           3.1063   -9.8045  -45.2577 N.am      3 UNK        -0.5000 
     60 C           2.1170   -9.8443  -46.1610 C.2       2 UNK         0.5000 
     61 O           0.9656   -9.4731  -45.9297 O.2       2 UNK        -0.5000 
     62 CA          2.4643  -10.3822  -47.5651 C.3       2 UNK         0.1400 
     63 CB          2.8236   -9.2247  -48.5092 C.3       2 UNK        -0.1800 
     64 N           3.5613  -11.3517  -47.5639 N.am      2 UNK        -0.5000 
     65 C           3.4838  -12.5850  -47.0432 C.2       1 UNK         0.5000 
     66 O           2.4527  -13.0458  -46.5555 O.2       1 UNK        -0.5000 
     67 C          -0.0432  -22.5554  -47.8853 C.2       11 UNK         0.5000 
     68 O          -0.0026  -23.5407  -48.6204 O.2       11 UNK        -0.5000 
     69 N          -1.1361  -21.7911  -47.7374 N.am      12 UNK        -0.5000 
     70 CA         -2.4252  -22.0467  -48.3845 C.3       12 UNK         0.1400 
     71 CB         -3.4022  -20.9051  -48.0720 C.3       12 UNK        -0.1800 
     72 C          -3.0420  -23.3974  -47.9844 C.2       12 UNK         0.5000 
     73 O          -3.5508  -24.1081  -48.8516 O.2       12 UNK        -0.5000 
     74 N          -2.9595  -23.7396  -46.6913 N.am      13 UNK        -0.5000 
     75 CA         -3.4002  -25.0230  -46.1466 C.3       13 UNK         0.1400 
     76 CB         -3.3733  -24.9733  -44.6116 C.3       13 UNK        -0.1800 
     77 C          -2.5690  -26.2046  -46.6791 C.2       13 UNK         0.5000 
     78 O          -3.1466  -27.2206  -47.0655 O.2       13 UNK        -0.5000 
     79 N          -1.2396  -26.0372  -46.7322 N.am      14 UNK        -0.5000 
     80 CA         -0.2953  -27.0132  -47.2825 C.3       14 UNK         0.1400 
     81 CB          1.1415  -26.5756  -46.9596 C.3       14 UNK        -0.1800 
     82 C          -0.4722  -27.2324  -48.7973 C.2       14 UNK         0.5000 
     83 O          -0.3952  -28.3708  -49.2608 O.2       14 UNK        -0.5000 
     84 N          -0.7371  -26.1452  -49.5340 N.am      15 UNK        -0.5000 
     85 CA         -1.0429  -26.1508  -50.9662 C.3       15 UNK         0.1400 
     86 CB         -0.8954  -24.7192  -51.5080 C.3       15 UNK        -0.1800 
     87 C          -2.4472  -26.6980  -51.2951 C.2       15 UNK         0.5000 
     88 O          -2.7045  -27.0211  -52.4554 O.2       15 UNK        -0.5000 
     89 N          -3.3251  -26.7687  -50.2828 N.am      16 UNK        -0.5000 
     90 CA         -4.7468  -27.1185  -50.3487 C.3       16 UNK         0.1400 
     91 CB         -4.9400  -28.5904  -50.7678 C.3       16 UNK        -0.1800 
     92 C          -5.5451  -26.1232  -51.2159 C.2       16 UNK         0.5000 
     93 O          -6.3874  -26.5258  -52.0220 O.2       16 UNK        -0.5000 
     94 N          -5.2567  -24.8273  -51.0362 N.am      17 UNK        -0.5000 
     95 CA         -5.8486  -23.7058  -51.7644 C.3       17 UNK         0.1400 
     96 CB         -4.8933  -22.5035  -51.6819 C.3       17 UNK        -0.1800 
     97 C          -7.2678  -23.3738  -51.2593 C.2       17 UNK         0.5000 
     98 O          -7.5087  -22.2849  -50.7353 O.2       17 UNK        -0.5000 
     99 N          -8.1860  -24.3340  -51.4195 N.am      18 UNK        -0.5000 
    100 CA        -9.6037  -24.2202  -51.0677 C.3       18 UNK         0.1400 
    101 CB       -10.2156  -25.6292  -51.0331 C.3       18 UNK        -0.1800 
    102 C        -10.4001  -23.3069  -52.0232 C.2       18 UNK         0.5000 
    103 O        -11.4832  -22.8466  -51.6593 O.2       18 UNK        -0.5000 
    104 N         -9.8550  -23.0611  -53.2187 N.am      19 UNK        -0.5000 
    105 CA       -10.3823  -22.1713  -54.2446 C.3       19 UNK         0.1400 
    106 CB       -11.3549  -22.9487  -55.1496 C.3       19 UNK        -0.1800 
    107 C         -9.2035  -21.5981  -55.0466 C.2       19 UNK         0.5000 
    108 O         -8.0932  -22.1339  -54.9675 O.2       19 UNK        -0.5000 
    109 N         -9.4809  -20.5327  -55.8112 N.am      20 UNK        -0.5000 
    110 CA        -8.5425  -19.7604  -56.6359 C.3       20 UNK         0.1400 
    111 CB        -7.9480  -20.6380  -57.7611 C.3       20 UNK        -0.1800 
    112 C         -7.4695  -19.0281  -55.7972 C.2       20 UNK         0.5000 
    113 O         -7.6609  -18.8180  -54.5962 O.2       20 UNK        -0.5000 
    114 N         -6.3797  -18.6047  -56.4504 N.am      21 UNK        -0.5000 
    115 CA        -5.2335  -17.9543  -55.8163 C.3       21 UNK         0.1400 
    116 CB        -4.3648  -17.2975  -56.9004 C.3       21 UNK        -0.1800 
    117 C         -4.4080  -18.9618  -54.9961 C.2       21 UNK         0.5000 
    118 O         -4.1934  -20.0888  -55.4500 O.2       21 UNK        -0.5000 
    119 N         -3.9560  -18.5340  -53.8139 N.am      22 UNK        -0.5000 
    120 CA        -3.1067  -19.3239  -52.9141 C.3       22 UNK         0.1400 
    121 C         -1.6285  -19.4224  -53.3888 C.2       22 UNK         0.5000 
    122 N         -0.9294  -20.4927  -53.0328 N.am      22 UNK        -0.7600 
    123 O         -1.1060  -18.5404  -54.0674 O.2       22 UNK        -0.5000 
    124 C124       -3.2449  -18.8415  -51.4472 C.3       23 UNK        -0.0398 
    125 S125       -2.7319  -17.1083  -51.1575 S.3       23 UNK        -0.2404 
    126 C126       -1.8030  -17.2262  -49.5939 C.3       23 UNK        -0.0205 
    127 H127        8.2574  -11.2745  -45.1548 H         1 UNK         0.0600 
    128 H128        7.5117   -9.9616  -46.0720 H         1 UNK         0.0600 
    129 H129        8.2209  -11.3398  -46.9196 H         1 UNK         0.0600 
    130 H130        6.6795  -12.7474  -47.6759 H         1 UNK         0.3000 
    131 H131        4.7571  -14.0241  -46.1142 H         1 UNK         0.0600 
    132 H132        4.7076  -13.8552  -49.1682 H         1 UNK         0.0800 
    133 H133        5.8804  -14.8043  -48.3033 H         1 UNK         0.0800 
    134 H134        2.6333  -14.8821  -50.0289 H         1 UNK         0.0800 
    135 H135        3.8556  -16.0410  -50.5063 H         1 UNK         0.0800 
    136 H136        0.3616  -15.5786  -49.5695 H         1 UNK         0.1150 
    137 H137       -0.7043  -19.7068  -50.0102 H         1 UNK         0.1150 
    138 H138        3.3971  -18.5198  -50.2806 H         1 UNK         0.1150 
    139 H139        0.8876  -21.3517  -50.5065 H         1 UNK         0.0800 
    140 H140        2.2681  -20.7915  -51.4116 H         1 UNK         0.0800 
    141 H141        1.3589  -20.1344  -47.7294 H         1 UNK         0.0800 
    142 H142        2.7636  -20.7184  -46.9062 H         1 UNK         0.0800 
    143 H143        1.8478  -23.0746  -47.0301 H         1 UNK         0.0600 
    144 H144        1.0336  -21.0127  -45.2893 H         1 UNK         0.3000 
    145 H145       -0.8801  -22.9899  -43.0065 H         1 UNK         0.0600 
    146 H146        0.7403  -21.9167  -41.4672 H         1 UNK         0.0600 
    147 H147        1.5193  -23.2120  -42.3641 H         1 UNK         0.0600 
    148 H148        1.8118  -21.5363  -42.8128 H         1 UNK         0.0600 
    149 H149       -0.2979  -20.2039  -43.0618 H         1 UNK         0.3000 
    150 H150       -3.1443  -19.2168  -45.0391 H         1 UNK         0.0600 
    151 H151       -3.8874  -19.4782  -42.6644 H         1 UNK         0.0600 
    152 H152       -3.4761  -17.8112  -43.0367 H         1 UNK         0.0600 
    153 H153       -2.3595  -18.8071  -42.1060 H         1 UNK         0.0600 
    154 H154       -1.0812  -17.6444  -43.9070 H         1 UNK         0.3000 
    155 H155        1.1849  -17.7829  -46.7100 H         1 UNK         0.0600 
    156 H156       -0.5209  -15.5817  -45.4334 H         1 UNK         0.0600 
    157 H157        0.9392  -15.3404  -46.3910 H         1 UNK         0.0600 
    158 H158       -0.5078  -16.0002  -47.1358 H         1 UNK         0.0600 
    159 H159        1.4785  -16.4942  -44.2089 H         1 UNK         0.3000 
    160 H160        2.8824  -19.2243  -42.3617 H         1 UNK         0.0600 
    161 H161        4.0502  -16.6332  -43.5080 H         1 UNK         0.0600 
    162 H162        4.7678  -18.2326  -43.5855 H         1 UNK         0.0600 
    163 H163        4.6024  -17.4274  -42.0326 H         1 UNK         0.0600 
    164 H164        2.1584  -16.4686  -41.8124 H         1 UNK         0.3000 
    165 H165       -1.0477  -17.2195  -40.4376 H         1 UNK         0.0600 
    166 H166       -0.0569  -16.1322  -38.4429 H         1 UNK         0.0600 
    167 H167        0.5475  -17.7740  -38.5968 H         1 UNK         0.0600 
    168 H168        1.5716  -16.4191  -39.0570 H         1 UNK         0.0600 
    169 H169        0.4986  -14.8099  -40.6082 H         1 UNK         0.3000 
    170 H170       -0.5359  -13.8165  -43.8557 H         1 UNK         0.0600 
    171 H171       -2.5186  -13.2290  -42.4477 H         1 UNK         0.0600 
    172 H172       -1.4506  -12.7390  -41.1371 H         1 UNK         0.0600 
    173 H173       -1.4477  -11.8530  -42.6622 H         1 UNK         0.0600 
    174 H174        0.8986  -12.3038  -42.0265 H         1 UNK         0.3000 
    175 H175        3.2310  -12.7112  -41.3737 H         1 UNK         0.0600 
    176 H176        4.7552  -14.0063  -43.6929 H         1 UNK         0.0600 
    177 H177        5.4821  -13.1529  -42.3348 H         1 UNK         0.0600 
    178 H178        4.6072  -14.6507  -42.0610 H         1 UNK         0.0600 
    179 H179        4.0983  -11.6561  -43.9218 H         1 UNK         0.3000 
    180 H180        2.0942   -8.6951  -43.7839 H         1 UNK         0.0600 
    181 H181        5.0974   -9.2287  -43.4833 H         1 UNK         0.0600 
    182 H182        4.1060   -8.2647  -42.3955 H         1 UNK         0.0600 
    183 H183        4.3651   -7.7284  -44.0485 H         1 UNK         0.0600 
    184 H184        4.0106  -10.1874  -45.5056 H         1 UNK         0.3000 
    185 H185        1.5734  -10.8776  -47.9572 H         1 UNK         0.0600 
    186 H186        2.0150   -8.4940  -48.5565 H         1 UNK         0.0600 
    187 H187        3.7211   -8.6999  -48.1794 H         1 UNK         0.0600 
    188 H188        2.9962   -9.5821  -49.5246 H         1 UNK         0.0600 
    189 H189        4.4464  -11.0403  -47.9362 H         1 UNK         0.3000 
    190 H190       -1.0795  -20.9601  -47.1525 H         1 UNK         0.3000 
    191 H191       -2.2548  -22.0651  -49.4627 H         1 UNK         0.0600 
    192 H192       -3.6071  -20.8281  -47.0047 H         1 UNK         0.0600 
    193 H193       -4.3574  -21.0519  -48.5768 H         1 UNK         0.0600 
    194 H194       -3.0049  -19.9487  -48.3998 H         1 UNK         0.0600 
    195 H195       -2.5778  -23.0682  -46.0318 H         1 UNK         0.3000 
    196 H196       -4.4348  -25.1784  -46.4597 H         1 UNK         0.0600 
    197 H197       -3.7306  -25.9112  -44.1847 H         1 UNK         0.0600 
    198 H198       -4.0147  -24.1774  -44.2327 H         1 UNK         0.0600 
    199 H199       -2.3676  -24.8007  -44.2289 H         1 UNK         0.0600 
    200 H200       -0.8390  -25.1855  -46.3483 H         1 UNK         0.3000 
    201 H201       -0.4776  -27.9687  -46.7865 H         1 UNK         0.0600 
    202 H202        1.2956  -26.4936  -45.8835 H         1 UNK         0.0600 
    203 H203        1.3781  -25.6090  -47.4050 H         1 UNK         0.0600 
    204 H204        1.8650  -27.2985  -47.3382 H         1 UNK         0.0600 
    205 H205       -0.6984  -25.2325  -49.0859 H         1 UNK         0.3000 
    206 H206       -0.3139  -26.7868  -51.4722 H         1 UNK         0.0600 
    207 H207        0.1109  -24.3349  -51.3401 H         1 UNK         0.0600 
    208 H208       -1.0817  -24.6836  -52.5820 H         1 UNK         0.0600 
    209 H209       -1.5988  -24.0367  -51.0295 H         1 UNK         0.0600 
    210 H210       -3.0057  -26.4488  -49.3780 H         1 UNK         0.3000 
    211 H211       -5.1313  -27.0131  -49.3332 H         1 UNK         0.0600 
    212 H212       -4.6316  -28.7652  -51.7988 H         1 UNK         0.0600 
    213 H213       -5.9873  -28.8836  -50.6870 H         1 UNK         0.0600 
    214 H214       -4.3655  -29.2596  -50.1272 H         1 UNK         0.0600 
    215 H215       -4.5863  -24.5846  -50.3092 H         1 UNK         0.3000 
    216 H216       -5.9375  -23.9810  -52.8176 H         1 UNK         0.0600 
    217 H217       -4.7395  -22.1819  -50.6524 H         1 UNK         0.0600 
    218 H218       -5.2961  -21.6552  -52.2367 H         1 UNK         0.0600 
    219 H219       -3.9195  -22.7440  -52.1086 H         1 UNK         0.0600 
    220 H220       -7.8773  -25.2168  -51.8154 H         1 UNK         0.3000 
    221 H221       -9.6761  -23.7903  -50.0665 H         1 UNK         0.0600 
    222 H222       -9.7018  -26.2649  -50.3116 H         1 UNK         0.0600 
    223 H223      -10.1602  -26.1150  -52.0081 H         1 UNK         0.0600 
    224 H224      -11.2665  -25.5929  -50.7429 H         1 UNK         0.0600 
    225 H225       -8.9337  -23.4257  -53.4244 H         1 UNK         0.3000 
    226 H226      -10.9062  -21.3386  -53.7704 H         1 UNK         0.0600 
    227 H227      -12.1919  -23.3493  -54.5775 H         1 UNK         0.0600 
    228 H228      -11.7723  -22.3056  -55.9251 H         1 UNK         0.0600 
    229 H229      -10.8588  -23.7837  -55.6458 H         1 UNK         0.0600 
    230 H230      -10.4205  -20.1626  -55.7803 H         1 UNK         0.3000 
    231 H231       -9.1383  -18.9789  -57.1094 H         1 UNK         0.0600 
    232 H232       -7.2142  -21.3482  -57.3783 H         1 UNK         0.0600 
    233 H233       -7.4537  -20.0315  -58.5204 H         1 UNK         0.0600 
    234 H234       -8.7272  -21.2062  -58.2694 H         1 UNK         0.0600 
    235 H235       -6.2786  -18.8365  -57.4273 H         1 UNK         0.3000 
    236 H236       -5.6042  -17.1708  -55.1516 H         1 UNK         0.0600 
    237 H237       -3.5086  -16.7874  -56.4569 H         1 UNK         0.0600 
    238 H238       -3.9778  -18.0329  -57.6070 H         1 UNK         0.0600 
    239 H239       -4.9299  -16.5544  -57.4634 H         1 UNK         0.0600 
    240 H240       -4.1311  -17.5824  -53.5256 H         1 UNK         0.3000 
    241 H241       -3.4938  -20.3427  -52.9413 H         1 UNK         0.0600 
    242 H242        0.0274  -20.5625  -53.3402 H         1 UNK         0.3800 
    243 H243       -1.3387  -21.2495  -52.5110 H         1 UNK         0.3800 
    244 H244       -2.7056  -19.5143  -50.7848 H         1 UNK         0.0800 
    245 H245       -4.2883  -18.9272  -51.1404 H         1 UNK         0.0800 
    246 H246       -2.2795  -17.9323  -48.9168 H         1 UNK         0.0800 
    247 H247       -1.8698  -16.2580  -49.0965 H         1 UNK         0.0800 
@<TRIPOS>BOND
     1    1    2 1    
     2    1  127 1    
     3    1  128 1    
     4    1  129 1    
     5    2    3 2    
     6    2    4 am   BACKBONE|DICT|INTERRES
     7    4    5 1    
     8    4  130 1    
     9    5    6 1    
    10    5   65 1    
    11    5  131 1    
    12    6    7 1    
    13    6  132 1    
    14    6  133 1    
    15    7    8 1    
    16    8    9 1    
    17    8  134 1    
    18    8  135 1    
    19    9   10 ar   
    20    9   14 ar   
    21   10   11 ar   
    22   10  136 1    
    23   11   12 ar   
    24   11  126 1    
    25   12   13 ar   
    26   12  137 1    
    27   13   14 ar   
    28   13   15 1    
    29   14  138 1    
    30   15   16 1    
    31   15  139 1    
    32   15  140 1    
    33   16   17 1    
    34   17   18 1    
    35   17  141 1    
    36   17  142 1    
    37   18   19 1    
    38   18   67 1    
    39   18  143 1    
    40   19   20 am   BACKBONE|DICT|INTERRES
    41   19  144 1    
    42   20   21 2    
    43   20   22 1    
    44   22   23 1    
    45   22   24 1    
    46   22  145 1    
    47   23  146 1    
    48   23  147 1    
    49   23  148 1    
    50   24   25 am   BACKBONE|DICT|INTERRES
    51   24  149 1    
    52   25   26 2    
    53   25   27 1    
    54   27   28 1    
    55   27   29 1    
    56   27  150 1    
    57   28  151 1    
    58   28  152 1    
    59   28  153 1    
    60   29   30 am   BACKBONE|DICT|INTERRES
    61   29  154 1    
    62   30   31 2    
    63   30   32 1    
    64   32   33 1    
    65   32   34 1    
    66   32  155 1    
    67   33  156 1    
    68   33  157 1    
    69   33  158 1    
    70   34   35 am   BACKBONE|DICT|INTERRES
    71   34  159 1    
    72   35   36 2    
    73   35   37 1    
    74   37   38 1    
    75   37   39 1    
    76   37  160 1    
    77   38  161 1    
    78   38  162 1    
    79   38  163 1    
    80   39   40 am   BACKBONE|DICT|INTERRES
    81   39  164 1    
    82   40   41 2    
    83   40   42 1    
    84   42   43 1    
    85   42   44 1    
    86   42  165 1    
    87   43  166 1    
    88   43  167 1    
    89   43  168 1    
    90   44   45 am   BACKBONE|DICT|INTERRES
    91   44  169 1    
    92   45   46 2    
    93   45   47 1    
    94   47   48 1    
    95   47   49 1    
    96   47  170 1    
    97   48  171 1    
    98   48  172 1    
    99   48  173 1    
   100   49   50 am   BACKBONE|DICT|INTERRES
   101   49  174 1    
   102   50   51 2    
   103   50   52 1    
   104   52   53 1    
   105   52   54 1    
   106   52  175 1    
   107   53  176 1    
   108   53  177 1    
   109   53  178 1    
   110   54   55 am   BACKBONE|DICT|INTERRES
   111   54  179 1    
   112   55   56 2    
   113   55   57 1    
   114   57   58 1    
   115   57   59 1    
   116   57  180 1    
   117   58  181 1    
   118   58  182 1    
   119   58  183 1    
   120   59   60 am   BACKBONE|DICT|INTERRES
   121   59  184 1    
   122   60   61 2    
   123   60   62 1    
   124   62   63 1    
   125   62   64 1    
   126   62  185 1    
   127   63  186 1    
   128   63  187 1    
   129   63  188 1    
   130   64   65 am   BACKBONE|DICT|INTERRES
   131   64  189 1    
   132   65   66 2    
   133   67   68 2    
   134   67   69 am   BACKBONE|DICT|INTERRES
   135   69   70 1    
   136   69  190 1    
   137   70   71 1    
   138   70   72 1    
   139   70  191 1    
   140   71  192 1    
   141   71  193 1    
   142   71  194 1    
   143   72   73 2    
   144   72   74 am   BACKBONE|DICT|INTERRES
   145   74   75 1    
   146   74  195 1    
   147   75   76 1    
   148   75   77 1    
   149   75  196 1    
   150   76  197 1    
   151   76  198 1    
   152   76  199 1    
   153   77   78 2    
   154   77   79 am   BACKBONE|DICT|INTERRES
   155   79   80 1    
   156   79  200 1    
   157   80   81 1    
   158   80   82 1    
   159   80  201 1    
   160   81  202 1    
   161   81  203 1    
   162   81  204 1    
   163   82   83 2    
   164   82   84 am   BACKBONE|DICT|INTERRES
   165   84   85 1    
   166   84  205 1    
   167   85   86 1    
   168   85   87 1    
   169   85  206 1    
   170   86  207 1    
   171   86  208 1    
   172   86  209 1    
   173   87   88 2    
   174   87   89 am   BACKBONE|DICT|INTERRES
   175   89   90 1    
   176   89  210 1    
   177   90   91 1    
   178   90   92 1    
   179   90  211 1    
   180   91  212 1    
   181   91  213 1    
   182   91  214 1    
   183   92   93 2    
   184   92   94 am   BACKBONE|DICT|INTERRES
   185   94   95 1    
   186   94  215 1    
   187   95   96 1    
   188   95   97 1    
   189   95  216 1    
   190   96  217 1    
   191   96  218 1    
   192   96  219 1    
   193   97   98 2    
   194   97   99 am   BACKBONE|DICT|INTERRES
   195   99  100 1    
   196   99  220 1    
   197  100  101 1    
   198  100  102 1    
   199  100  221 1    
   200  101  222 1    
   201  101  223 1    
   202  101  224 1    
   203  102  103 2    
   204  102  104 am   BACKBONE|DICT|INTERRES
   205  104  105 1    
   206  104  225 1    
   207  105  106 1    
   208  105  107 1    
   209  105  226 1    
   210  106  227 1    
   211  106  228 1    
   212  106  229 1    
   213  107  108 2    
   214  107  109 am   BACKBONE|DICT|INTERRES
   215  109  110 1    
   216  109  230 1    
   217  110  111 1    
   218  110  112 1    
   219  110  231 1    
   220  111  232 1    
   221  111  233 1    
   222  111  234 1    
   223  112  113 2    
   224  112  114 am   BACKBONE|DICT|INTERRES
   225  114  115 1    
   226  114  235 1    
   227  115  116 1    
   228  115  117 1    
   229  115  236 1    
   230  116  237 1    
   231  116  238 1    
   232  116  239 1    
   233  117  118 2    
   234  117  119 am   BACKBONE|DICT|INTERRES
   235  119  120 1    
   236  119  240 1    
   237  120  121 1    
   238  120  124 1    
   239  120  241 1    
   240  121  122 am   BACKBONE|DICT|INTERRES
   241  121  123 2    
   242  122  242 1    
   243  122  243 1    
   244  124  125 1    
   245  124  244 1    
   246  124  245 1    
   247  125  126 1    
   248  126  246 1    
   249  126  247 1    
@<TRIPOS>SUBSTRUCTURE
     1 UNK         1 GROUP             0       ****    0 ROOT    
