@<TRIPOS>MOLECULE
3R540
247   249    1
SMALL
USER_CHARGES


@<TRIPOS>ATOM
      1 CA          8.4304  -10.3540  -46.4021 C.3       0 UNK        -0.1800 
      2 C           7.0720  -11.0309  -46.2831 C.2       0 UNK         0.5000 
      3 O           6.2999  -10.7002  -45.3828 O.2       0 UNK        -0.5000 
      4 N           6.7822  -11.9810  -47.1807 N.am      1 UNK        -0.5000 
      5 CA          5.5023  -12.6884  -47.2657 C.3       1 UNK         0.1400 
      6 C6          5.6323  -13.9696  -48.1263 C.3       23 UNK        -0.0398 
      7 S7          4.1975  -15.1006  -48.0133 S.3       23 UNK        -0.2404 
      8 C8          3.4760  -14.8666  -49.6675 C.3       23 UNK        -0.0205 
      9 C9          2.3881  -15.8819  -49.9841 C.ar      23 UNK        -0.0193 
     10 C10         1.0507  -15.4859  -50.0745 C.ar      23 UNK        -0.1150 
     11 C11         0.0620  -16.3959  -50.4643 C.ar      23 UNK        -0.0193 
     12 C12         0.4219  -17.7183  -50.7519 C.ar      23 UNK        -0.1150 
     13 C13         1.7563  -18.1304  -50.6511 C.ar      23 UNK        -0.0193 
     14 C14         2.7312  -17.2072  -50.2633 C.ar      23 UNK        -0.1150 
     15 C15         2.1677  -19.5509  -51.0192 C.3       23 UNK        -0.0205 
     16 S16         2.2638  -20.6518  -49.5702 S.3       23 UNK        -0.2404 
     17 C17         0.4967  -20.9482  -49.2685 C.3       23 UNK        -0.0398 
     18 CA          0.2021  -22.1753  -48.3702 C.3       11 UNK         0.1400 
     19 N           0.6824  -22.0290  -46.9882 N.am      11 UNK        -0.5000 
     20 C           0.5745  -22.9740  -46.0384 C.2       10 UNK         0.5000 
     21 O           0.1388  -24.1062  -46.2470 O.2       10 UNK        -0.5000 
     22 CA          0.9500  -22.5819  -44.5971 C.3       10 UNK         0.1400 
     23 CB          2.4653  -22.6744  -44.3647 C.3       10 UNK        -0.1800 
     24 N           0.4581  -21.2533  -44.2319 N.am      10 UNK        -0.5000 
     25 C          -0.8406  -20.9328  -44.1300 C.2       9 UNK         0.5000 
     26 O          -1.7540  -21.7464  -44.2624 O.2       9 UNK        -0.5000 
     27 CA         -1.1838  -19.4497  -43.8951 C.3       9 UNK         0.1400 
     28 CB         -1.1090  -19.0939  -42.4035 C.3       9 UNK        -0.1800 
     29 N          -0.3236  -18.5509  -44.6631 N.am      9 UNK        -0.5000 
     30 C          -0.2754  -18.5123  -46.0020 C.2       8 UNK         0.5000 
     31 O          -1.0145  -19.1756  -46.7293 O.2       8 UNK        -0.5000 
     32 CA          0.8207  -17.6343  -46.6281 C.3       8 UNK         0.1400 
     33 CB          0.3715  -16.1758  -46.7044 C.3       8 UNK        -0.1800 
     34 N           2.0813  -17.7035  -45.8922 N.am      8 UNK        -0.5000 
     35 C           2.8545  -18.7935  -45.8181 C.2       7 UNK         0.5000 
     36 O           2.5924  -19.8543  -46.3802 O.2       7 UNK        -0.5000 
     37 CA          4.0943  -18.6985  -44.9107 C.3       7 UNK         0.1400 
     38 CB          5.2446  -17.9714  -45.6226 C.3       7 UNK        -0.1800 
     39 N           3.8023  -18.0253  -43.6444 N.am      7 UNK        -0.5000 
     40 C           2.9872  -18.5138  -42.6985 C.2       6 UNK         0.5000 
     41 O           2.4476  -19.6174  -42.7672 O.2       6 UNK        -0.5000 
     42 CA          2.6895  -17.5953  -41.4972 C.3       6 UNK         0.1400 
     43 CB          3.7361  -17.7968  -40.3915 C.3       6 UNK        -0.1800 
     44 N           2.6286  -16.1748  -41.8568 N.am      6 UNK        -0.5000 
     45 C           1.7297  -15.6422  -42.6956 C.2       5 UNK         0.5000 
     46 O           0.8496  -16.3002  -43.2536 O.2       5 UNK        -0.5000 
     47 CA          1.8994  -14.1436  -43.0057 C.3       5 UNK         0.1400 
     48 CB          3.0529  -13.9408  -44.0038 C.3       5 UNK        -0.1800 
     49 N           0.6812  -13.5333  -43.5464 N.am      5 UNK        -0.5000 
     50 C          -0.4189  -13.2677  -42.8255 C.2       4 UNK         0.5000 
     51 O          -0.5111  -13.5263  -41.6240 O.2       4 UNK        -0.5000 
     52 CA         -1.6034  -12.5593  -43.5208 C.3       4 UNK         0.1400 
     53 CB         -1.8128  -11.1575  -42.9234 C.3       4 UNK        -0.1800 
     54 N          -1.4369  -12.4153  -44.9677 N.am      4 UNK        -0.5000 
     55 C          -1.8780  -13.2842  -45.8865 C.2       3 UNK         0.5000 
     56 O          -2.5277  -14.2927  -45.6106 O.2       3 UNK        -0.5000 
     57 CA         -1.5385  -12.9849  -47.3670 C.3       3 UNK         0.1400 
     58 CB         -2.7714  -12.4357  -48.1006 C.3       3 UNK        -0.1800 
     59 N          -0.4036  -12.0775  -47.6015 N.am      3 UNK        -0.5000 
     60 C           0.8393  -12.2733  -47.1461 C.2       2 UNK         0.5000 
     61 O           1.1340  -13.1781  -46.3637 O.2       2 UNK        -0.5000 
     62 CA          1.9343  -11.2980  -47.5999 C.3       2 UNK         0.1400 
     63 CB          1.7972   -9.9326  -46.9056 C.3       2 UNK        -0.1800 
     64 N           3.1968  -11.9178  -47.2273 N.am      2 UNK        -0.5000 
     65 C           4.3924  -11.7496  -47.7889 C.2       1 UNK         0.5000 
     66 O           4.6282  -10.9398  -48.6891 O.2       1 UNK        -0.5000 
     67 C          -1.3082  -22.4786  -48.4100 C.2       11 UNK         0.5000 
     68 O          -1.7167  -23.4431  -49.0577 O.2       11 UNK        -0.5000 
     69 N          -2.0986  -21.6653  -47.6938 N.am      12 UNK        -0.5000 
     70 CA         -3.5468  -21.8110  -47.5624 C.3       12 UNK         0.1400 
     71 CB         -4.1111  -20.6555  -46.7233 C.3       12 UNK        -0.1800 
     72 C          -3.9516  -23.1684  -46.9643 C.2       12 UNK         0.5000 
     73 O          -4.8228  -23.8324  -47.5222 O.2       12 UNK        -0.5000 
     74 N          -3.2877  -23.5754  -45.8740 N.am      13 UNK        -0.5000 
     75 CA         -3.4990  -24.8586  -45.2049 C.3       13 UNK         0.1400 
     76 CB         -2.6837  -24.9028  -43.9037 C.3       13 UNK        -0.1800 
     77 C          -3.1669  -26.0668  -46.0988 C.2       13 UNK         0.5000 
     78 O          -3.9599  -27.0071  -46.1604 O.2       13 UNK        -0.5000 
     79 N          -2.0206  -26.0115  -46.7919 N.am      14 UNK        -0.5000 
     80 CA         -1.5485  -27.0612  -47.6967 C.3       14 UNK         0.1400 
     81 CB         -0.1022  -26.7611  -48.1186 C.3       14 UNK        -0.1800 
     82 C          -2.4435  -27.2418  -48.9358 C.2       14 UNK         0.5000 
     83 O          -2.6932  -28.3762  -49.3452 O.2       14 UNK        -0.5000 
     84 N          -2.9155  -26.1246  -49.5019 N.am      15 UNK        -0.5000 
     85 CA         -3.7513  -26.0933  -50.7021 C.3       15 UNK         0.1400 
     86 CB         -3.4562  -24.7941  -51.4602 C.3       15 UNK        -0.1800 
     87 C          -5.2603  -26.2031  -50.4147 C.2       15 UNK         0.5000 
     88 O          -6.0450  -26.1433  -51.3624 O.2       15 UNK        -0.5000 
     89 N          -5.6516  -26.2995  -49.1345 N.am      16 UNK        -0.5000 
     90 CA         -7.0333  -26.3027  -48.6308 C.3       16 UNK         0.1400 
     91 CB         -7.7425  -27.6190  -49.0095 C.3       16 UNK        -0.1800 
     92 C          -7.8262  -25.0453  -49.0586 C.2       16 UNK         0.5000 
     93 O          -9.0080  -25.1327  -49.3956 O.2       16 UNK        -0.5000 
     94 N          -7.1235  -23.9041  -49.0712 N.am      17 UNK        -0.5000 
     95 CA         -7.5351  -22.5655  -49.5040 C.3       17 UNK         0.1400 
     96 CB         -8.6456  -22.0174  -48.5854 C.3       17 UNK        -0.1800 
     97 C          -7.8990  -22.4432  -51.0022 C.2       17 UNK         0.5000 
     98 O          -8.4260  -21.4054  -51.4057 O.2       17 UNK        -0.5000 
     99 N          -7.6166  -23.4782  -51.8064 N.am      18 UNK        -0.5000 
    100 CA        -7.9414  -23.5330  -53.2282 C.3       18 UNK         0.1400 
    101 CB        -8.4374  -24.9477  -53.5850 C.3       18 UNK        -0.1800 
    102 C         -6.7359  -23.0838  -54.0698 C.2       18 UNK         0.5000 
    103 O         -6.6334  -21.9016  -54.3991 O.2       18 UNK        -0.5000 
    104 N         -5.8500  -24.0318  -54.4080 N.am      19 UNK        -0.5000 
    105 CA        -4.7751  -23.8951  -55.3997 C.3       19 UNK         0.1400 
    106 CB        -4.0768  -25.2544  -55.5636 C.3       19 UNK        -0.1800 
    107 C         -3.7374  -22.7882  -55.1235 C.2       19 UNK         0.5000 
    108 O         -3.1200  -22.2947  -56.0680 O.2       19 UNK        -0.5000 
    109 N         -3.5666  -22.4109  -53.8501 N.am      20 UNK        -0.5000 
    110 CA        -2.6804  -21.3272  -53.4230 C.3       20 UNK         0.1400 
    111 CB        -2.4058  -21.4596  -51.9161 C.3       20 UNK        -0.1800 
    112 C         -3.2395  -19.9245  -53.7196 C.2       20 UNK         0.5000 
    113 O         -2.4587  -18.9726  -53.7430 O.2       20 UNK        -0.5000 
    114 N         -4.5697  -19.8143  -53.8841 N.am      21 UNK        -0.5000 
    115 CA        -5.3435  -18.5684  -53.9610 C.3       21 UNK         0.1400 
    116 CB        -5.0774  -17.8423  -55.2958 C.3       21 UNK        -0.1800 
    117 C         -5.1084  -17.6762  -52.7212 C.2       21 UNK         0.5000 
    118 O         -4.8773  -16.4722  -52.8484 O.2       21 UNK        -0.5000 
    119 N         -5.1220  -18.3126  -51.5446 N.am      22 UNK        -0.5000 
    120 CA        -4.7436  -17.7322  -50.2539 C.3       22 UNK         0.1400 
    121 C         -5.6398  -18.2760  -49.1120 C.2       22 UNK         0.5000 
    122 N         -5.7182  -17.5724  -47.9917 N.am      22 UNK        -0.7600 
    123 O         -6.2411  -19.3418  -49.2190 O.2       22 UNK        -0.5000 
    124 C124       -3.2301  -17.9541  -49.9634 C.3       23 UNK        -0.0398 
    125 S125       -2.4528  -16.4623  -49.2634 S.3       23 UNK        -0.2404 
    126 C126       -1.3777  -15.9223  -50.6305 C.3       23 UNK        -0.0205 
    127 H127        9.0111  -10.7526  -47.2344 H         1 UNK         0.0600 
    128 H128        9.0041  -10.4999  -45.4868 H         1 UNK         0.0600 
    129 H129        8.3030   -9.2829  -46.5589 H         1 UNK         0.0600 
    130 H130        7.4465  -12.1835  -47.9139 H         1 UNK         0.3000 
    131 H131        5.2396  -12.9973  -46.2509 H         1 UNK         0.0600 
    132 H132        6.5002  -14.5403  -47.7927 H         1 UNK         0.0800 
    133 H133        5.8344  -13.7137  -49.1678 H         1 UNK         0.0800 
    134 H134        3.0877  -13.8501  -49.7466 H         1 UNK         0.0800 
    135 H135        4.2592  -14.9561  -50.4217 H         1 UNK         0.0800 
    136 H136        0.7827  -14.4594  -49.8675 H         1 UNK         0.1150 
    137 H137       -0.3328  -18.4209  -51.0740 H         1 UNK         0.1150 
    138 H138        3.7661  -17.5140  -50.2025 H         1 UNK         0.1150 
    139 H139        1.4837  -19.9666  -51.7606 H         1 UNK         0.0800 
    140 H140        3.1469  -19.5292  -51.4998 H         1 UNK         0.0800 
    141 H141        0.0316  -21.0907  -50.2439 H         1 UNK         0.0800 
    142 H142        0.0617  -20.0391  -48.8553 H         1 UNK         0.0800 
    143 H143        0.7145  -23.0394  -48.7983 H         1 UNK         0.0600 
    144 H144        1.1200  -21.1438  -46.7501 H         1 UNK         0.3000 
    145 H145        0.4720  -23.3006  -43.9283 H         1 UNK         0.0600 
    146 H146        2.8280  -23.6815  -44.5735 H         1 UNK         0.0600 
    147 H147        3.0205  -21.9901  -45.0043 H         1 UNK         0.0600 
    148 H148        2.7197  -22.4449  -43.3298 H         1 UNK         0.0600 
    149 H149        1.1561  -20.5394  -44.0531 H         1 UNK         0.3000 
    150 H150       -2.2104  -19.2883  -44.2301 H         1 UNK         0.0600 
    151 H151       -1.3709  -18.0494  -42.2327 H         1 UNK         0.0600 
    152 H152       -0.1114  -19.2596  -41.9984 H         1 UNK         0.0600 
    153 H153       -1.8026  -19.7041  -41.8239 H         1 UNK         0.0600 
    154 H154        0.2680  -17.9138  -44.1370 H         1 UNK         0.3000 
    155 H155        0.9971  -17.9906  -47.6452 H         1 UNK         0.0600 
    156 H156       -0.5833  -16.0910  -47.2161 H         1 UNK         0.0600 
    157 H157        1.0956  -15.5806  -47.2576 H         1 UNK         0.0600 
    158 H158        0.2481  -15.7293  -45.7186 H         1 UNK         0.0600 
    159 H159        2.3399  -16.8839  -45.3654 H         1 UNK         0.3000 
    160 H160        4.4209  -19.7168  -44.6888 H         1 UNK         0.0600 
    161 H161        5.4517  -18.4220  -46.5943 H         1 UNK         0.0600 
    162 H162        6.1632  -18.0221  -45.0380 H         1 UNK         0.0600 
    163 H163        5.0135  -16.9195  -45.7905 H         1 UNK         0.0600 
    164 H164        4.2105  -17.1134  -43.5047 H         1 UNK         0.3000 
    165 H165        1.7141  -17.8797  -41.0979 H         1 UNK         0.0600 
    166 H166        3.4884  -17.2157  -39.5029 H         1 UNK         0.0600 
    167 H167        3.7873  -18.8437  -40.0893 H         1 UNK         0.0600 
    168 H168        4.7331  -17.5009  -40.7202 H         1 UNK         0.0600 
    169 H169        3.3270  -15.5760  -41.4403 H         1 UNK         0.3000 
    170 H170        2.1523  -13.6275  -42.0772 H         1 UNK         0.0600 
    171 H171        3.1703  -12.8883  -44.2623 H         1 UNK         0.0600 
    172 H172        4.0020  -14.2754  -43.5837 H         1 UNK         0.0600 
    173 H173        2.8914  -14.5000  -44.9263 H         1 UNK         0.0600 
    174 H174        0.6769  -13.3570  -44.5472 H         1 UNK         0.3000 
    175 H175       -2.4980  -13.1496  -43.3121 H         1 UNK         0.0600 
    176 H176       -0.9434  -10.5184  -43.0829 H         1 UNK         0.0600 
    177 H177       -2.6780  -10.6650  -43.3677 H         1 UNK         0.0600 
    178 H178       -1.9892  -11.2098  -41.8483 H         1 UNK         0.0600 
    179 H179       -0.9013  -11.6210  -45.2843 H         1 UNK         0.3000 
    180 H180       -1.2781  -13.9385  -47.8280 H         1 UNK         0.0600 
    181 H181       -2.5841  -12.3386  -49.1701 H         1 UNK         0.0600 
    182 H182       -3.0635  -11.4573  -47.7174 H         1 UNK         0.0600 
    183 H183       -3.6259  -13.1039  -47.9842 H         1 UNK         0.0600 
    184 H184       -0.5802  -11.2949  -48.2149 H         1 UNK         0.3000 
    185 H185        1.8817  -11.1839  -48.6844 H         1 UNK         0.0600 
    186 H186        1.8247  -10.0302  -45.8195 H         1 UNK         0.0600 
    187 H187        2.6022   -9.2588  -47.1997 H         1 UNK         0.0600 
    188 H188        0.8568   -9.4483  -47.1706 H         1 UNK         0.0600 
    189 H189        3.0640  -12.6649  -46.5547 H         1 UNK         0.3000 
    190 H190       -1.6774  -20.8755  -47.2096 H         1 UNK         0.3000 
    191 H191       -3.9739  -21.7437  -48.5651 H         1 UNK         0.0600 
    192 H192       -3.7716  -20.6993  -45.6889 H         1 UNK         0.0600 
    193 H193       -5.2015  -20.6811  -46.7128 H         1 UNK         0.0600 
    194 H194       -3.8114  -19.6889  -47.1263 H         1 UNK         0.0600 
    195 H195       -2.6068  -22.9489  -45.4514 H         1 UNK         0.3000 
    196 H196       -4.5570  -24.9227  -44.9428 H         1 UNK         0.0600 
    197 H197       -2.8329  -25.8477  -43.3797 H         1 UNK         0.0600 
    198 H198       -2.9824  -24.1038  -43.2250 H         1 UNK         0.0600 
    199 H199       -1.6154  -24.7966  -44.0944 H         1 UNK         0.0600 
    200 H200       -1.4078  -25.2092  -46.6708 H         1 UNK         0.3000 
    201 H201       -1.5520  -28.0039  -47.1458 H         1 UNK         0.0600 
    202 H202        0.5610  -26.7281  -47.2540 H         1 UNK         0.0600 
    203 H203       -0.0252  -25.8033  -48.6351 H         1 UNK         0.0600 
    204 H204        0.2785  -27.5306  -48.7913 H         1 UNK         0.0600 
    205 H205       -2.6281  -25.2244  -49.1274 H         1 UNK         0.3000 
    206 H206       -3.4846  -26.9289  -51.3523 H         1 UNK         0.0600 
    207 H207       -4.0033  -24.7636  -52.4002 H         1 UNK         0.0600 
    208 H208       -3.7460  -23.9196  -50.8766 H         1 UNK         0.0600 
    209 H209       -2.3960  -24.7098  -51.6987 H         1 UNK         0.0600 
    210 H210       -4.9298  -26.2886  -48.4259 H         1 UNK         0.3000 
    211 H211       -6.9620  -26.2633  -47.5429 H         1 UNK         0.0600 
    212 H212       -7.8936  -27.7024  -50.0863 H         1 UNK         0.0600 
    213 H213       -8.7223  -27.6859  -48.5354 H         1 UNK         0.0600 
    214 H214       -7.1656  -28.4845  -48.6837 H         1 UNK         0.0600 
    215 H215       -6.1773  -23.9555  -48.6956 H         1 UNK         0.3000 
    216 H216       -6.6546  -21.9386  -49.3633 H         1 UNK         0.0600 
    217 H217       -8.8419  -20.9652  -48.7949 H         1 UNK         0.0600 
    218 H218       -8.3582  -22.0871  -47.5364 H         1 UNK         0.0600 
    219 H219       -9.5832  -22.5582  -48.7158 H         1 UNK         0.0600 
    220 H220       -7.1713  -24.2998  -51.4147 H         1 UNK         0.3000 
    221 H221       -8.7601  -22.8459  -53.4524 H         1 UNK         0.0600 
    222 H222       -7.7120  -25.7224  -53.3386 H         1 UNK         0.0600 
    223 H223       -9.3569  -25.1809  -53.0477 H         1 UNK         0.0600 
    224 H224       -8.6577  -25.0276  -54.6503 H         1 UNK         0.0600 
    225 H225       -6.0085  -24.9654  -54.0560 H         1 UNK         0.3000 
    226 H226       -5.2512  -23.6463  -56.3503 H         1 UNK         0.0600 
    227 H227       -4.7818  -26.0264  -55.8724 H         1 UNK         0.0600 
    228 H228       -3.2987  -25.2055  -56.3267 H         1 UNK         0.0600 
    229 H229       -3.6049  -25.5817  -54.6368 H         1 UNK         0.0600 
    230 H230       -4.1195  -22.8630  -53.1385 H         1 UNK         0.3000 
    231 H231       -1.7296  -21.4193  -53.9524 H         1 UNK         0.0600 
    232 H232       -3.3278  -21.4894  -51.3345 H         1 UNK         0.0600 
    233 H233       -1.8348  -22.3612  -51.6978 H         1 UNK         0.0600 
    234 H234       -1.8220  -20.6145  -51.5509 H         1 UNK         0.0600 
    235 H235       -5.1257  -20.6636  -53.9053 H         1 UNK         0.3000 
    236 H236       -6.3961  -18.8549  -53.9425 H         1 UNK         0.0600 
    237 H237       -4.0492  -17.4865  -55.3674 H         1 UNK         0.0600 
    238 H238       -5.2642  -18.5002  -56.1445 H         1 UNK         0.0600 
    239 H239       -5.7315  -16.9767  -55.4058 H         1 UNK         0.0600 
    240 H240       -5.3964  -19.2843  -51.5089 H         1 UNK         0.3000 
    241 H241       -4.9541  -16.6621  -50.3101 H         1 UNK         0.0600 
    242 H242       -6.2926  -17.9157  -47.2388 H         1 UNK         0.3800 
    243 H243       -5.2055  -16.7122  -47.8740 H         1 UNK         0.3800 
    244 H244       -3.0587  -18.7902  -49.2829 H         1 UNK         0.0800 
    245 H245       -2.6995  -18.2270  -50.8758 H         1 UNK         0.0800 
    246 H246       -1.4082  -14.8324  -50.6691 H         1 UNK         0.0800 
    247 H247       -1.7742  -16.2593  -51.5896 H         1 UNK         0.0800 
@<TRIPOS>BOND
     1    1    2 1    
     2    1  127 1    
     3    1  128 1    
     4    1  129 1    
     5    2    3 2    
     6    2    4 am   BACKBONE|DICT|INTERRES
     7    4    5 1    
     8    4  130 1    
     9    5    6 1    
    10    5   65 1    
    11    5  131 1    
    12    6    7 1    
    13    6  132 1    
    14    6  133 1    
    15    7    8 1    
    16    8    9 1    
    17    8  134 1    
    18    8  135 1    
    19    9   10 ar   
    20    9   14 ar   
    21   10   11 ar   
    22   10  136 1    
    23   11   12 ar   
    24   11  126 1    
    25   12   13 ar   
    26   12  137 1    
    27   13   14 ar   
    28   13   15 1    
    29   14  138 1    
    30   15   16 1    
    31   15  139 1    
    32   15  140 1    
    33   16   17 1    
    34   17   18 1    
    35   17  141 1    
    36   17  142 1    
    37   18   19 1    
    38   18   67 1    
    39   18  143 1    
    40   19   20 am   BACKBONE|DICT|INTERRES
    41   19  144 1    
    42   20   21 2    
    43   20   22 1    
    44   22   23 1    
    45   22   24 1    
    46   22  145 1    
    47   23  146 1    
    48   23  147 1    
    49   23  148 1    
    50   24   25 am   BACKBONE|DICT|INTERRES
    51   24  149 1    
    52   25   26 2    
    53   25   27 1    
    54   27   28 1    
    55   27   29 1    
    56   27  150 1    
    57   28  151 1    
    58   28  152 1    
    59   28  153 1    
    60   29   30 am   BACKBONE|DICT|INTERRES
    61   29  154 1    
    62   30   31 2    
    63   30   32 1    
    64   32   33 1    
    65   32   34 1    
    66   32  155 1    
    67   33  156 1    
    68   33  157 1    
    69   33  158 1    
    70   34   35 am   BACKBONE|DICT|INTERRES
    71   34  159 1    
    72   35   36 2    
    73   35   37 1    
    74   37   38 1    
    75   37   39 1    
    76   37  160 1    
    77   38  161 1    
    78   38  162 1    
    79   38  163 1    
    80   39   40 am   BACKBONE|DICT|INTERRES
    81   39  164 1    
    82   40   41 2    
    83   40   42 1    
    84   42   43 1    
    85   42   44 1    
    86   42  165 1    
    87   43  166 1    
    88   43  167 1    
    89   43  168 1    
    90   44   45 am   BACKBONE|DICT|INTERRES
    91   44  169 1    
    92   45   46 2    
    93   45   47 1    
    94   47   48 1    
    95   47   49 1    
    96   47  170 1    
    97   48  171 1    
    98   48  172 1    
    99   48  173 1    
   100   49   50 am   BACKBONE|DICT|INTERRES
   101   49  174 1    
   102   50   51 2    
   103   50   52 1    
   104   52   53 1    
   105   52   54 1    
   106   52  175 1    
   107   53  176 1    
   108   53  177 1    
   109   53  178 1    
   110   54   55 am   BACKBONE|DICT|INTERRES
   111   54  179 1    
   112   55   56 2    
   113   55   57 1    
   114   57   58 1    
   115   57   59 1    
   116   57  180 1    
   117   58  181 1    
   118   58  182 1    
   119   58  183 1    
   120   59   60 am   BACKBONE|DICT|INTERRES
   121   59  184 1    
   122   60   61 2    
   123   60   62 1    
   124   62   63 1    
   125   62   64 1    
   126   62  185 1    
   127   63  186 1    
   128   63  187 1    
   129   63  188 1    
   130   64   65 am   BACKBONE|DICT|INTERRES
   131   64  189 1    
   132   65   66 2    
   133   67   68 2    
   134   67   69 am   BACKBONE|DICT|INTERRES
   135   69   70 1    
   136   69  190 1    
   137   70   71 1    
   138   70   72 1    
   139   70  191 1    
   140   71  192 1    
   141   71  193 1    
   142   71  194 1    
   143   72   73 2    
   144   72   74 am   BACKBONE|DICT|INTERRES
   145   74   75 1    
   146   74  195 1    
   147   75   76 1    
   148   75   77 1    
   149   75  196 1    
   150   76  197 1    
   151   76  198 1    
   152   76  199 1    
   153   77   78 2    
   154   77   79 am   BACKBONE|DICT|INTERRES
   155   79   80 1    
   156   79  200 1    
   157   80   81 1    
   158   80   82 1    
   159   80  201 1    
   160   81  202 1    
   161   81  203 1    
   162   81  204 1    
   163   82   83 2    
   164   82   84 am   BACKBONE|DICT|INTERRES
   165   84   85 1    
   166   84  205 1    
   167   85   86 1    
   168   85   87 1    
   169   85  206 1    
   170   86  207 1    
   171   86  208 1    
   172   86  209 1    
   173   87   88 2    
   174   87   89 am   BACKBONE|DICT|INTERRES
   175   89   90 1    
   176   89  210 1    
   177   90   91 1    
   178   90   92 1    
   179   90  211 1    
   180   91  212 1    
   181   91  213 1    
   182   91  214 1    
   183   92   93 2    
   184   92   94 am   BACKBONE|DICT|INTERRES
   185   94   95 1    
   186   94  215 1    
   187   95   96 1    
   188   95   97 1    
   189   95  216 1    
   190   96  217 1    
   191   96  218 1    
   192   96  219 1    
   193   97   98 2    
   194   97   99 am   BACKBONE|DICT|INTERRES
   195   99  100 1    
   196   99  220 1    
   197  100  101 1    
   198  100  102 1    
   199  100  221 1    
   200  101  222 1    
   201  101  223 1    
   202  101  224 1    
   203  102  103 2    
   204  102  104 am   BACKBONE|DICT|INTERRES
   205  104  105 1    
   206  104  225 1    
   207  105  106 1    
   208  105  107 1    
   209  105  226 1    
   210  106  227 1    
   211  106  228 1    
   212  106  229 1    
   213  107  108 2    
   214  107  109 am   BACKBONE|DICT|INTERRES
   215  109  110 1    
   216  109  230 1    
   217  110  111 1    
   218  110  112 1    
   219  110  231 1    
   220  111  232 1    
   221  111  233 1    
   222  111  234 1    
   223  112  113 2    
   224  112  114 am   BACKBONE|DICT|INTERRES
   225  114  115 1    
   226  114  235 1    
   227  115  116 1    
   228  115  117 1    
   229  115  236 1    
   230  116  237 1    
   231  116  238 1    
   232  116  239 1    
   233  117  118 2    
   234  117  119 am   BACKBONE|DICT|INTERRES
   235  119  120 1    
   236  119  240 1    
   237  120  121 1    
   238  120  124 1    
   239  120  241 1    
   240  121  122 am   BACKBONE|DICT|INTERRES
   241  121  123 2    
   242  122  242 1    
   243  122  243 1    
   244  124  125 1    
   245  124  244 1    
   246  124  245 1    
   247  125  126 1    
   248  126  246 1    
   249  126  247 1    
@<TRIPOS>SUBSTRUCTURE
     1 UNK         1 GROUP             0       ****    0 ROOT    
