@<TRIPOS>MOLECULE
3R540
247   249    1
SMALL
USER_CHARGES


@<TRIPOS>ATOM
      1 CA          2.4400  -15.9185  -47.0317 C.3       0 UNK        -0.1800 
      2 C           1.4741  -14.9035  -46.4391 C.2       0 UNK         0.5000 
      3 O           0.6109  -15.2756  -45.6495 O.2       0 UNK        -0.5000 
      4 N           1.6211  -13.6286  -46.8126 N.am      1 UNK        -0.5000 
      5 CA          0.8302  -12.4961  -46.3236 C.3       1 UNK         0.1400 
      6 C6         -0.2741  -12.0684  -47.3270 C.3       23 UNK        -0.0398 
      7 S7         -1.5780  -13.3343  -47.5003 S.3       23 UNK        -0.2404 
      8 C8         -1.1937  -14.0155  -49.1444 C.3       23 UNK        -0.0205 
      9 C9         -1.7263  -15.4314  -49.3192 C.ar      23 UNK        -0.0193 
     10 C10        -3.1000  -15.6905  -49.2548 C.ar      23 UNK        -0.1150 
     11 C11        -3.5872  -16.9878  -49.4417 C.ar      23 UNK        -0.0193 
     12 C12        -2.6921  -18.0292  -49.6981 C.ar      23 UNK        -0.1150 
     13 C13        -1.3191  -17.7819  -49.7766 C.ar      23 UNK        -0.0193 
     14 C14        -0.8422  -16.4825  -49.5826 C.ar      23 UNK        -0.1150 
     15 C15        -0.3641  -18.9149  -50.1207 C.3       23 UNK        -0.0205 
     16 S16         0.9169  -19.2104  -48.8609 S.3       23 UNK        -0.2404 
     17 C17        -0.0582  -19.5346  -47.3555 C.3       23 UNK        -0.0398 
     18 CA         -0.4780  -21.0218  -47.2116 C.3       11 UNK         0.1400 
     19 N          -0.3384  -21.4994  -45.8335 N.am      11 UNK        -0.5000 
     20 C          -0.5185  -22.7640  -45.4273 C.2       10 UNK         0.5000 
     21 O          -0.8037  -23.6949  -46.1796 O.2       10 UNK        -0.5000 
     22 CA         -0.4111  -23.0192  -43.9149 C.3       10 UNK         0.1400 
     23 CB          1.0560  -23.1623  -43.4825 C.3       10 UNK        -0.1800 
     24 N          -1.0540  -21.9588  -43.1395 N.am      10 UNK        -0.5000 
     25 C          -2.3780  -21.7559  -43.0928 C.2       9 UNK         0.5000 
     26 O          -3.2005  -22.4663  -43.6697 O.2       9 UNK        -0.5000 
     27 CA         -2.8576  -20.5207  -42.3101 C.3       9 UNK         0.1400 
     28 CB         -2.8780  -20.8042  -40.8007 C.3       9 UNK        -0.1800 
     29 N          -2.0399  -19.3357  -42.5732 N.am      9 UNK        -0.5000 
     30 C          -1.9404  -18.7381  -43.7687 C.2       8 UNK         0.5000 
     31 O          -2.5347  -19.1175  -44.7766 O.2       8 UNK        -0.5000 
     32 CA         -0.9848  -17.5387  -43.8676 C.3       8 UNK         0.1400 
     33 CB         -1.7129  -16.2577  -43.4329 C.3       8 UNK        -0.1800 
     34 N           0.2662  -17.6912  -43.1120 N.am      8 UNK        -0.5000 
     35 C           1.1432  -18.6969  -43.2703 C.2       7 UNK         0.5000 
     36 O           0.9228  -19.6739  -43.9867 O.2       7 UNK        -0.5000 
     37 CA          2.4930  -18.6233  -42.5297 C.3       7 UNK         0.1400 
     38 CB          3.6580  -18.6889  -43.5315 C.3       7 UNK        -0.1800 
     39 N           2.6398  -17.4108  -41.7259 N.am      7 UNK        -0.5000 
     40 C           2.3803  -17.3191  -40.4136 C.2       6 UNK         0.5000 
     41 O           1.9959  -18.2666  -39.7274 O.2       6 UNK        -0.5000 
     42 CA          2.5635  -15.9344  -39.7523 C.3       6 UNK         0.1400 
     43 CB          3.9346  -15.8448  -39.0655 C.3       6 UNK        -0.1800 
     44 N           2.4295  -14.8162  -40.6893 N.am      6 UNK        -0.5000 
     45 C           1.3147  -14.5282  -41.3735 C.2       5 UNK         0.5000 
     46 O           0.2462  -15.1092  -41.1884 O.2       5 UNK        -0.5000 
     47 CA          1.4066  -13.4603  -42.4820 C.3       5 UNK         0.1400 
     48 CB          0.7090  -12.1684  -42.0340 C.3       5 UNK        -0.1800 
     49 N           2.7617  -13.1504  -42.9644 N.am      5 UNK        -0.5000 
     50 C           3.6175  -14.0339  -43.5072 C.2       4 UNK         0.5000 
     51 O           3.3848  -15.2413  -43.5657 O.2       4 UNK        -0.5000 
     52 CA          4.9539  -13.5072  -44.0684 C.3       4 UNK         0.1400 
     53 CB          5.2396  -14.0810  -45.4667 C.3       4 UNK        -0.1800 
     54 N           4.9942  -12.0474  -44.1508 N.am      4 UNK        -0.5000 
     55 C           5.6304  -11.2416  -43.2897 C.2       3 UNK         0.5000 
     56 O           6.2569  -11.6474  -42.3104 O.2       3 UNK        -0.5000 
     57 CA          5.5471   -9.7231  -43.5549 C.3       3 UNK         0.1400 
     58 CB          6.8137   -9.2342  -44.2738 C.3       3 UNK        -0.1800 
     59 N           4.3743   -9.3248  -44.3378 N.am      3 UNK        -0.5000 
     60 C           3.1063   -9.4419  -43.9240 C.2       2 UNK         0.5000 
     61 O           2.7964   -9.8684  -42.8116 O.2       2 UNK        -0.5000 
     62 CA          1.9900   -9.0782  -44.9237 C.3       2 UNK         0.1400 
     63 CB          2.4677   -8.2396  -46.1311 C.3       2 UNK        -0.1800 
     64 N           1.2728  -10.2776  -45.3733 N.am      2 UNK        -0.5000 
     65 C           1.7965  -11.3373  -46.0082 C.2       1 UNK         0.5000 
     66 O           2.9878  -11.4243  -46.3247 O.2       1 UNK        -0.5000 
     67 C          -1.8998  -21.2625  -47.7611 C.2       11 UNK         0.5000 
     68 O          -2.0451  -21.7686  -48.8746 O.2       11 UNK        -0.5000 
     69 N          -2.9138  -20.9316  -46.9496 N.am      12 UNK        -0.5000 
     70 CA         -4.3294  -21.1511  -47.2342 C.3       12 UNK         0.1400 
     71 CB         -5.1762  -20.3963  -46.1992 C.3       12 UNK        -0.1800 
     72 C          -4.7109  -22.6415  -47.2626 C.2       12 UNK         0.5000 
     73 O          -5.4656  -23.0490  -48.1459 O.2       12 UNK        -0.5000 
     74 N          -4.1707  -23.4335  -46.3234 N.am      13 UNK        -0.5000 
     75 CA         -4.3868  -24.8813  -46.2358 C.3       13 UNK         0.1400 
     76 CB         -3.8276  -25.4145  -44.9085 C.3       13 UNK        -0.1800 
     77 C          -3.7847  -25.6492  -47.4264 C.2       13 UNK         0.5000 
     78 O          -4.4278  -26.5584  -47.9520 O.2       13 UNK        -0.5000 
     79 N          -2.5800  -25.2464  -47.8532 N.am      14 UNK        -0.5000 
     80 CA         -1.9186  -25.7420  -49.0626 C.3       14 UNK         0.1400 
     81 CB         -0.4261  -25.3821  -48.9935 C.3       14 UNK        -0.1800 
     82 C          -2.5323  -25.1750  -50.3576 C.2       14 UNK         0.5000 
     83 O          -2.2571  -25.7010  -51.4368 O.2       14 UNK        -0.5000 
     84 N          -3.3041  -24.0857  -50.2316 N.am      15 UNK        -0.5000 
     85 CA         -3.9101  -23.2767  -51.2902 C.3       15 UNK         0.1400 
     86 CB         -5.0854  -24.0352  -51.9307 C.3       15 UNK        -0.1800 
     87 C          -2.8611  -22.7919  -52.3078 C.2       15 UNK         0.5000 
     88 O          -3.0237  -22.9864  -53.5153 O.2       15 UNK        -0.5000 
     89 N          -1.7531  -22.2604  -51.7672 N.am      16 UNK        -0.5000 
     90 CA         -0.5390  -21.7978  -52.4542 C.3       16 UNK         0.1400 
     91 CB         -0.8536  -20.5510  -53.3056 C.3       16 UNK        -0.1800 
     92 C           0.1797  -22.8840  -53.2873 C.2       16 UNK         0.5000 
     93 O           0.9799  -22.5428  -54.1588 O.2       16 UNK        -0.5000 
     94 N          -0.1437  -24.1629  -53.0351 N.am      17 UNK        -0.5000 
     95 CA          0.2071  -25.3509  -53.8234 C.3       17 UNK         0.1400 
     96 CB          1.7337  -25.5659  -53.8804 C.3       17 UNK        -0.1800 
     97 C          -0.4547  -25.3813  -55.2216 C.2       17 UNK         0.5000 
     98 O          -0.0869  -26.2171  -56.0485 O.2       17 UNK        -0.5000 
     99 N          -1.4360  -24.4981  -55.4569 N.am      18 UNK        -0.5000 
    100 CA        -2.2332  -24.4171  -56.6808 C.3       18 UNK         0.1400 
    101 CB        -2.5341  -22.9374  -56.9704 C.3       18 UNK        -0.1800 
    102 C         -3.5435  -25.2194  -56.5667 C.2       18 UNK         0.5000 
    103 O         -4.2199  -25.4090  -57.5772 O.2       18 UNK        -0.5000 
    104 N         -3.8856  -25.6537  -55.3427 N.am      19 UNK        -0.5000 
    105 CA        -5.0576  -26.4494  -54.9528 C.3       19 UNK         0.1400 
    106 CB        -5.0975  -27.7934  -55.7101 C.3       19 UNK        -0.1800 
    107 C         -6.4044  -25.6960  -55.0316 C.2       19 UNK         0.5000 
    108 O         -7.4479  -26.3170  -54.8227 O.2       19 UNK        -0.5000 
    109 N         -6.3735  -24.3847  -55.3066 N.am      20 UNK        -0.5000 
    110 CA        -7.5640  -23.5430  -55.4559 C.3       20 UNK         0.1400 
    111 CB        -8.0558  -23.6145  -56.9131 C.3       20 UNK        -0.1800 
    112 C         -7.3514  -22.0806  -55.0220 C.2       20 UNK         0.5000 
    113 O         -8.3366  -21.3486  -54.9115 O.2       20 UNK        -0.5000 
    114 N         -6.1014  -21.6549  -54.7879 N.am      21 UNK        -0.5000 
    115 CA        -5.7640  -20.2789  -54.4240 C.3       21 UNK         0.1400 
    116 CB        -4.3407  -19.9640  -54.9115 C.3       21 UNK        -0.1800 
    117 C         -5.9305  -20.0548  -52.9102 C.2       21 UNK         0.5000 
    118 O         -4.9543  -20.1575  -52.1675 O.2       21 UNK        -0.5000 
    119 N         -7.1763  -19.7791  -52.4973 N.am      22 UNK        -0.5000 
    120 CA        -7.6258  -19.3931  -51.1415 C.3       22 UNK         0.1400 
    121 C         -7.2374  -20.3372  -49.9609 C.2       22 UNK         0.5000 
    122 N         -6.8775  -21.5884  -50.2094 N.am      22 UNK        -0.7600 
    123 O         -7.3095  -19.9492  -48.7991 O.2       22 UNK        -0.5000 
    124 C124       -7.4554  -17.8713  -50.8285 C.3       23 UNK        -0.0398 
    125 S125       -5.7904  -17.1589  -51.0691 S.3       23 UNK        -0.2404 
    126 C126       -5.0798  -17.2691  -49.3997 C.3       23 UNK        -0.0205 
    127 H127        1.8874  -16.6797  -47.5806 H         1 UNK         0.0600 
    128 H128        2.9996  -16.4097  -46.2358 H         1 UNK         0.0600 
    129 H129        3.1515  -15.4541  -47.7147 H         1 UNK         0.0600 
    130 H130        2.3993  -13.3599  -47.3998 H         1 UNK         0.3000 
    131 H131        0.3556  -12.7609  -45.3772 H         1 UNK         0.0600 
    132 H132        0.1566  -11.8337  -48.3019 H         1 UNK         0.0800 
    133 H133       -0.7704  -11.1560  -46.9933 H         1 UNK         0.0800 
    134 H134       -1.6213  -13.3689  -49.9117 H         1 UNK         0.0800 
    135 H135       -0.1131  -14.0031  -49.2947 H         1 UNK         0.0800 
    136 H136       -3.7893  -14.8793  -49.0669 H         1 UNK         0.1150 
    137 H137       -3.0723  -19.0285  -49.8638 H         1 UNK         0.1150 
    138 H138        0.2197  -16.2918  -49.6500 H         1 UNK         0.1150 
    139 H139       -0.9155  -19.8394  -50.2839 H         1 UNK         0.0800 
    140 H140        0.1266  -18.6819  -51.0663 H         1 UNK         0.0800 
    141 H141       -0.9049  -18.8491  -47.2856 H         1 UNK         0.0800 
    142 H142        0.5958  -19.2484  -46.5320 H         1 UNK         0.0800 
    143 H143        0.2012  -21.6380  -47.8049 H         1 UNK         0.0600 
    144 H144       -0.0622  -20.8096  -45.1392 H         1 UNK         0.3000 
    145 H145       -0.9209  -23.9597  -43.6961 H         1 UNK         0.0600 
    146 H146        1.5439  -23.9712  -44.0276 H         1 UNK         0.0600 
    147 H147        1.6267  -22.2521  -43.6688 H         1 UNK         0.0600 
    148 H148        1.1327  -23.3944  -42.4202 H         1 UNK         0.0600 
    149 H149       -0.4442  -21.2868  -42.6969 H         1 UNK         0.3000 
    150 H150       -3.8786  -20.3019  -42.6301 H         1 UNK         0.0600 
    151 H151       -3.4919  -21.6776  -40.5765 H         1 UNK         0.0600 
    152 H152       -3.2971  -19.9634  -40.2476 H         1 UNK         0.0600 
    153 H153       -1.8775  -20.9970  -40.4115 H         1 UNK         0.0600 
    154 H154       -1.5063  -18.9622  -41.8020 H         1 UNK         0.3000 
    155 H155       -0.7139  -17.4351  -44.9197 H         1 UNK         0.0600 
    156 H156       -1.0973  -15.3749  -43.5997 H         1 UNK         0.0600 
    157 H157       -1.9816  -16.2852  -42.3764 H         1 UNK         0.0600 
    158 H158       -2.6320  -16.1181  -44.0037 H         1 UNK         0.0600 
    159 H159        0.5075  -16.9309  -42.4900 H         1 UNK         0.3000 
    160 H160        2.5550  -19.5045  -41.8882 H         1 UNK         0.0600 
    161 H161        3.6239  -17.8631  -44.2428 H         1 UNK         0.0600 
    162 H162        3.6319  -19.6161  -44.1054 H         1 UNK         0.0600 
    163 H163        4.6203  -18.6518  -43.0209 H         1 UNK         0.0600 
    164 H164        2.9322  -16.5799  -42.2344 H         1 UNK         0.3000 
    165 H165        1.7889  -15.8292  -38.9900 H         1 UNK         0.0600 
    166 H166        4.0473  -14.9023  -38.5294 H         1 UNK         0.0600 
    167 H167        4.0606  -16.6479  -38.3381 H         1 UNK         0.0600 
    168 H168        4.7505  -15.9228  -39.7854 H         1 UNK         0.0600 
    169 H169        3.2676  -14.2960  -40.9019 H         1 UNK         0.3000 
    170 H170        0.8526  -13.8617  -43.3311 H         1 UNK         0.0600 
    171 H171       -0.2953  -12.3712  -41.6592 H         1 UNK         0.0600 
    172 H172        1.2625  -11.6697  -41.2375 H         1 UNK         0.0600 
    173 H173        0.6035  -11.4685  -42.8612 H         1 UNK         0.0600 
    174 H174        3.0384  -12.1779  -42.9210 H         1 UNK         0.3000 
    175 H175        5.7358  -13.8693  -43.3982 H         1 UNK         0.0600 
    176 H176        6.2146  -13.7569  -45.8307 H         1 UNK         0.0600 
    177 H177        5.2471  -15.1716  -45.4560 H         1 UNK         0.0600 
    178 H178        4.4920  -13.7625  -46.1924 H         1 UNK         0.0600 
    179 H179        4.4767  -11.6331  -44.9201 H         1 UNK         0.3000 
    180 H180        5.4897   -9.2245  -42.5850 H         1 UNK         0.0600 
    181 H181        6.9146   -9.6854  -45.2617 H         1 UNK         0.0600 
    182 H182        7.7091   -9.4872  -43.7042 H         1 UNK         0.0600 
    183 H183        6.8047   -8.1511  -44.3974 H         1 UNK         0.0600 
    184 H184        4.5452   -8.9993  -45.2783 H         1 UNK         0.3000 
    185 H185        1.2713   -8.4734  -44.3688 H         1 UNK         0.0600 
    186 H186        2.9641   -7.3258  -45.8019 H         1 UNK         0.0600 
    187 H187        3.1627   -8.7832  -46.7716 H         1 UNK         0.0600 
    188 H188        1.6225   -7.9379  -46.7498 H         1 UNK         0.0600 
    189 H189        0.2949  -10.3028  -45.1209 H         1 UNK         0.3000 
    190 H190       -2.7042  -20.4656  -46.0697 H         1 UNK         0.3000 
    191 H191       -4.5425  -20.7341  -48.2209 H         1 UNK         0.0600 
    192 H192       -5.0001  -19.3220  -46.2580 H         1 UNK         0.0600 
    193 H193       -6.2410  -20.5606  -46.3673 H         1 UNK         0.0600 
    194 H194       -4.9507  -20.7182  -45.1819 H         1 UNK         0.0600 
    195 H195       -3.6021  -23.0163  -45.5938 H         1 UNK         0.3000 
    196 H196       -5.4645  -25.0572  -46.2416 H         1 UNK         0.0600 
    197 H197       -3.9813  -26.4909  -44.8234 H         1 UNK         0.0600 
    198 H198       -4.3233  -24.9486  -44.0569 H         1 UNK         0.0600 
    199 H199       -2.7575  -25.2272  -44.8181 H         1 UNK         0.0600 
    200 H200       -2.0807  -24.5367  -47.3219 H         1 UNK         0.3000 
    201 H201       -2.0122  -26.8292  -49.0969 H         1 UNK         0.0600 
    202 H202        0.0417  -25.8099  -48.1066 H         1 UNK         0.0600 
    203 H203       -0.2756  -24.3019  -48.9620 H         1 UNK         0.0600 
    204 H204        0.1121  -25.7645  -49.8619 H         1 UNK         0.0600 
    205 H205       -3.4263  -23.7188  -49.2977 H         1 UNK         0.3000 
    206 H206       -4.3022  -22.3829  -50.8053 H         1 UNK         0.0600 
    207 H207       -5.8187  -24.3286  -51.1795 H         1 UNK         0.0600 
    208 H208       -5.5992  -23.4154  -52.6632 H         1 UNK         0.0600 
    209 H209       -4.7458  -24.9378  -52.4337 H         1 UNK         0.0600 
    210 H210       -1.7458  -22.1665  -50.7540 H         1 UNK         0.3000 
    211 H211        0.1593  -21.5057  -51.6692 H         1 UNK         0.0600 
    212 H212       -1.3498  -20.8207  -54.2378 H         1 UNK         0.0600 
    213 H213        0.0615  -20.0202  -53.5700 H         1 UNK         0.0600 
    214 H214       -1.4971  -19.8494  -52.7744 H         1 UNK         0.0600 
    215 H215       -0.8357  -24.3358  -52.3156 H         1 UNK         0.3000 
    216 H216       -0.2167  -26.1968  -53.2806 H         1 UNK         0.0600 
    217 H217        1.9733  -26.5435  -54.3001 H         1 UNK         0.0600 
    218 H218        2.1756  -25.5248  -52.8849 H         1 UNK         0.0600 
    219 H219        2.2291  -24.8189  -54.5007 H         1 UNK         0.0600 
    220 H220       -1.7080  -23.8613  -54.7140 H         1 UNK         0.3000 
    221 H221       -1.6672  -24.8223  -57.5219 H         1 UNK         0.0600 
    222 H222       -3.1274  -22.4825  -56.1774 H         1 UNK         0.0600 
    223 H223       -1.6141  -22.3611  -57.0700 H         1 UNK         0.0600 
    224 H224       -3.0902  -22.8249  -57.9020 H         1 UNK         0.0600 
    225 H225       -3.2672  -25.4022  -54.5837 H         1 UNK         0.3000 
    226 H226       -4.9130  -26.6901  -53.8994 H         1 UNK         0.0600 
    227 H227       -4.1413  -28.3125  -55.6443 H         1 UNK         0.0600 
    228 H228       -5.8537  -28.4567  -55.2889 H         1 UNK         0.0600 
    229 H229       -5.3371  -27.6606  -56.7653 H         1 UNK         0.0600 
    230 H230       -5.4782  -23.9658  -55.5028 H         1 UNK         0.3000 
    231 H231       -8.3551  -23.9264  -54.8080 H         1 UNK         0.0600 
    232 H232       -7.2924  -23.2654  -57.6093 H         1 UNK         0.0600 
    233 H233       -8.9445  -22.9996  -57.0616 H         1 UNK         0.0600 
    234 H234       -8.3205  -24.6347  -57.1915 H         1 UNK         0.0600 
    235 H235       -5.3291  -22.3014  -54.8128 H         1 UNK         0.3000 
    236 H236       -6.4347  -19.5887  -54.9410 H         1 UNK         0.0600 
    237 H237       -4.2651  -20.0510  -55.9954 H         1 UNK         0.0600 
    238 H238       -4.0520  -18.9469  -54.6436 H         1 UNK         0.0600 
    239 H239       -3.6096  -20.6372  -54.4703 H         1 UNK         0.0600 
    240 H240       -7.9075  -19.8142  -53.1959 H         1 UNK         0.3000 
    241 H241       -8.7047  -19.5439  -51.1915 H         1 UNK         0.0600 
    242 H242       -6.5925  -22.1867  -49.4401 H         1 UNK         0.3800 
    243 H243       -6.8208  -21.9180  -51.1570 H         1 UNK         0.3800 
    244 H244       -8.1182  -17.3142  -51.4914 H         1 UNK         0.0800 
    245 H245       -7.8077  -17.6313  -49.8240 H         1 UNK         0.0800 
    246 H246       -5.2499  -18.2645  -48.9887 H         1 UNK         0.0800 
    247 H247       -5.5855  -16.5658  -48.7365 H         1 UNK         0.0800 
@<TRIPOS>BOND
     1    1    2 1    
     2    1  127 1    
     3    1  128 1    
     4    1  129 1    
     5    2    3 2    
     6    2    4 am   BACKBONE|DICT|INTERRES
     7    4    5 1    
     8    4  130 1    
     9    5    6 1    
    10    5   65 1    
    11    5  131 1    
    12    6    7 1    
    13    6  132 1    
    14    6  133 1    
    15    7    8 1    
    16    8    9 1    
    17    8  134 1    
    18    8  135 1    
    19    9   10 ar   
    20    9   14 ar   
    21   10   11 ar   
    22   10  136 1    
    23   11   12 ar   
    24   11  126 1    
    25   12   13 ar   
    26   12  137 1    
    27   13   14 ar   
    28   13   15 1    
    29   14  138 1    
    30   15   16 1    
    31   15  139 1    
    32   15  140 1    
    33   16   17 1    
    34   17   18 1    
    35   17  141 1    
    36   17  142 1    
    37   18   19 1    
    38   18   67 1    
    39   18  143 1    
    40   19   20 am   BACKBONE|DICT|INTERRES
    41   19  144 1    
    42   20   21 2    
    43   20   22 1    
    44   22   23 1    
    45   22   24 1    
    46   22  145 1    
    47   23  146 1    
    48   23  147 1    
    49   23  148 1    
    50   24   25 am   BACKBONE|DICT|INTERRES
    51   24  149 1    
    52   25   26 2    
    53   25   27 1    
    54   27   28 1    
    55   27   29 1    
    56   27  150 1    
    57   28  151 1    
    58   28  152 1    
    59   28  153 1    
    60   29   30 am   BACKBONE|DICT|INTERRES
    61   29  154 1    
    62   30   31 2    
    63   30   32 1    
    64   32   33 1    
    65   32   34 1    
    66   32  155 1    
    67   33  156 1    
    68   33  157 1    
    69   33  158 1    
    70   34   35 am   BACKBONE|DICT|INTERRES
    71   34  159 1    
    72   35   36 2    
    73   35   37 1    
    74   37   38 1    
    75   37   39 1    
    76   37  160 1    
    77   38  161 1    
    78   38  162 1    
    79   38  163 1    
    80   39   40 am   BACKBONE|DICT|INTERRES
    81   39  164 1    
    82   40   41 2    
    83   40   42 1    
    84   42   43 1    
    85   42   44 1    
    86   42  165 1    
    87   43  166 1    
    88   43  167 1    
    89   43  168 1    
    90   44   45 am   BACKBONE|DICT|INTERRES
    91   44  169 1    
    92   45   46 2    
    93   45   47 1    
    94   47   48 1    
    95   47   49 1    
    96   47  170 1    
    97   48  171 1    
    98   48  172 1    
    99   48  173 1    
   100   49   50 am   BACKBONE|DICT|INTERRES
   101   49  174 1    
   102   50   51 2    
   103   50   52 1    
   104   52   53 1    
   105   52   54 1    
   106   52  175 1    
   107   53  176 1    
   108   53  177 1    
   109   53  178 1    
   110   54   55 am   BACKBONE|DICT|INTERRES
   111   54  179 1    
   112   55   56 2    
   113   55   57 1    
   114   57   58 1    
   115   57   59 1    
   116   57  180 1    
   117   58  181 1    
   118   58  182 1    
   119   58  183 1    
   120   59   60 am   BACKBONE|DICT|INTERRES
   121   59  184 1    
   122   60   61 2    
   123   60   62 1    
   124   62   63 1    
   125   62   64 1    
   126   62  185 1    
   127   63  186 1    
   128   63  187 1    
   129   63  188 1    
   130   64   65 am   BACKBONE|DICT|INTERRES
   131   64  189 1    
   132   65   66 2    
   133   67   68 2    
   134   67   69 am   BACKBONE|DICT|INTERRES
   135   69   70 1    
   136   69  190 1    
   137   70   71 1    
   138   70   72 1    
   139   70  191 1    
   140   71  192 1    
   141   71  193 1    
   142   71  194 1    
   143   72   73 2    
   144   72   74 am   BACKBONE|DICT|INTERRES
   145   74   75 1    
   146   74  195 1    
   147   75   76 1    
   148   75   77 1    
   149   75  196 1    
   150   76  197 1    
   151   76  198 1    
   152   76  199 1    
   153   77   78 2    
   154   77   79 am   BACKBONE|DICT|INTERRES
   155   79   80 1    
   156   79  200 1    
   157   80   81 1    
   158   80   82 1    
   159   80  201 1    
   160   81  202 1    
   161   81  203 1    
   162   81  204 1    
   163   82   83 2    
   164   82   84 am   BACKBONE|DICT|INTERRES
   165   84   85 1    
   166   84  205 1    
   167   85   86 1    
   168   85   87 1    
   169   85  206 1    
   170   86  207 1    
   171   86  208 1    
   172   86  209 1    
   173   87   88 2    
   174   87   89 am   BACKBONE|DICT|INTERRES
   175   89   90 1    
   176   89  210 1    
   177   90   91 1    
   178   90   92 1    
   179   90  211 1    
   180   91  212 1    
   181   91  213 1    
   182   91  214 1    
   183   92   93 2    
   184   92   94 am   BACKBONE|DICT|INTERRES
   185   94   95 1    
   186   94  215 1    
   187   95   96 1    
   188   95   97 1    
   189   95  216 1    
   190   96  217 1    
   191   96  218 1    
   192   96  219 1    
   193   97   98 2    
   194   97   99 am   BACKBONE|DICT|INTERRES
   195   99  100 1    
   196   99  220 1    
   197  100  101 1    
   198  100  102 1    
   199  100  221 1    
   200  101  222 1    
   201  101  223 1    
   202  101  224 1    
   203  102  103 2    
   204  102  104 am   BACKBONE|DICT|INTERRES
   205  104  105 1    
   206  104  225 1    
   207  105  106 1    
   208  105  107 1    
   209  105  226 1    
   210  106  227 1    
   211  106  228 1    
   212  106  229 1    
   213  107  108 2    
   214  107  109 am   BACKBONE|DICT|INTERRES
   215  109  110 1    
   216  109  230 1    
   217  110  111 1    
   218  110  112 1    
   219  110  231 1    
   220  111  232 1    
   221  111  233 1    
   222  111  234 1    
   223  112  113 2    
   224  112  114 am   BACKBONE|DICT|INTERRES
   225  114  115 1    
   226  114  235 1    
   227  115  116 1    
   228  115  117 1    
   229  115  236 1    
   230  116  237 1    
   231  116  238 1    
   232  116  239 1    
   233  117  118 2    
   234  117  119 am   BACKBONE|DICT|INTERRES
   235  119  120 1    
   236  119  240 1    
   237  120  121 1    
   238  120  124 1    
   239  120  241 1    
   240  121  122 am   BACKBONE|DICT|INTERRES
   241  121  123 2    
   242  122  242 1    
   243  122  243 1    
   244  124  125 1    
   245  124  244 1    
   246  124  245 1    
   247  125  126 1    
   248  126  246 1    
   249  126  247 1    
@<TRIPOS>SUBSTRUCTURE
     1 UNK         1 GROUP             0       ****    0 ROOT    
