@<TRIPOS>MOLECULE
3R540
247   249    1
SMALL
USER_CHARGES


@<TRIPOS>ATOM
      1 CA          1.4434   -8.4972  -48.8750 C.3       0 UNK        -0.1800 
      2 C           1.9558   -9.5885  -47.9467 C.2       0 UNK         0.5000 
      3 O           2.3356   -9.3016  -46.8108 O.2       0 UNK        -0.5000 
      4 N           1.9507  -10.8451  -48.4133 N.am      1 UNK        -0.5000 
      5 CA          2.4283  -12.0223  -47.6730 C.3       1 UNK         0.1400 
      6 C6          2.6436  -13.2491  -48.5908 C.3       23 UNK        -0.0398 
      7 S7          1.1287  -13.8505  -49.4112 S.3       23 UNK        -0.2404 
      8 C8          1.7576  -15.4120  -50.0958 C.3       23 UNK        -0.0205 
      9 C9          0.6623  -16.1798  -50.8150 C.ar      23 UNK        -0.0193 
     10 C10         0.3020  -15.8291  -52.1194 C.ar      23 UNK        -0.1150 
     11 C11        -0.7003  -16.5328  -52.7919 C.ar      23 UNK        -0.0193 
     12 C12        -1.3326  -17.6050  -52.1544 C.ar      23 UNK        -0.1150 
     13 C13        -0.9830  -17.9630  -50.8474 C.ar      23 UNK        -0.0193 
     14 C14         0.0113  -17.2420  -50.1804 C.ar      23 UNK        -0.1150 
     15 C15        -1.6961  -19.1126  -50.1519 C.3       23 UNK        -0.0205 
     16 S16        -0.6065  -20.5593  -49.9389 S.3       23 UNK        -0.2404 
     17 C17        -0.2493  -20.5313  -48.1467 C.3       23 UNK        -0.0398 
     18 CA         -0.5842  -21.8679  -47.4389 C.3       11 UNK         0.1400 
     19 N          -0.0777  -21.8900  -46.0645 N.am      11 UNK        -0.5000 
     20 C          -0.0741  -22.9660  -45.2650 C.2       10 UNK         0.5000 
     21 O          -0.4438  -24.0839  -45.6201 O.2       10 UNK        -0.5000 
     22 CA          0.3572  -22.7477  -43.8044 C.3       10 UNK         0.1400 
     23 CB          1.8875  -22.7231  -43.6819 C.3       10 UNK        -0.1800 
     24 N          -0.2165  -21.5299  -43.2283 N.am      10 UNK        -0.5000 
     25 C          -1.5321  -21.3244  -43.0652 C.2       9 UNK         0.5000 
     26 O          -2.3901  -22.1638  -43.3343 O.2       9 UNK        -0.5000 
     27 CA         -1.9727  -19.9399  -42.5612 C.3       9 UNK         0.1400 
     28 CB         -1.8348  -19.8507  -41.0344 C.3       9 UNK        -0.1800 
     29 N          -1.2373  -18.8451  -43.1952 N.am      9 UNK        -0.5000 
     30 C          -1.2774  -18.5546  -44.5042 C.2       8 UNK         0.5000 
     31 O          -1.9779  -19.1585  -45.3171 O.2       8 UNK        -0.5000 
     32 CA         -0.3256  -17.4490  -45.0006 C.3       8 UNK         0.1400 
     33 CB         -0.8743  -16.0496  -44.6887 C.3       8 UNK        -0.1800 
     34 N           1.0175  -17.5842  -44.4382 N.am      8 UNK        -0.5000 
     35 C           1.8265  -18.6299  -44.6569 C.2       7 UNK         0.5000 
     36 O           1.5499  -19.5647  -45.4091 O.2       7 UNK        -0.5000 
     37 CA          3.1395  -18.6597  -43.8588 C.3       7 UNK         0.1400 
     38 CB          4.2196  -17.8089  -44.5444 C.3       7 UNK        -0.1800 
     39 N           2.9423  -18.2019  -42.4826 N.am      7 UNK        -0.5000 
     40 C           2.3140  -18.9138  -41.5361 C.2       6 UNK         0.5000 
     41 O           1.8597  -20.0421  -41.7225 O.2       6 UNK        -0.5000 
     42 CA          2.1318  -18.2431  -40.1613 C.3       6 UNK         0.1400 
     43 CB          3.3941  -18.4161  -39.3038 C.3       6 UNK        -0.1800 
     44 N           1.8038  -16.8203  -40.2589 N.am      6 UNK        -0.5000 
     45 C           0.6638  -16.3407  -40.7751 C.2       5 UNK         0.5000 
     46 O          -0.2481  -17.0516  -41.1928 O.2       5 UNK        -0.5000 
     47 CA          0.5386  -14.8108  -40.8935 C.3       5 UNK         0.1400 
     48 CB         -0.0544  -14.2157  -39.6085 C.3       5 UNK        -0.1800 
     49 N           1.7918  -14.1212  -41.2110 N.am      5 UNK        -0.5000 
     50 C           2.5759  -14.3771  -42.2667 C.2       4 UNK         0.5000 
     51 O           2.3870  -15.3106  -43.0486 O.2       4 UNK        -0.5000 
     52 CA          3.7250  -13.3831  -42.4979 C.3       4 UNK         0.1400 
     53 CB          4.7559  -13.8914  -43.5220 C.3       4 UNK        -0.1800 
     54 N           3.1391  -12.1369  -42.9803 N.am      4 UNK        -0.5000 
     55 C           2.7852  -11.0997  -42.2083 C.2       3 UNK         0.5000 
     56 O           3.0518  -11.0241  -41.0083 O.2       3 UNK        -0.5000 
     57 CA          1.9557   -9.9797  -42.8710 C.3       3 UNK         0.1400 
     58 CB          2.8743   -8.8597  -43.3810 C.3       3 UNK        -0.1800 
     59 N           1.1265  -10.4602  -43.9782 N.am      3 UNK        -0.5000 
     60 C           0.1018  -11.3194  -43.8540 C.2       2 UNK         0.5000 
     61 O          -0.3405  -11.6984  -42.7693 O.2       2 UNK        -0.5000 
     62 CA         -0.5144  -11.8793  -45.1545 C.3       2 UNK         0.1400 
     63 CB         -1.8309  -11.1588  -45.4809 C.3       2 UNK        -0.1800 
     64 N           0.3715  -11.7966  -46.3193 N.am      2 UNK        -0.5000 
     65 C           1.5793  -12.3707  -46.4294 C.2       1 UNK         0.5000 
     66 O           2.0568  -13.1058  -45.5676 O.2       1 UNK        -0.5000 
     67 C          -2.0894  -22.2127  -47.4950 C.2       11 UNK         0.5000 
     68 O          -2.4903  -23.0599  -48.2952 O.2       11 UNK        -0.5000 
     69 N          -2.8925  -21.5896  -46.6217 N.am      12 UNK        -0.5000 
     70 CA         -4.3255  -21.8541  -46.4854 C.3       12 UNK         0.1400 
     71 CB         -4.9423  -20.8669  -45.4839 C.3       12 UNK        -0.1800 
     72 C          -4.6387  -23.3110  -46.0933 C.2       12 UNK         0.5000 
     73 O          -5.5386  -23.9137  -46.6779 O.2       12 UNK        -0.5000 
     74 N          -3.8832  -23.8481  -45.1281 N.am      13 UNK        -0.5000 
     75 CA         -4.0536  -25.1963  -44.5969 C.3       13 UNK         0.1400 
     76 CB         -3.3848  -25.2870  -43.2150 C.3       13 UNK        -0.1800 
     77 C          -3.5235  -26.2933  -45.5369 C.2       13 UNK         0.5000 
     78 O          -4.2897  -27.1701  -45.9379 O.2       13 UNK        -0.5000 
     79 N          -2.2174  -26.2606  -45.8318 N.am      14 UNK        -0.5000 
     80 CA         -1.4990  -27.3704  -46.4602 C.3       14 UNK         0.1400 
     81 CB         -0.0300  -27.3501  -46.0089 C.3       14 UNK        -0.1800 
     82 C          -1.5879  -27.3561  -47.9921 C.2       14 UNK         0.5000 
     83 O          -1.7000  -28.4232  -48.5967 O.2       14 UNK        -0.5000 
     84 N          -1.5369  -26.1606  -48.5938 N.am      15 UNK        -0.5000 
     85 CA         -1.5819  -25.9754  -50.0476 C.3       15 UNK         0.1400 
     86 CB         -0.5962  -24.8639  -50.4494 C.3       15 UNK        -0.1800 
     87 C          -3.0046  -25.6808  -50.5597 C.2       15 UNK         0.5000 
     88 O          -3.1718  -25.4485  -51.7579 O.2       15 UNK        -0.5000 
     89 N          -3.9962  -25.6683  -49.6544 N.am      16 UNK        -0.5000 
     90 CA         -5.4113  -25.3623  -49.8941 C.3       16 UNK         0.1400 
     91 CB         -6.0695  -26.4676  -50.7464 C.3       16 UNK        -0.1800 
     92 C          -5.6061  -23.9512  -50.4853 C.2       16 UNK         0.5000 
     93 O          -6.3538  -23.7784  -51.4488 O.2       16 UNK        -0.5000 
     94 N          -4.8700  -22.9787  -49.9274 N.am      17 UNK        -0.5000 
     95 CA         -4.7417  -21.5947  -50.3914 C.3       17 UNK         0.1400 
     96 CB         -6.0718  -20.8272  -50.2451 C.3       17 UNK        -0.1800 
     97 C          -4.1398  -21.5307  -51.8080 C.2       17 UNK         0.5000 
     98 O          -4.6470  -20.8104  -52.6678 O.2       17 UNK        -0.5000 
     99 N          -3.0790  -22.3265  -52.0134 N.am      18 UNK        -0.5000 
    100 CA        -2.3402  -22.5236  -53.2635 C.3       18 UNK         0.1400 
    101 CB        -1.5105  -21.2711  -53.5876 C.3       18 UNK        -0.1800 
    102 C         -3.2633  -22.9691  -54.4159 C.2       18 UNK         0.5000 
    103 O         -3.2902  -22.3398  -55.4773 O.2       18 UNK        -0.5000 
    104 N         -4.0317  -24.0339  -54.1404 N.am      19 UNK        -0.5000 
    105 CA        -5.0996  -24.6042  -54.9679 C.3       19 UNK         0.1400 
    106 CB        -4.5192  -25.2264  -56.2551 C.3       19 UNK        -0.1800 
    107 C         -6.2402  -23.5980  -55.2379 C.2       19 UNK         0.5000 
    108 O         -6.7343  -23.5089  -56.3636 O.2       19 UNK        -0.5000 
    109 N         -6.6231  -22.8546  -54.1881 N.am      20 UNK        -0.5000 
    110 CA        -7.6165  -21.7754  -54.1616 C.3       20 UNK         0.1400 
    111 CB        -9.0385  -22.3557  -54.3027 C.3       20 UNK        -0.1800 
    112 C         -7.3184  -20.6463  -55.1732 C.2       20 UNK         0.5000 
    113 O         -8.2371  -20.1295  -55.8132 O.2       20 UNK        -0.5000 
    114 N         -6.0349  -20.2979  -55.3138 N.am      21 UNK        -0.5000 
    115 CA        -5.5156  -19.3556  -56.2979 C.3       21 UNK         0.1400 
    116 CB        -5.5650  -19.9809  -57.7129 C.3       21 UNK        -0.1800 
    117 C         -4.1119  -18.9102  -55.8539 C.2       21 UNK         0.5000 
    118 O         -3.9752  -18.3363  -54.7733 O.2       21 UNK        -0.5000 
    119 N         -3.1007  -19.1721  -56.6867 N.am      22 UNK        -0.5000 
    120 CA        -1.6796  -18.9143  -56.4300 C.3       22 UNK         0.1400 
    121 C         -0.7786  -19.9686  -57.1366 C.2       22 UNK         0.5000 
    122 N         -1.2202  -21.2167  -57.2536 N.am      22 UNK        -0.7600 
    123 O          0.3199  -19.6675  -57.5950 O.2       22 UNK        -0.5000 
    124 C124       -1.2817  -17.4323  -56.6840 C.3       23 UNK        -0.0398 
    125 S125       -0.0483  -16.8491  -55.4680 S.3       23 UNK        -0.2404 
    126 C126       -1.1216  -16.1147  -54.1925 C.3       23 UNK        -0.0205 
    127 H127        1.1291   -8.8992  -49.8385 H         1 UNK         0.0600 
    128 H128        2.2256   -7.7593  -49.0527 H         1 UNK         0.0600 
    129 H129        0.5910   -7.9902  -48.4228 H         1 UNK         0.0600 
    130 H130        1.6067  -11.0300  -49.3455 H         1 UNK         0.3000 
    131 H131        3.4127  -11.7562  -47.2814 H         1 UNK         0.0600 
    132 H132        3.3729  -13.0015  -49.3634 H         1 UNK         0.0800 
    133 H133        3.0863  -14.0679  -48.0201 H         1 UNK         0.0800 
    134 H134        2.5754  -15.2034  -50.7874 H         1 UNK         0.0800 
    135 H135        2.1782  -16.0192  -49.2924 H         1 UNK         0.0800 
    136 H136        0.7965  -15.0011  -52.6080 H         1 UNK         0.1150 
    137 H137       -2.1084  -18.1508  -52.6740 H         1 UNK         0.1150 
    138 H138        0.2816  -17.5139  -49.1696 H         1 UNK         0.1150 
    139 H139       -2.0996  -18.7734  -49.1974 H         1 UNK         0.0800 
    140 H140       -2.5574  -19.4154  -50.7452 H         1 UNK         0.0800 
    141 H141       -0.7632  -19.7014  -47.6620 H         1 UNK         0.0800 
    142 H142        0.8152  -20.3192  -48.0377 H         1 UNK         0.0800 
    143 H143       -0.0583  -22.6618  -47.9735 H         1 UNK         0.0600 
    144 H144        0.2916  -21.0152  -45.7026 H         1 UNK         0.3000 
    145 H145       -0.0125  -23.5944  -43.2224 H         1 UNK         0.0600 
    146 H146        2.1978  -22.6534  -42.6394 H         1 UNK         0.0600 
    147 H147        2.3257  -23.6344  -44.0907 H         1 UNK         0.0600 
    148 H148        2.3232  -21.8806  -44.2183 H         1 UNK         0.0600 
    149 H149        0.4377  -20.8149  -42.9275 H         1 UNK         0.3000 
    150 H150       -3.0283  -19.8176  -42.8116 H         1 UNK         0.0600 
    151 H151       -2.2408  -18.9122  -40.6569 H         1 UNK         0.0600 
    152 H152       -2.3782  -20.6596  -40.5444 H         1 UNK         0.0600 
    153 H153       -0.7929  -19.9157  -40.7194 H         1 UNK         0.0600 
    154 H154       -0.6760  -18.2642  -42.5779 H         1 UNK         0.3000 
    155 H155       -0.2419  -17.5443  -46.0852 H         1 UNK         0.0600 
    156 H156       -0.9958  -15.8921  -43.6173 H         1 UNK         0.0600 
    157 H157       -1.8479  -15.8990  -45.1565 H         1 UNK         0.0600 
    158 H158       -0.2051  -15.2766  -45.0671 H         1 UNK         0.0600 
    159 H159        1.3475  -16.8364  -43.8354 H         1 UNK         0.3000 
    160 H160        3.4929  -19.6925  -43.8301 H         1 UNK         0.0600 
    161 H161        3.9180  -16.7658  -44.6401 H         1 UNK         0.0600 
    162 H162        4.4251  -18.1810  -45.5488 H         1 UNK         0.0600 
    163 H163        5.1570  -17.8376  -43.9888 H         1 UNK         0.0600 
    164 H164        3.1970  -17.2435  -42.2860 H         1 UNK         0.3000 
    165 H165        1.3051  -18.7458  -39.6548 H         1 UNK         0.0600 
    166 H166        3.2465  -18.0175  -38.3000 H         1 UNK         0.0600 
    167 H167        3.6523  -19.4708  -39.1987 H         1 UNK         0.0600 
    168 H168        4.2541  -17.9098  -39.7439 H         1 UNK         0.0600 
    169 H169        2.5038  -16.1640  -39.9462 H         1 UNK         0.3000 
    170 H170       -0.1542  -14.6041  -41.7114 H         1 UNK         0.0600 
    171 H171       -1.0013  -14.6951  -39.3561 H         1 UNK         0.0600 
    172 H172        0.6166  -14.3436  -38.7582 H         1 UNK         0.0600 
    173 H173       -0.2526  -13.1498  -39.7243 H         1 UNK         0.0600 
    174 H174        2.0121  -13.3143  -40.6435 H         1 UNK         0.3000 
    175 H175        4.2420  -13.2270  -41.5489 H         1 UNK         0.0600 
    176 H176        4.3062  -14.0778  -44.4977 H         1 UNK         0.0600 
    177 H177        5.5611  -13.1697  -43.6591 H         1 UNK         0.0600 
    178 H178        5.2084  -14.8253  -43.1868 H         1 UNK         0.0600 
    179 H179        2.7989  -12.1710  -43.9355 H         1 UNK         0.3000 
    180 H180        1.2938   -9.5620  -42.1097 H         1 UNK         0.0600 
    181 H181        2.2966   -8.0340  -43.7969 H         1 UNK         0.0600 
    182 H182        3.5517   -9.2182  -44.1574 H         1 UNK         0.0600 
    183 H183        3.4846   -8.4554  -42.5723 H         1 UNK         0.0600 
    184 H184        1.4167  -10.1847  -44.9087 H         1 UNK         0.3000 
    185 H185       -0.7344  -12.9334  -44.9793 H         1 UNK         0.0600 
    186 H186       -2.3204  -11.6040  -46.3474 H         1 UNK         0.0600 
    187 H187       -2.5299  -11.2238  -44.6459 H         1 UNK         0.0600 
    188 H188       -1.6682  -10.1011  -45.6918 H         1 UNK         0.0600 
    189 H189        0.0649  -11.2049  -47.0774 H         1 UNK         0.3000 
    190 H190       -2.5010  -20.8757  -46.0128 H         1 UNK         0.3000 
    191 H191       -4.7895  -21.6673  -47.4536 H         1 UNK         0.0600 
    192 H192       -4.7812  -19.8353  -45.7976 H         1 UNK         0.0600 
    193 H193       -6.0193  -21.0177  -45.4010 H         1 UNK         0.0600 
    194 H194       -4.5176  -20.9828  -44.4872 H         1 UNK         0.0600 
    195 H195       -3.1918  -23.2622  -44.6667 H         1 UNK         0.3000 
    196 H196       -5.1220  -25.3737  -44.4551 H         1 UNK         0.0600 
    197 H197       -3.4882  -26.2876  -42.7935 H         1 UNK         0.0600 
    198 H198       -3.8414  -24.5895  -42.5126 H         1 UNK         0.0600 
    199 H199       -2.3196  -25.0575  -43.2635 H         1 UNK         0.0600 
    200 H200       -1.6529  -25.4632  -45.5453 H         1 UNK         0.3000 
    201 H201       -1.9336  -28.3104  -46.1126 H         1 UNK         0.0600 
    202 H202        0.0500  -27.3752  -44.9220 H         1 UNK         0.0600 
    203 H203        0.4915  -26.4604  -46.3632 H         1 UNK         0.0600 
    204 H204        0.5071  -28.2173  -46.3949 H         1 UNK         0.0600 
    205 H205       -1.4776  -25.3237  -48.0281 H         1 UNK         0.3000 
    206 H206       -1.2536  -26.8897  -50.5461 H         1 UNK         0.0600 
    207 H207        0.3969  -25.0512  -50.0410 H         1 UNK         0.0600 
    208 H208       -0.4911  -24.8134  -51.5333 H         1 UNK         0.0600 
    209 H209       -0.9166  -23.8809  -50.1092 H         1 UNK         0.0600 
    210 H210       -3.7443  -25.8493  -48.6932 H         1 UNK         0.3000 
    211 H211       -5.9015  -25.3612  -48.9201 H         1 UNK         0.0600 
    212 H212       -5.6648  -26.4976  -51.7585 H         1 UNK         0.0600 
    213 H213       -7.1449  -26.3064  -50.8301 H         1 UNK         0.0600 
    214 H214       -5.9232  -27.4500  -50.2975 H         1 UNK         0.0600 
    215 H215       -4.2221  -23.2428  -49.1905 H         1 UNK         0.3000 
    216 H216       -4.0162  -21.1156  -49.7338 H         1 UNK         0.0600 
    217 H217       -5.9450  -19.7759  -50.5059 H         1 UNK         0.0600 
    218 H218       -6.4367  -20.8647  -49.2189 H         1 UNK         0.0600 
    219 H219       -6.8513  -21.2312  -50.8899 H         1 UNK         0.0600 
    220 H220       -2.7791  -22.9039  -51.2415 H         1 UNK         0.3000 
    221 H221       -1.6432  -23.3450  -53.0954 H         1 UNK         0.0600 
    222 H222       -2.1509  -20.3995  -53.7116 H         1 UNK         0.0600 
    223 H223       -0.7995  -21.0506  -52.7936 H         1 UNK         0.0600 
    224 H224       -0.9319  -21.4084  -54.4996 H         1 UNK         0.0600 
    225 H225       -3.8911  -24.4857  -53.2392 H         1 UNK         0.3000 
    226 H226       -5.5395  -25.4115  -54.3805 H         1 UNK         0.0600 
    227 H227       -3.7262  -25.9380  -56.0256 H         1 UNK         0.0600 
    228 H228       -5.2884  -25.7659  -56.8087 H         1 UNK         0.0600 
    229 H229       -4.1077  -24.4686  -56.9225 H         1 UNK         0.0600 
    230 H230       -6.1916  -23.0507  -53.2899 H         1 UNK         0.3000 
    231 H231       -7.5435  -21.3201  -53.1739 H         1 UNK         0.0600 
    232 H232       -9.1990  -22.7967  -55.2869 H         1 UNK         0.0600 
    233 H233       -9.7938  -21.5816  -54.1622 H         1 UNK         0.0600 
    234 H234       -9.2235  -23.1269  -53.5548 H         1 UNK         0.0600 
    235 H235       -5.3475  -20.6979  -54.6811 H         1 UNK         0.3000 
    236 H236       -6.1421  -18.4616  -56.2910 H         1 UNK         0.0600 
    237 H237       -6.5891  -20.2046  -58.0111 H         1 UNK         0.0600 
    238 H238       -5.1639  -19.2999  -58.4646 H         1 UNK         0.0600 
    239 H239       -5.0017  -20.9142  -57.7612 H         1 UNK         0.0600 
    240 H240       -3.2958  -19.6682  -57.5451 H         1 UNK         0.3000 
    241 H241       -1.5212  -19.1065  -55.3708 H         1 UNK         0.0600 
    242 H242       -0.6440  -21.8986  -57.7205 H         1 UNK         0.3800 
    243 H243       -2.0719  -21.5181  -56.7874 H         1 UNK         0.3800 
    244 H244       -0.8860  -17.2942  -57.6914 H         1 UNK         0.0800 
    245 H245       -2.1531  -16.7788  -56.6309 H         1 UNK         0.0800 
    246 H246       -2.1618  -16.3990  -54.3549 H         1 UNK         0.0800 
    247 H247       -1.0898  -15.0280  -54.2834 H         1 UNK         0.0800 
@<TRIPOS>BOND
     1    1    2 1    
     2    1  127 1    
     3    1  128 1    
     4    1  129 1    
     5    2    3 2    
     6    2    4 am   BACKBONE|DICT|INTERRES
     7    4    5 1    
     8    4  130 1    
     9    5    6 1    
    10    5   65 1    
    11    5  131 1    
    12    6    7 1    
    13    6  132 1    
    14    6  133 1    
    15    7    8 1    
    16    8    9 1    
    17    8  134 1    
    18    8  135 1    
    19    9   10 ar   
    20    9   14 ar   
    21   10   11 ar   
    22   10  136 1    
    23   11   12 ar   
    24   11  126 1    
    25   12   13 ar   
    26   12  137 1    
    27   13   14 ar   
    28   13   15 1    
    29   14  138 1    
    30   15   16 1    
    31   15  139 1    
    32   15  140 1    
    33   16   17 1    
    34   17   18 1    
    35   17  141 1    
    36   17  142 1    
    37   18   19 1    
    38   18   67 1    
    39   18  143 1    
    40   19   20 am   BACKBONE|DICT|INTERRES
    41   19  144 1    
    42   20   21 2    
    43   20   22 1    
    44   22   23 1    
    45   22   24 1    
    46   22  145 1    
    47   23  146 1    
    48   23  147 1    
    49   23  148 1    
    50   24   25 am   BACKBONE|DICT|INTERRES
    51   24  149 1    
    52   25   26 2    
    53   25   27 1    
    54   27   28 1    
    55   27   29 1    
    56   27  150 1    
    57   28  151 1    
    58   28  152 1    
    59   28  153 1    
    60   29   30 am   BACKBONE|DICT|INTERRES
    61   29  154 1    
    62   30   31 2    
    63   30   32 1    
    64   32   33 1    
    65   32   34 1    
    66   32  155 1    
    67   33  156 1    
    68   33  157 1    
    69   33  158 1    
    70   34   35 am   BACKBONE|DICT|INTERRES
    71   34  159 1    
    72   35   36 2    
    73   35   37 1    
    74   37   38 1    
    75   37   39 1    
    76   37  160 1    
    77   38  161 1    
    78   38  162 1    
    79   38  163 1    
    80   39   40 am   BACKBONE|DICT|INTERRES
    81   39  164 1    
    82   40   41 2    
    83   40   42 1    
    84   42   43 1    
    85   42   44 1    
    86   42  165 1    
    87   43  166 1    
    88   43  167 1    
    89   43  168 1    
    90   44   45 am   BACKBONE|DICT|INTERRES
    91   44  169 1    
    92   45   46 2    
    93   45   47 1    
    94   47   48 1    
    95   47   49 1    
    96   47  170 1    
    97   48  171 1    
    98   48  172 1    
    99   48  173 1    
   100   49   50 am   BACKBONE|DICT|INTERRES
   101   49  174 1    
   102   50   51 2    
   103   50   52 1    
   104   52   53 1    
   105   52   54 1    
   106   52  175 1    
   107   53  176 1    
   108   53  177 1    
   109   53  178 1    
   110   54   55 am   BACKBONE|DICT|INTERRES
   111   54  179 1    
   112   55   56 2    
   113   55   57 1    
   114   57   58 1    
   115   57   59 1    
   116   57  180 1    
   117   58  181 1    
   118   58  182 1    
   119   58  183 1    
   120   59   60 am   BACKBONE|DICT|INTERRES
   121   59  184 1    
   122   60   61 2    
   123   60   62 1    
   124   62   63 1    
   125   62   64 1    
   126   62  185 1    
   127   63  186 1    
   128   63  187 1    
   129   63  188 1    
   130   64   65 am   BACKBONE|DICT|INTERRES
   131   64  189 1    
   132   65   66 2    
   133   67   68 2    
   134   67   69 am   BACKBONE|DICT|INTERRES
   135   69   70 1    
   136   69  190 1    
   137   70   71 1    
   138   70   72 1    
   139   70  191 1    
   140   71  192 1    
   141   71  193 1    
   142   71  194 1    
   143   72   73 2    
   144   72   74 am   BACKBONE|DICT|INTERRES
   145   74   75 1    
   146   74  195 1    
   147   75   76 1    
   148   75   77 1    
   149   75  196 1    
   150   76  197 1    
   151   76  198 1    
   152   76  199 1    
   153   77   78 2    
   154   77   79 am   BACKBONE|DICT|INTERRES
   155   79   80 1    
   156   79  200 1    
   157   80   81 1    
   158   80   82 1    
   159   80  201 1    
   160   81  202 1    
   161   81  203 1    
   162   81  204 1    
   163   82   83 2    
   164   82   84 am   BACKBONE|DICT|INTERRES
   165   84   85 1    
   166   84  205 1    
   167   85   86 1    
   168   85   87 1    
   169   85  206 1    
   170   86  207 1    
   171   86  208 1    
   172   86  209 1    
   173   87   88 2    
   174   87   89 am   BACKBONE|DICT|INTERRES
   175   89   90 1    
   176   89  210 1    
   177   90   91 1    
   178   90   92 1    
   179   90  211 1    
   180   91  212 1    
   181   91  213 1    
   182   91  214 1    
   183   92   93 2    
   184   92   94 am   BACKBONE|DICT|INTERRES
   185   94   95 1    
   186   94  215 1    
   187   95   96 1    
   188   95   97 1    
   189   95  216 1    
   190   96  217 1    
   191   96  218 1    
   192   96  219 1    
   193   97   98 2    
   194   97   99 am   BACKBONE|DICT|INTERRES
   195   99  100 1    
   196   99  220 1    
   197  100  101 1    
   198  100  102 1    
   199  100  221 1    
   200  101  222 1    
   201  101  223 1    
   202  101  224 1    
   203  102  103 2    
   204  102  104 am   BACKBONE|DICT|INTERRES
   205  104  105 1    
   206  104  225 1    
   207  105  106 1    
   208  105  107 1    
   209  105  226 1    
   210  106  227 1    
   211  106  228 1    
   212  106  229 1    
   213  107  108 2    
   214  107  109 am   BACKBONE|DICT|INTERRES
   215  109  110 1    
   216  109  230 1    
   217  110  111 1    
   218  110  112 1    
   219  110  231 1    
   220  111  232 1    
   221  111  233 1    
   222  111  234 1    
   223  112  113 2    
   224  112  114 am   BACKBONE|DICT|INTERRES
   225  114  115 1    
   226  114  235 1    
   227  115  116 1    
   228  115  117 1    
   229  115  236 1    
   230  116  237 1    
   231  116  238 1    
   232  116  239 1    
   233  117  118 2    
   234  117  119 am   BACKBONE|DICT|INTERRES
   235  119  120 1    
   236  119  240 1    
   237  120  121 1    
   238  120  124 1    
   239  120  241 1    
   240  121  122 am   BACKBONE|DICT|INTERRES
   241  121  123 2    
   242  122  242 1    
   243  122  243 1    
   244  124  125 1    
   245  124  244 1    
   246  124  245 1    
   247  125  126 1    
   248  126  246 1    
   249  126  247 1    
@<TRIPOS>SUBSTRUCTURE
     1 UNK         1 GROUP             0       ****    0 ROOT    
