@<TRIPOS>MOLECULE
3R540
247   249    1
SMALL
USER_CHARGES


@<TRIPOS>ATOM
      1 CA          3.4936  -14.2496  -44.2389 C.3       0 UNK        -0.1800 
      2 C           3.8767  -14.1699  -45.7099 C.2       0 UNK         0.5000 
      3 O           5.0546  -14.0160  -46.0312 O.2       0 UNK        -0.5000 
      4 N           2.8853  -14.2644  -46.6039 N.am      1 UNK        -0.5000 
      5 CA          3.0478  -14.1923  -48.0621 C.3       1 UNK         0.1400 
      6 C6          1.7614  -13.6606  -48.7440 C.3       23 UNK        -0.0398 
      7 S7          0.2808  -14.7002  -48.4799 S.3       23 UNK        -0.2404 
      8 C8         -0.8504  -13.9331  -49.6775 C.3       23 UNK        -0.0205 
      9 C9         -2.2195  -14.5930  -49.6602 C.ar      23 UNK        -0.0193 
     10 C10        -2.6221  -15.4257  -50.7087 C.ar      23 UNK        -0.1150 
     11 C11        -3.8953  -16.0063  -50.7192 C.ar      23 UNK        -0.0193 
     12 C12        -4.7637  -15.7433  -49.6506 C.ar      23 UNK        -0.1150 
     13 C13        -4.3583  -14.9466  -48.5780 C.ar      23 UNK        -0.0193 
     14 C14        -3.0923  -14.3589  -48.5961 C.ar      23 UNK        -0.1150 
     15 C15        -5.2766  -14.7475  -47.3836 C.3       23 UNK        -0.0205 
     16 S16        -4.6852  -15.6697  -45.9287 S.3       23 UNK        -0.2404 
     17 C17        -4.8144  -17.4077  -46.4747 C.3       23 UNK        -0.0398 
     18 CA         -3.4914  -18.0027  -47.0276 C.3       11 UNK         0.1400 
     19 N          -2.3496  -17.8345  -46.1210 N.am      11 UNK        -0.5000 
     20 C          -1.0857  -18.1711  -46.4219 C.2       10 UNK         0.5000 
     21 O          -0.7370  -18.6055  -47.5171 O.2       10 UNK        -0.5000 
     22 CA         -0.0407  -18.0922  -45.2954 C.3       10 UNK         0.1400 
     23 CB          0.6678  -16.7329  -45.2902 C.3       10 UNK        -0.1800 
     24 N          -0.5926  -18.3828  -43.9737 N.am      10 UNK        -0.5000 
     25 C          -1.1648  -19.5428  -43.6198 C.2       9 UNK         0.5000 
     26 O          -1.2642  -20.5105  -44.3734 O.2       9 UNK        -0.5000 
     27 CA         -1.7569  -19.6243  -42.2033 C.3       9 UNK         0.1400 
     28 CB         -0.7070  -20.1169  -41.1990 C.3       9 UNK        -0.1800 
     29 N          -2.2895  -18.3367  -41.7598 N.am      9 UNK        -0.5000 
     30 C          -3.4306  -17.7980  -42.2109 C.2       8 UNK         0.5000 
     31 O          -4.1808  -18.3573  -43.0115 O.2       8 UNK        -0.5000 
     32 CA         -3.7726  -16.3866  -41.6978 C.3       8 UNK         0.1400 
     33 CB         -4.5021  -16.4630  -40.3482 C.3       8 UNK        -0.1800 
     34 N          -2.5889  -15.5337  -41.5614 N.am      8 UNK        -0.5000 
     35 C          -1.8821  -15.0654  -42.5994 C.2       7 UNK         0.5000 
     36 O          -2.1642  -15.2922  -43.7737 O.2       7 UNK        -0.5000 
     37 CA         -0.6268  -14.2347  -42.2748 C.3       7 UNK         0.1400 
     38 CB         -0.9945  -12.7590  -42.0607 C.3       7 UNK        -0.1800 
     39 N           0.1349  -14.7189  -41.1193 N.am      7 UNK        -0.5000 
     40 C           0.6925  -15.9329  -41.0297 C.2       6 UNK         0.5000 
     41 O           0.5271  -16.8261  -41.8612 O.2       6 UNK        -0.5000 
     42 CA          1.5649  -16.2109  -39.7970 C.3       6 UNK         0.1400 
     43 CB          0.8379  -17.1370  -38.8102 C.3       6 UNK        -0.1800 
     44 N           2.8231  -16.8304  -40.2094 N.am      6 UNK        -0.5000 
     45 C           3.8570  -16.1552  -40.7291 C.2       5 UNK         0.5000 
     46 O           3.8872  -14.9281  -40.8296 O.2       5 UNK        -0.5000 
     47 CA          5.0679  -16.9791  -41.2053 C.3       5 UNK         0.1400 
     48 CB          6.1140  -17.0882  -40.0851 C.3       5 UNK        -0.1800 
     49 N           4.7163  -18.3260  -41.6618 N.am      5 UNK        -0.5000 
     50 C           4.1659  -18.5973  -42.8518 C.2       4 UNK         0.5000 
     51 O           3.8428  -17.7384  -43.6742 O.2       4 UNK        -0.5000 
     52 CA          3.9311  -20.0826  -43.1748 C.3       4 UNK         0.1400 
     53 CB          2.4597  -20.4594  -42.9642 C.3       4 UNK        -0.1800 
     54 N           4.3046  -20.3631  -44.5588 N.am      4 UNK        -0.5000 
     55 C           5.5585  -20.5997  -44.9648 C.2       3 UNK         0.5000 
     56 O           6.5183  -20.6986  -44.1989 O.2       3 UNK        -0.5000 
     57 CA          5.7834  -20.7557  -46.4814 C.3       3 UNK         0.1400 
     58 CB          5.6498  -22.2301  -46.8933 C.3       3 UNK        -0.1800 
     59 N           4.8798  -19.9482  -47.3059 N.am      3 UNK        -0.5000 
     60 C           4.8728  -18.6087  -47.3534 C.2       2 UNK         0.5000 
     61 O           5.6223  -17.9008  -46.6776 O.2       2 UNK        -0.5000 
     62 CA          3.8945  -17.9556  -48.3469 C.3       2 UNK         0.1400 
     63 CB          2.5781  -18.7363  -48.5257 C.3       2 UNK        -0.1800 
     64 N           3.5762  -16.5997  -47.9112 N.am      2 UNK        -0.5000 
     65 C           3.5194  -15.5210  -48.7001 C.2       1 UNK         0.5000 
     66 O           3.8012  -15.5419  -49.8998 O.2       1 UNK        -0.5000 
     67 C          -3.6975  -19.4861  -47.4024 C.2       11 UNK         0.5000 
     68 O          -3.8250  -19.8080  -48.5833 O.2       11 UNK        -0.5000 
     69 N          -3.6791  -20.3669  -46.3911 N.am      12 UNK        -0.5000 
     70 CA         -3.8128  -21.8147  -46.5537 C.3       12 UNK         0.1400 
     71 CB         -4.0940  -22.4613  -45.1894 C.3       12 UNK        -0.1800 
     72 C          -2.5807  -22.4509  -47.2211 C.2       12 UNK         0.5000 
     73 O          -2.7348  -23.3568  -48.0406 O.2       12 UNK        -0.5000 
     74 N          -1.3823  -21.9495  -46.8926 N.am      13 UNK        -0.5000 
     75 CA         -0.1279  -22.3533  -47.5273 C.3       13 UNK         0.1400 
     76 CB          1.0639  -21.7673  -46.7584 C.3       13 UNK        -0.1800 
     77 C          -0.0830  -21.9718  -49.0187 C.2       13 UNK         0.5000 
     78 O           0.3027  -22.8044  -49.8370 O.2       13 UNK        -0.5000 
     79 N          -0.5331  -20.7540  -49.3568 N.am      14 UNK        -0.5000 
     80 CA         -0.7033  -20.2833  -50.7333 C.3       14 UNK         0.1400 
     81 CB         -1.0600  -18.7894  -50.7351 C.3       14 UNK        -0.1800 
     82 C          -1.7576  -21.0935  -51.5098 C.2       14 UNK         0.5000 
     83 O          -1.5452  -21.3943  -52.6875 O.2       14 UNK        -0.5000 
     84 N          -2.8547  -21.4650  -50.8307 N.am      15 UNK        -0.5000 
     85 CA         -3.9038  -22.3415  -51.3528 C.3       15 UNK         0.1400 
     86 CB         -5.0476  -22.4853  -50.3401 C.3       15 UNK        -0.1800 
     87 C          -3.3631  -23.7221  -51.7490 C.2       15 UNK         0.5000 
     88 O          -3.6000  -24.1620  -52.8742 O.2       15 UNK        -0.5000 
     89 N          -2.6186  -24.3466  -50.8270 N.am      16 UNK        -0.5000 
     90 CA         -1.9548  -25.6337  -51.0202 C.3       16 UNK         0.1400 
     91 CB         -1.3819  -26.1118  -49.6773 C.3       16 UNK        -0.1800 
     92 C          -0.8553  -25.5893  -52.0968 C.2       16 UNK         0.5000 
     93 O          -0.7010  -26.5598  -52.8394 O.2       16 UNK        -0.5000 
     94 N          -0.1186  -24.4711  -52.1642 N.am      17 UNK        -0.5000 
     95 CA          0.9454  -24.2356  -53.1365 C.3       17 UNK         0.1400 
     96 CB          1.7462  -22.9816  -52.7528 C.3       17 UNK        -0.1800 
     97 C           0.4291  -24.1307  -54.5809 C.2       17 UNK         0.5000 
     98 O           0.9925  -24.7874  -55.4586 O.2       17 UNK        -0.5000 
     99 N          -0.6174  -23.3220  -54.8104 N.am      18 UNK        -0.5000 
    100 CA        -1.1627  -23.0968  -56.1523 C.3       18 UNK         0.1400 
    101 CB        -0.1986  -22.2224  -56.9823 C.3       18 UNK        -0.1800 
    102 C         -2.5647  -22.4695  -56.1836 C.2       18 UNK         0.5000 
    103 O         -3.2999  -22.7343  -57.1361 O.2       18 UNK        -0.5000 
    104 N         -2.9036  -21.6061  -55.2141 N.am      19 UNK        -0.5000 
    105 CA        -4.0600  -20.7082  -55.3242 C.3       19 UNK         0.1400 
    106 CB        -3.9270  -19.5629  -54.3095 C.3       19 UNK        -0.1800 
    107 C         -5.4350  -21.3950  -55.2092 C.2       19 UNK         0.5000 
    108 O         -6.4065  -20.8641  -55.7488 O.2       19 UNK        -0.5000 
    109 N         -5.4938  -22.5469  -54.5231 N.am      20 UNK        -0.5000 
    110 CA        -6.6473  -23.4231  -54.2705 C.3       20 UNK         0.1400 
    111 CB        -7.1611  -24.0462  -55.5820 C.3       20 UNK        -0.1800 
    112 C         -7.8030  -22.7878  -53.4674 C.2       20 UNK         0.5000 
    113 O         -8.1805  -23.3169  -52.4218 O.2       20 UNK        -0.5000 
    114 N         -8.3497  -21.6739  -53.9661 N.am      21 UNK        -0.5000 
    115 CA        -9.5201  -20.9722  -53.4324 C.3       21 UNK         0.1400 
    116 CB       -10.0317  -19.9945  -54.5016 C.3       21 UNK        -0.1800 
    117 C         -9.2619  -20.2305  -52.1066 C.2       21 UNK         0.5000 
    118 O        -10.2177  -19.9032  -51.4023 O.2       21 UNK        -0.5000 
    119 N         -7.9866  -19.9755  -51.7933 N.am      22 UNK        -0.5000 
    120 CA        -7.5256  -19.2866  -50.5767 C.3       22 UNK         0.1400 
    121 C         -7.6717  -20.0992  -49.2538 C.2       22 UNK         0.5000 
    122 N         -8.0684  -21.3662  -49.2837 N.am      22 UNK        -0.7600 
    123 O         -7.4327  -19.5619  -48.1761 O.2       22 UNK        -0.5000 
    124 C124       -6.0842  -18.7490  -50.7606 C.3       23 UNK        -0.0398 
    125 S125       -6.0113  -17.4288  -52.0179 S.3       23 UNK        -0.2404 
    126 C126       -4.2634  -16.9128  -51.8976 C.3       23 UNK        -0.0205 
    127 H127        2.4287  -14.4369  -44.1020 H         1 UNK         0.0600 
    128 H128        3.7421  -13.3168  -43.7330 H         1 UNK         0.0600 
    129 H129        4.0435  -15.0549  -43.7536 H         1 UNK         0.0600 
    130 H130        1.9339  -14.3848  -46.2869 H         1 UNK         0.3000 
    131 H131        3.8362  -13.4665  -48.2728 H         1 UNK         0.0600 
    132 H132        1.5415  -12.6593  -48.3711 H         1 UNK         0.0800 
    133 H133        1.9253  -13.5433  -49.8169 H         1 UNK         0.0800 
    134 H134       -0.4121  -13.9902  -50.6751 H         1 UNK         0.0800 
    135 H135       -0.9585  -12.8724  -49.4461 H         1 UNK         0.0800 
    136 H136       -1.9417  -15.6189  -51.5263 H         1 UNK         0.1150 
    137 H137       -5.7557  -16.1654  -49.6262 H         1 UNK         0.1150 
    138 H138       -2.7773  -13.7370  -47.7697 H         1 UNK         0.1150 
    139 H139       -5.3205  -13.6860  -47.1362 H         1 UNK         0.0800 
    140 H140       -6.2984  -15.0512  -47.6166 H         1 UNK         0.0800 
    141 H141       -5.6068  -17.4859  -47.2214 H         1 UNK         0.0800 
    142 H142       -5.1589  -17.9852  -45.6151 H         1 UNK         0.0800 
    143 H143       -3.2387  -17.4747  -47.9485 H         1 UNK         0.0600 
    144 H144       -2.5471  -17.4442  -45.2092 H         1 UNK         0.3000 
    145 H145        0.7165  -18.8499  -45.4936 H         1 UNK         0.0600 
    146 H146       -0.0316  -15.9099  -45.1507 H         1 UNK         0.0600 
    147 H147        1.4184  -16.6814  -44.5017 H         1 UNK         0.0600 
    148 H148        1.1783  -16.5714  -46.2388 H         1 UNK         0.0600 
    149 H149       -0.4650  -17.6688  -43.2623 H         1 UNK         0.3000 
    150 H150       -2.5725  -20.3504  -42.2248 H         1 UNK         0.0600 
    151 H151       -0.3173  -21.0931  -41.4905 H         1 UNK         0.0600 
    152 H152       -1.1320  -20.2204  -40.2006 H         1 UNK         0.0600 
    153 H153        0.1369  -19.4310  -41.1360 H         1 UNK         0.0600 
    154 H154       -1.7035  -17.7894  -41.1471 H         1 UNK         0.3000 
    155 H155       -4.4456  -15.9246  -42.4237 H         1 UNK         0.0600 
    156 H156       -4.8159  -15.4742  -40.0133 H         1 UNK         0.0600 
    157 H157       -5.3992  -17.0789  -40.4246 H         1 UNK         0.0600 
    158 H158       -3.8711  -16.8968  -39.5714 H         1 UNK         0.0600 
    159 H159       -2.2898  -15.3024  -40.6256 H         1 UNK         0.3000 
    160 H160        0.0315  -14.2938  -43.1438 H         1 UNK         0.0600 
    161 H161       -1.5462  -12.3661  -42.9159 H         1 UNK         0.0600 
    162 H162       -0.1028  -12.1433  -41.9413 H         1 UNK         0.0600 
    163 H163       -1.6187  -12.6231  -41.1766 H         1 UNK         0.0600 
    164 H164        0.3096  -14.0465  -40.3864 H         1 UNK         0.3000 
    165 H165        1.7794  -15.2693  -39.2868 H         1 UNK         0.0600 
    166 H166        1.4351  -17.2992  -37.9127 H         1 UNK         0.0600 
    167 H167       -0.1116  -16.7035  -38.4937 H         1 UNK         0.0600 
    168 H168        0.6245  -18.1118  -39.2479 H         1 UNK         0.0600 
    169 H169        2.8565  -17.8384  -40.2075 H         1 UNK         0.3000 
    170 H170        5.5234  -16.4397  -42.0389 H         1 UNK         0.0600 
    171 H171        6.4201  -16.1000  -39.7389 H         1 UNK         0.0600 
    172 H172        5.7268  -17.6325  -39.2228 H         1 UNK         0.0600 
    173 H173        7.0114  -17.6012  -40.4318 H         1 UNK         0.0600 
    174 H174        4.9550  -19.0876  -41.0431 H         1 UNK         0.3000 
    175 H175        4.5378  -20.6988  -42.5075 H         1 UNK         0.0600 
    176 H176        1.7995  -19.8412  -43.5702 H         1 UNK         0.0600 
    177 H177        2.2736  -21.5025  -43.2205 H         1 UNK         0.0600 
    178 H178        2.1765  -20.3246  -41.9207 H         1 UNK         0.0600 
    179 H179        3.5881  -20.2384  -45.2567 H         1 UNK         0.3000 
    180 H180        6.8054  -20.4347  -46.6944 H         1 UNK         0.0600 
    181 H181        4.6386  -22.6045  -46.7291 H         1 UNK         0.0600 
    182 H182        6.3299  -22.8595  -46.3177 H         1 UNK         0.0600 
    183 H183        5.8939  -22.3702  -47.9465 H         1 UNK         0.0600 
    184 H184        4.2491  -20.4567  -47.9074 H         1 UNK         0.3000 
    185 H185        4.4131  -17.9286  -49.3072 H         1 UNK         0.0600 
    186 H186        1.9130  -18.2234  -49.2203 H         1 UNK         0.0600 
    187 H187        2.7408  -19.7370  -48.9265 H         1 UNK         0.0600 
    188 H188        2.0485  -18.8290  -47.5795 H         1 UNK         0.0600 
    189 H189        3.4327  -16.4785  -46.9187 H         1 UNK         0.3000 
    190 H190       -3.5036  -20.0308  -45.4547 H         1 UNK         0.3000 
    191 H191       -4.6732  -22.0022  -47.1997 H         1 UNK         0.0600 
    192 H192       -3.2734  -22.3045  -44.4888 H         1 UNK         0.0600 
    193 H193       -4.2358  -23.5379  -45.2917 H         1 UNK         0.0600 
    194 H194       -5.0006  -22.0554  -44.7403 H         1 UNK         0.0600 
    195 H195       -1.3306  -21.2519  -46.1558 H         1 UNK         0.3000 
    196 H196       -0.0605  -23.4415  -47.4652 H         1 UNK         0.0600 
    197 H197        2.0094  -22.0782  -47.2039 H         1 UNK         0.0600 
    198 H198        1.0653  -22.0979  -45.7195 H         1 UNK         0.0600 
    199 H199        1.0377  -20.6814  -46.7620 H         1 UNK         0.0600 
    200 H200       -0.7844  -20.0947  -48.6231 H         1 UNK         0.3000 
    201 H201        0.2525  -20.4021  -51.2464 H         1 UNK         0.0600 
    202 H202       -0.2743  -18.1935  -50.2714 H         1 UNK         0.0600 
    203 H203       -1.9840  -18.5948  -50.1900 H         1 UNK         0.0600 
    204 H204       -1.1900  -18.4183  -51.7523 H         1 UNK         0.0600 
    205 H205       -2.9799  -21.1157  -49.8860 H         1 UNK         0.3000 
    206 H206       -4.3079  -21.8612  -52.2403 H         1 UNK         0.0600 
    207 H207       -5.3136  -21.5286  -49.9009 H         1 UNK         0.0600 
    208 H208       -5.9388  -22.8872  -50.8217 H         1 UNK         0.0600 
    209 H209       -4.7998  -23.1581  -49.5209 H         1 UNK         0.0600 
    210 H210       -2.5068  -23.9096  -49.9162 H         1 UNK         0.3000 
    211 H211       -2.7095  -26.3526  -51.3457 H         1 UNK         0.0600 
    212 H212       -0.6388  -25.4154  -49.2869 H         1 UNK         0.0600 
    213 H213       -0.8998  -27.0846  -49.7813 H         1 UNK         0.0600 
    214 H214       -2.1673  -26.2150  -48.9284 H         1 UNK         0.0600 
    215 H215       -0.2542  -23.7544  -51.4578 H         1 UNK         0.3000 
    216 H216        1.6261  -25.0883  -53.0910 H         1 UNK         0.0600 
    217 H217        2.5533  -22.8016  -53.4640 H         1 UNK         0.0600 
    218 H218        2.2012  -23.0895  -51.7683 H         1 UNK         0.0600 
    219 H219        1.1191  -22.0909  -52.7382 H         1 UNK         0.0600 
    220 H220       -1.0413  -22.8234  -54.0349 H         1 UNK         0.3000 
    221 H221       -1.2565  -24.0673  -56.6448 H         1 UNK         0.0600 
    222 H222       -0.0036  -21.2688  -56.4902 H         1 UNK         0.0600 
    223 H223        0.7592  -22.7156  -57.1457 H         1 UNK         0.0600 
    224 H224       -0.6129  -22.0042  -57.9676 H         1 UNK         0.0600 
    225 H225       -2.2771  -21.4419  -54.4315 H         1 UNK         0.3000 
    226 H226       -4.0241  -20.2557  -56.3178 H         1 UNK         0.0600 
    227 H227       -2.9825  -19.0327  -54.4329 H         1 UNK         0.0600 
    228 H228       -4.7259  -18.8332  -54.4457 H         1 UNK         0.0600 
    229 H229       -3.9796  -19.9128  -53.2809 H         1 UNK         0.0600 
    230 H230       -4.6209  -22.9060  -54.1512 H         1 UNK         0.3000 
    231 H231       -6.2628  -24.2401  -53.6581 H         1 UNK         0.0600 
    232 H232       -7.9659  -24.7561  -55.3874 H         1 UNK         0.0600 
    233 H233       -6.3666  -24.5883  -56.0952 H         1 UNK         0.0600 
    234 H234       -7.5489  -23.2941  -56.2696 H         1 UNK         0.0600 
    235 H235       -7.9139  -21.2792  -54.7971 H         1 UNK         0.3000 
    236 H236      -10.3006  -21.7120  -53.2433 H         1 UNK         0.0600 
    237 H237      -10.9242  -19.4690  -54.1591 H         1 UNK         0.0600 
    238 H238      -10.2968  -20.5181  -55.4203 H         1 UNK         0.0600 
    239 H239       -9.2810  -19.2425  -54.7484 H         1 UNK         0.0600 
    240 H240       -7.2737  -20.2681  -52.4432 H         1 UNK         0.3000 
    241 H241       -8.1769  -18.4215  -50.4370 H         1 UNK         0.0600 
    242 H242       -8.1709  -21.8713  -48.4184 H         1 UNK         0.3800 
    243 H243       -8.2804  -21.8204  -50.1586 H         1 UNK         0.3800 
    244 H244       -5.6920  -18.3614  -49.8212 H         1 UNK         0.0800 
    245 H245       -5.4058  -19.5484  -51.0580 H         1 UNK         0.0800 
    246 H246       -3.6368  -17.8040  -51.8668 H         1 UNK         0.0800 
    247 H247       -4.0118  -16.3942  -52.8238 H         1 UNK         0.0800 
@<TRIPOS>BOND
     1    1    2 1    
     2    1  127 1    
     3    1  128 1    
     4    1  129 1    
     5    2    3 2    
     6    2    4 am   BACKBONE|DICT|INTERRES
     7    4    5 1    
     8    4  130 1    
     9    5    6 1    
    10    5   65 1    
    11    5  131 1    
    12    6    7 1    
    13    6  132 1    
    14    6  133 1    
    15    7    8 1    
    16    8    9 1    
    17    8  134 1    
    18    8  135 1    
    19    9   10 ar   
    20    9   14 ar   
    21   10   11 ar   
    22   10  136 1    
    23   11   12 ar   
    24   11  126 1    
    25   12   13 ar   
    26   12  137 1    
    27   13   14 ar   
    28   13   15 1    
    29   14  138 1    
    30   15   16 1    
    31   15  139 1    
    32   15  140 1    
    33   16   17 1    
    34   17   18 1    
    35   17  141 1    
    36   17  142 1    
    37   18   19 1    
    38   18   67 1    
    39   18  143 1    
    40   19   20 am   BACKBONE|DICT|INTERRES
    41   19  144 1    
    42   20   21 2    
    43   20   22 1    
    44   22   23 1    
    45   22   24 1    
    46   22  145 1    
    47   23  146 1    
    48   23  147 1    
    49   23  148 1    
    50   24   25 am   BACKBONE|DICT|INTERRES
    51   24  149 1    
    52   25   26 2    
    53   25   27 1    
    54   27   28 1    
    55   27   29 1    
    56   27  150 1    
    57   28  151 1    
    58   28  152 1    
    59   28  153 1    
    60   29   30 am   BACKBONE|DICT|INTERRES
    61   29  154 1    
    62   30   31 2    
    63   30   32 1    
    64   32   33 1    
    65   32   34 1    
    66   32  155 1    
    67   33  156 1    
    68   33  157 1    
    69   33  158 1    
    70   34   35 am   BACKBONE|DICT|INTERRES
    71   34  159 1    
    72   35   36 2    
    73   35   37 1    
    74   37   38 1    
    75   37   39 1    
    76   37  160 1    
    77   38  161 1    
    78   38  162 1    
    79   38  163 1    
    80   39   40 am   BACKBONE|DICT|INTERRES
    81   39  164 1    
    82   40   41 2    
    83   40   42 1    
    84   42   43 1    
    85   42   44 1    
    86   42  165 1    
    87   43  166 1    
    88   43  167 1    
    89   43  168 1    
    90   44   45 am   BACKBONE|DICT|INTERRES
    91   44  169 1    
    92   45   46 2    
    93   45   47 1    
    94   47   48 1    
    95   47   49 1    
    96   47  170 1    
    97   48  171 1    
    98   48  172 1    
    99   48  173 1    
   100   49   50 am   BACKBONE|DICT|INTERRES
   101   49  174 1    
   102   50   51 2    
   103   50   52 1    
   104   52   53 1    
   105   52   54 1    
   106   52  175 1    
   107   53  176 1    
   108   53  177 1    
   109   53  178 1    
   110   54   55 am   BACKBONE|DICT|INTERRES
   111   54  179 1    
   112   55   56 2    
   113   55   57 1    
   114   57   58 1    
   115   57   59 1    
   116   57  180 1    
   117   58  181 1    
   118   58  182 1    
   119   58  183 1    
   120   59   60 am   BACKBONE|DICT|INTERRES
   121   59  184 1    
   122   60   61 2    
   123   60   62 1    
   124   62   63 1    
   125   62   64 1    
   126   62  185 1    
   127   63  186 1    
   128   63  187 1    
   129   63  188 1    
   130   64   65 am   BACKBONE|DICT|INTERRES
   131   64  189 1    
   132   65   66 2    
   133   67   68 2    
   134   67   69 am   BACKBONE|DICT|INTERRES
   135   69   70 1    
   136   69  190 1    
   137   70   71 1    
   138   70   72 1    
   139   70  191 1    
   140   71  192 1    
   141   71  193 1    
   142   71  194 1    
   143   72   73 2    
   144   72   74 am   BACKBONE|DICT|INTERRES
   145   74   75 1    
   146   74  195 1    
   147   75   76 1    
   148   75   77 1    
   149   75  196 1    
   150   76  197 1    
   151   76  198 1    
   152   76  199 1    
   153   77   78 2    
   154   77   79 am   BACKBONE|DICT|INTERRES
   155   79   80 1    
   156   79  200 1    
   157   80   81 1    
   158   80   82 1    
   159   80  201 1    
   160   81  202 1    
   161   81  203 1    
   162   81  204 1    
   163   82   83 2    
   164   82   84 am   BACKBONE|DICT|INTERRES
   165   84   85 1    
   166   84  205 1    
   167   85   86 1    
   168   85   87 1    
   169   85  206 1    
   170   86  207 1    
   171   86  208 1    
   172   86  209 1    
   173   87   88 2    
   174   87   89 am   BACKBONE|DICT|INTERRES
   175   89   90 1    
   176   89  210 1    
   177   90   91 1    
   178   90   92 1    
   179   90  211 1    
   180   91  212 1    
   181   91  213 1    
   182   91  214 1    
   183   92   93 2    
   184   92   94 am   BACKBONE|DICT|INTERRES
   185   94   95 1    
   186   94  215 1    
   187   95   96 1    
   188   95   97 1    
   189   95  216 1    
   190   96  217 1    
   191   96  218 1    
   192   96  219 1    
   193   97   98 2    
   194   97   99 am   BACKBONE|DICT|INTERRES
   195   99  100 1    
   196   99  220 1    
   197  100  101 1    
   198  100  102 1    
   199  100  221 1    
   200  101  222 1    
   201  101  223 1    
   202  101  224 1    
   203  102  103 2    
   204  102  104 am   BACKBONE|DICT|INTERRES
   205  104  105 1    
   206  104  225 1    
   207  105  106 1    
   208  105  107 1    
   209  105  226 1    
   210  106  227 1    
   211  106  228 1    
   212  106  229 1    
   213  107  108 2    
   214  107  109 am   BACKBONE|DICT|INTERRES
   215  109  110 1    
   216  109  230 1    
   217  110  111 1    
   218  110  112 1    
   219  110  231 1    
   220  111  232 1    
   221  111  233 1    
   222  111  234 1    
   223  112  113 2    
   224  112  114 am   BACKBONE|DICT|INTERRES
   225  114  115 1    
   226  114  235 1    
   227  115  116 1    
   228  115  117 1    
   229  115  236 1    
   230  116  237 1    
   231  116  238 1    
   232  116  239 1    
   233  117  118 2    
   234  117  119 am   BACKBONE|DICT|INTERRES
   235  119  120 1    
   236  119  240 1    
   237  120  121 1    
   238  120  124 1    
   239  120  241 1    
   240  121  122 am   BACKBONE|DICT|INTERRES
   241  121  123 2    
   242  122  242 1    
   243  122  243 1    
   244  124  125 1    
   245  124  244 1    
   246  124  245 1    
   247  125  126 1    
   248  126  246 1    
   249  126  247 1    
@<TRIPOS>SUBSTRUCTURE
     1 UNK         1 GROUP             0       ****    0 ROOT    
