@<TRIPOS>MOLECULE
3R540
247   249    1
SMALL
USER_CHARGES


@<TRIPOS>ATOM
      1 CA          6.1472  -10.4154  -48.2068 C.3       0 UNK        -0.1800 
      2 C           4.9860  -11.3209  -47.8225 C.2       0 UNK         0.5000 
      3 O           5.0304  -11.9655  -46.7741 O.2       0 UNK        -0.5000 
      4 N           3.9391  -11.3652  -48.6566 N.am      1 UNK        -0.5000 
      5 CA          2.7238  -12.1672  -48.4669 C.3       1 UNK         0.1400 
      6 C6          2.0648  -12.5117  -49.8294 C.3       23 UNK        -0.0398 
      7 S7          1.0534  -14.0326  -49.7629 S.3       23 UNK        -0.2404 
      8 C8          1.8052  -15.0105  -51.1010 C.3       23 UNK        -0.0205 
      9 C9          1.0208  -16.2854  -51.3682 C.ar      23 UNK        -0.0193 
     10 C10        -0.1332  -16.2442  -52.1566 C.ar      23 UNK        -0.1150 
     11 C11        -0.8544  -17.4117  -52.4230 C.ar      23 UNK        -0.0193 
     12 C12        -0.4089  -18.6274  -51.8968 C.ar      23 UNK        -0.1150 
     13 C13         0.7300  -18.6800  -51.0886 C.ar      23 UNK        -0.0193 
     14 C14         1.4488  -17.5063  -50.8382 C.ar      23 UNK        -0.1150 
     15 C15         1.1597  -20.0035  -50.4677 C.3       23 UNK        -0.0205 
     16 S16         1.2125  -19.9400  -48.6455 S.3       23 UNK        -0.2404 
     17 C17        -0.4757  -19.3943  -48.2170 C.3       23 UNK        -0.0398 
     18 CA         -1.3422  -20.5148  -47.6014 C.3       11 UNK         0.1400 
     19 N          -0.7710  -21.0580  -46.3693 N.am      11 UNK        -0.5000 
     20 C          -1.0633  -22.2483  -45.8342 C.2       10 UNK         0.5000 
     21 O          -1.7935  -23.0753  -46.3850 O.2       10 UNK        -0.5000 
     22 CA         -0.4688  -22.5374  -44.4388 C.3       10 UNK         0.1400 
     23 CB         -0.3020  -24.0450  -44.1594 C.3       10 UNK        -0.1800 
     24 N           0.7682  -21.7910  -44.1721 N.am      10 UNK        -0.5000 
     25 C           1.9638  -21.9487  -44.7622 C.2       9 UNK         0.5000 
     26 O           2.2157  -22.8353  -45.5761 O.2       9 UNK        -0.5000 
     27 CA          3.0730  -20.9383  -44.4064 C.3       9 UNK         0.1400 
     28 CB          3.3281  -19.9945  -45.5916 C.3       9 UNK        -0.1800 
     29 N           2.7814  -20.1313  -43.2213 N.am      9 UNK        -0.5000 
     30 C           2.8520  -20.5675  -41.9573 C.2       8 UNK         0.5000 
     31 O           3.2102  -21.7032  -41.6436 O.2       8 UNK        -0.5000 
     32 CA          2.4185  -19.5747  -40.8614 C.3       8 UNK         0.1400 
     33 CB          3.5831  -18.6512  -40.4735 C.3       8 UNK        -0.1800 
     34 N           1.2583  -18.7639  -41.2422 N.am      8 UNK        -0.5000 
     35 C           0.0371  -19.2549  -41.4989 C.2       7 UNK         0.5000 
     36 O          -0.2464  -20.4515  -41.4434 O.2       7 UNK        -0.5000 
     37 CA         -1.0389  -18.2496  -41.9406 C.3       7 UNK         0.1400 
     38 CB         -1.5738  -17.4445  -40.7475 C.3       7 UNK        -0.1800 
     39 N          -0.5529  -17.3434  -42.9807 N.am      7 UNK        -0.5000 
     40 C          -0.2450  -17.7254  -44.2274 C.2       6 UNK         0.5000 
     41 O          -0.4425  -18.8619  -44.6565 O.2       6 UNK        -0.5000 
     42 CA          0.4078  -16.6824  -45.1506 C.3       6 UNK         0.1400 
     43 CB         -0.6600  -15.8569  -45.8826 C.3       6 UNK        -0.1800 
     44 N           1.3187  -15.7875  -44.4410 N.am      6 UNK        -0.5000 
     45 C           2.4476  -16.1712  -43.8305 C.2       5 UNK         0.5000 
     46 O           2.8623  -17.3288  -43.8226 O.2       5 UNK        -0.5000 
     47 CA          3.2069  -15.0897  -43.0459 C.3       5 UNK         0.1400 
     48 CB          4.0238  -14.1910  -43.9875 C.3       5 UNK        -0.1800 
     49 N           2.3017  -14.2734  -42.2373 N.am      5 UNK        -0.5000 
     50 C           1.6256  -14.7243  -41.1710 C.2       4 UNK         0.5000 
     51 O           1.7173  -15.8732  -40.7382 O.2       4 UNK        -0.5000 
     52 CA          0.6563  -13.7343  -40.4999 C.3       4 UNK         0.1400 
     53 CB          1.4064  -12.8249  -39.5153 C.3       4 UNK        -0.1800 
     54 N          -0.0650  -12.9093  -41.4705 N.am      4 UNK        -0.5000 
     55 C          -0.9866  -13.3794  -42.3229 C.2       3 UNK         0.5000 
     56 O          -1.3452  -14.5556  -42.3623 O.2       3 UNK        -0.5000 
     57 CA         -1.5626  -12.3742  -43.3385 C.3       3 UNK         0.1400 
     58 CB         -2.6992  -11.5562  -42.7078 C.3       3 UNK        -0.1800 
     59 N          -0.5550  -11.4647  -43.8963 N.am      3 UNK        -0.5000 
     60 C           0.5216  -11.8655  -44.5847 C.2       2 UNK         0.5000 
     61 O           0.8019  -13.0502  -44.7749 O.2       2 UNK        -0.5000 
     62 CA          1.4694  -10.7692  -45.1017 C.3       2 UNK         0.1400 
     63 CB          2.4416  -10.3384  -43.9925 C.3       2 UNK        -0.1800 
     64 N           2.2476  -11.2487  -46.2427 N.am      2 UNK        -0.5000 
     65 C           1.7579  -11.4866  -47.4655 C.2       1 UNK         0.5000 
     66 O           0.6178  -11.1656  -47.8077 O.2       1 UNK        -0.5000 
     67 C          -2.7595  -19.9840  -47.3274 C.2       11 UNK         0.5000 
     68 O          -3.6678  -20.2470  -48.1130 O.2       11 UNK        -0.5000 
     69 N          -2.9374  -19.2935  -46.1890 N.am      12 UNK        -0.5000 
     70 CA         -4.2298  -18.7683  -45.7302 C.3       12 UNK         0.1400 
     71 CB         -4.0019  -17.7676  -44.5881 C.3       12 UNK        -0.1800 
     72 C          -5.2030  -19.8811  -45.2923 C.2       12 UNK         0.5000 
     73 O          -6.4172  -19.6867  -45.3401 O.2       12 UNK        -0.5000 
     74 N          -4.6468  -21.0415  -44.9178 N.am      13 UNK        -0.5000 
     75 CA         -5.3695  -22.2870  -44.6553 C.3       13 UNK         0.1400 
     76 CB         -4.4916  -23.1761  -43.7586 C.3       13 UNK        -0.1800 
     77 C          -5.7597  -23.0390  -45.9477 C.2       13 UNK         0.5000 
     78 O          -6.4098  -24.0799  -45.8587 O.2       13 UNK        -0.5000 
     79 N          -5.3273  -22.5264  -47.1114 N.am      14 UNK        -0.5000 
     80 CA         -5.5041  -23.0325  -48.4775 C.3       14 UNK         0.1400 
     81 CB         -6.9921  -23.2448  -48.8203 C.3       14 UNK        -0.1800 
     82 C          -4.6598  -24.2750  -48.8185 C.2       14 UNK         0.5000 
     83 O          -4.6161  -24.6529  -49.9887 O.2       14 UNK        -0.5000 
     84 N          -3.9883  -24.8728  -47.8259 N.am      15 UNK        -0.5000 
     85 CA         -3.2107  -26.1040  -47.9471 C.3       15 UNK         0.1400 
     86 CB         -2.8092  -26.5931  -46.5467 C.3       15 UNK        -0.1800 
     87 C          -1.9802  -25.9404  -48.8518 C.2       15 UNK         0.5000 
     88 O          -1.8302  -26.6896  -49.8174 O.2       15 UNK        -0.5000 
     89 N          -1.1470  -24.9333  -48.5576 N.am      16 UNK        -0.5000 
     90 CA          0.0584  -24.6243  -49.3349 C.3       16 UNK         0.1400 
     91 CB          1.0073  -23.7679  -48.4911 C.3       16 UNK        -0.1800 
     92 C          -0.2518  -23.9398  -50.6788 C.2       16 UNK         0.5000 
     93 O           0.5825  -23.9701  -51.5832 O.2       16 UNK        -0.5000 
     94 N          -1.4555  -23.3642  -50.7961 N.am      17 UNK        -0.5000 
     95 CA         -2.0013  -22.8167  -52.0368 C.3       17 UNK         0.1400 
     96 CB         -3.0144  -21.7157  -51.6821 C.3       17 UNK        -0.1800 
     97 C          -2.6667  -23.8948  -52.9188 C.2       17 UNK         0.5000 
     98 O          -3.1251  -23.5681  -54.0148 O.2       17 UNK        -0.5000 
     99 N          -2.7763  -25.1366  -52.4158 N.am      18 UNK        -0.5000 
    100 CA        -3.4422  -26.2961  -53.0275 C.3       18 UNK         0.1400 
    101 CB        -2.6302  -26.7901  -54.2423 C.3       18 UNK        -0.1800 
    102 C         -4.9284  -26.0478  -53.3777 C.2       18 UNK         0.5000 
    103 O         -5.4658  -26.6981  -54.2758 O.2       18 UNK        -0.5000 
    104 N         -5.5454  -25.0787  -52.6838 N.am      19 UNK        -0.5000 
    105 CA        -6.8632  -24.4868  -52.9256 C.3       19 UNK         0.1400 
    106 CB        -7.9704  -25.4710  -52.4976 C.3       19 UNK        -0.1800 
    107 C         -7.0583  -23.9453  -54.3628 C.2       19 UNK         0.5000 
    108 O         -8.1890  -23.9371  -54.8542 O.2       19 UNK        -0.5000 
    109 N         -5.9686  -23.5159  -55.0202 N.am      20 UNK        -0.5000 
    110 CA        -5.9725  -23.1455  -56.4373 C.3       20 UNK         0.1400 
    111 CB        -5.6150  -24.3777  -57.2858 C.3       20 UNK        -0.1800 
    112 C         -5.0398  -21.9725  -56.7737 C.2       20 UNK         0.5000 
    113 O         -5.4032  -21.1535  -57.6197 O.2       20 UNK        -0.5000 
    114 N         -3.8633  -21.8942  -56.1325 N.am      21 UNK        -0.5000 
    115 CA        -2.7973  -20.9391  -56.4652 C.3       21 UNK         0.1400 
    116 CB        -1.5521  -21.2429  -55.6183 C.3       21 UNK        -0.1800 
    117 C         -3.1938  -19.4613  -56.3006 C.2       21 UNK         0.5000 
    118 O         -2.6930  -18.6123  -57.0390 O.2       21 UNK        -0.5000 
    119 N         -4.0860  -19.1878  -55.3423 N.am      22 UNK        -0.5000 
    120 CA        -4.6495  -17.8552  -55.0794 C.3       22 UNK         0.1400 
    121 C         -5.8825  -17.5093  -55.9687 C.2       22 UNK         0.5000 
    122 N         -6.3327  -18.3760  -56.8698 N.am      22 UNK        -0.7600 
    123 O         -6.4393  -16.4214  -55.8486 O.2       22 UNK        -0.5000 
    124 C124       -4.9627  -17.6531  -53.5715 C.3       23 UNK        -0.0398 
    125 S125       -3.5828  -17.9408  -52.3993 S.3       23 UNK        -0.2404 
    126 C126       -2.1003  -17.3660  -53.2950 C.3       23 UNK        -0.0205 
    127 H127        5.9701   -9.9089  -49.1558 H         1 UNK         0.0600 
    128 H128        6.3005   -9.6568  -47.4392 H         1 UNK         0.0600 
    129 H129        7.0631  -10.9993  -48.2985 H         1 UNK         0.0600 
    130 H130        3.9488  -10.7807  -49.4807 H         1 UNK         0.3000 
    131 H131        3.0284  -13.1109  -48.0079 H         1 UNK         0.0600 
    132 H132        2.8427  -12.6593  -50.5798 H         1 UNK         0.0800 
    133 H133        1.4563  -11.6878  -50.2063 H         1 UNK         0.0800 
    134 H134        2.8387  -15.2453  -50.8412 H         1 UNK         0.0800 
    135 H135        1.8426  -14.4125  -52.0130 H         1 UNK         0.0800 
    136 H136       -0.4666  -15.2995  -52.5629 H         1 UNK         0.1150 
    137 H137       -0.9662  -19.5297  -52.1037 H         1 UNK         0.1150 
    138 H138        2.3319  -17.5433  -50.2157 H         1 UNK         0.1150 
    139 H139        0.4908  -20.8111  -50.7692 H         1 UNK         0.0800 
    140 H140        2.1495  -20.2676  -50.8417 H         1 UNK         0.0800 
    141 H141       -0.9696  -18.9866  -49.0994 H         1 UNK         0.0800 
    142 H142       -0.3783  -18.5592  -47.5230 H         1 UNK         0.0800 
    143 H143       -1.4260  -21.3203  -48.3344 H         1 UNK         0.0600 
    144 H144       -0.2196  -20.4124  -45.8138 H         1 UNK         0.3000 
    145 H145       -1.1974  -22.1555  -43.7226 H         1 UNK         0.0600 
    146 H146        0.1615  -24.2176  -43.1881 H         1 UNK         0.0600 
    147 H147       -1.2691  -24.5478  -44.1490 H         1 UNK         0.0600 
    148 H148        0.3094  -24.5352  -44.9174 H         1 UNK         0.0600 
    149 H149        0.6772  -21.0370  -43.5032 H         1 UNK         0.3000 
    150 H150        3.9862  -21.5077  -44.2218 H         1 UNK         0.0600 
    151 H151        3.5711  -20.5534  -46.4963 H         1 UNK         0.0600 
    152 H152        4.1637  -19.3242  -45.3903 H         1 UNK         0.0600 
    153 H153        2.4525  -19.3818  -45.8095 H         1 UNK         0.0600 
    154 H154        2.5587  -19.1525  -43.3862 H         1 UNK         0.3000 
    155 H155        2.1402  -20.1573  -39.9808 H         1 UNK         0.0600 
    156 H156        3.8850  -18.0135  -41.3048 H         1 UNK         0.0600 
    157 H157        4.4561  -19.2290  -40.1675 H         1 UNK         0.0600 
    158 H158        3.3117  -18.0048  -39.6387 H         1 UNK         0.0600 
    159 H159        1.4033  -17.7594  -41.2840 H         1 UNK         0.3000 
    160 H160       -1.8676  -18.8283  -42.3504 H         1 UNK         0.0600 
    161 H161       -2.4022  -16.8028  -41.0480 H         1 UNK         0.0600 
    162 H162       -0.8039  -16.8112  -40.3072 H         1 UNK         0.0600 
    163 H163       -1.9435  -18.1065  -39.9635 H         1 UNK         0.0600 
    164 H164       -0.4458  -16.3680  -42.7241 H         1 UNK         0.3000 
    165 H165        0.9918  -17.2235  -45.8977 H         1 UNK         0.0600 
    166 H166       -0.2042  -15.1694  -46.5958 H         1 UNK         0.0600 
    167 H167       -1.3420  -16.4991  -46.4410 H         1 UNK         0.0600 
    168 H168       -1.2572  -15.2669  -45.1865 H         1 UNK         0.0600 
    169 H169        1.0716  -14.7990  -44.4347 H         1 UNK         0.3000 
    170 H170        3.9029  -15.5928  -42.3713 H         1 UNK         0.0600 
    171 H171        4.7380  -14.7806  -44.5636 H         1 UNK         0.0600 
    172 H172        3.3914  -13.6624  -44.7007 H         1 UNK         0.0600 
    173 H173        4.5932  -13.4475  -43.4298 H         1 UNK         0.0600 
    174 H174        2.1229  -13.3357  -42.5620 H         1 UNK         0.3000 
    175 H175       -0.0760  -14.3161  -39.9361 H         1 UNK         0.0600 
    176 H176        0.7174  -12.1726  -38.9783 H         1 UNK         0.0600 
    177 H177        1.9411  -13.4150  -38.7698 H         1 UNK         0.0600 
    178 H178        2.1385  -12.1956  -40.0229 H         1 UNK         0.0600 
    179 H179        0.1730  -11.9293  -41.5082 H         1 UNK         0.3000 
    180 H180       -1.9794  -12.9510  -44.1668 H         1 UNK         0.0600 
    181 H181       -2.3396  -10.9245  -41.8946 H         1 UNK         0.0600 
    182 H182       -3.4704  -12.2106  -42.2989 H         1 UNK         0.0600 
    183 H183       -3.1792  -10.9133  -43.4459 H         1 UNK         0.0600 
    184 H184       -0.7168  -10.4765  -43.7655 H         1 UNK         0.3000 
    185 H185        0.8774   -9.9069  -45.4151 H         1 UNK         0.0600 
    186 H186        3.0584  -11.1705  -43.6504 H         1 UNK         0.0600 
    187 H187        3.1094   -9.5499  -44.3400 H         1 UNK         0.0600 
    188 H188        1.9047   -9.9488  -43.1267 H         1 UNK         0.0600 
    189 H189        3.2026  -11.5381  -46.0598 H         1 UNK         0.3000 
    190 H190       -2.1365  -19.1398  -45.5841 H         1 UNK         0.3000 
    191 H191       -4.6927  -18.2343  -46.5628 H         1 UNK         0.0600 
    192 H192       -3.3286  -16.9650  -44.8875 H         1 UNK         0.0600 
    193 H193       -3.5817  -18.2522  -43.7086 H         1 UNK         0.0600 
    194 H194       -4.9416  -17.3041  -44.2849 H         1 UNK         0.0600 
    195 H195       -3.6403  -21.0974  -44.9086 H         1 UNK         0.3000 
    196 H196       -6.2909  -22.0563  -44.1166 H         1 UNK         0.0600 
    197 H197       -5.0225  -24.0831  -43.4668 H         1 UNK         0.0600 
    198 H198       -4.2098  -22.6587  -42.8412 H         1 UNK         0.0600 
    199 H199       -3.5775  -23.4835  -44.2665 H         1 UNK         0.0600 
    200 H200       -4.7863  -21.6711  -47.0699 H         1 UNK         0.3000 
    201 H201       -5.1382  -22.2389  -49.1289 H         1 UNK         0.0600 
    202 H202       -7.5796  -22.3539  -48.5984 H         1 UNK         0.0600 
    203 H203       -7.4242  -24.0805  -48.2699 H         1 UNK         0.0600 
    204 H204       -7.1202  -23.4608  -49.8807 H         1 UNK         0.0600 
    205 H205       -4.0400  -24.4609  -46.9063 H         1 UNK         0.3000 
    206 H206       -3.8553  -26.8615  -48.3979 H         1 UNK         0.0600 
    207 H207       -3.6879  -26.7922  -45.9328 H         1 UNK         0.0600 
    208 H208       -2.2368  -27.5197  -46.6055 H         1 UNK         0.0600 
    209 H209       -2.1953  -25.8603  -46.0226 H         1 UNK         0.0600 
    210 H210       -1.3558  -24.3363  -47.7605 H         1 UNK         0.3000 
    211 H211        0.5714  -25.5616  -49.5609 H         1 UNK         0.0600 
    212 H212        0.5592  -22.8129  -48.2251 H         1 UNK         0.0600 
    213 H213        1.9320  -23.5553  -49.0289 H         1 UNK         0.0600 
    214 H214        1.2777  -24.2825  -47.5697 H         1 UNK         0.0600 
    215 H215       -2.0816  -23.4105  -50.0059 H         1 UNK         0.3000 
    216 H216       -1.1926  -22.3661  -52.6151 H         1 UNK         0.0600 
    217 H217       -3.3546  -21.1933  -52.5770 H         1 UNK         0.0600 
    218 H218       -2.5787  -20.9690  -51.0178 H         1 UNK         0.0600 
    219 H219       -3.8967  -22.1243  -51.1900 H         1 UNK         0.0600 
    220 H220       -2.4102  -25.3053  -51.4876 H         1 UNK         0.3000 
    221 H221       -3.4346  -27.0852  -52.2744 H         1 UNK         0.0600 
    222 H222       -2.6521  -26.0707  -55.0616 H         1 UNK         0.0600 
    223 H223       -1.5876  -26.9625  -53.9749 H         1 UNK         0.0600 
    224 H224       -3.0256  -27.7324  -54.6231 H         1 UNK         0.0600 
    225 H225       -5.0358  -24.6931  -51.8939 H         1 UNK         0.3000 
    226 H226       -6.9252  -23.6154  -52.2735 H         1 UNK         0.0600 
    227 H227       -7.8189  -25.8103  -51.4727 H         1 UNK         0.0600 
    228 H228       -7.9979  -26.3503  -53.1418 H         1 UNK         0.0600 
    229 H229       -8.9538  -25.0014  -52.5391 H         1 UNK         0.0600 
    230 H230       -5.0670  -23.5543  -54.5568 H         1 UNK         0.3000 
    231 H231       -6.9736  -22.8182  -56.7262 H         1 UNK         0.0600 
    232 H232       -6.3454  -25.1753  -57.1490 H         1 UNK         0.0600 
    233 H233       -4.6347  -24.7753  -57.0193 H         1 UNK         0.0600 
    234 H234       -5.5959  -24.1328  -58.3485 H         1 UNK         0.0600 
    235 H235       -3.6235  -22.5921  -55.4315 H         1 UNK         0.3000 
    236 H236       -2.5392  -21.0931  -57.5150 H         1 UNK         0.0600 
    237 H237       -0.7162  -20.6061  -55.9107 H         1 UNK         0.0600 
    238 H238       -1.7392  -21.0673  -54.5592 H         1 UNK         0.0600 
    239 H239       -1.2305  -22.2775  -55.7392 H         1 UNK         0.0600 
    240 H240       -4.4523  -19.9497  -54.7919 H         1 UNK         0.3000 
    241 H241       -3.9040  -17.1081  -55.3550 H         1 UNK         0.0600 
    242 H242       -7.1276  -18.1256  -57.4364 H         1 UNK         0.3800 
    243 H243       -5.8806  -19.2714  -57.0176 H         1 UNK         0.3800 
    244 H244       -5.3150  -16.6348  -53.3988 H         1 UNK         0.0800 
    245 H245       -5.7852  -18.3053  -53.2736 H         1 UNK         0.0800 
    246 H246       -2.2756  -16.3537  -53.6623 H         1 UNK         0.0800 
    247 H247       -1.9198  -17.9924  -54.1669 H         1 UNK         0.0800 
@<TRIPOS>BOND
     1    1    2 1    
     2    1  127 1    
     3    1  128 1    
     4    1  129 1    
     5    2    3 2    
     6    2    4 am   BACKBONE|DICT|INTERRES
     7    4    5 1    
     8    4  130 1    
     9    5    6 1    
    10    5   65 1    
    11    5  131 1    
    12    6    7 1    
    13    6  132 1    
    14    6  133 1    
    15    7    8 1    
    16    8    9 1    
    17    8  134 1    
    18    8  135 1    
    19    9   10 ar   
    20    9   14 ar   
    21   10   11 ar   
    22   10  136 1    
    23   11   12 ar   
    24   11  126 1    
    25   12   13 ar   
    26   12  137 1    
    27   13   14 ar   
    28   13   15 1    
    29   14  138 1    
    30   15   16 1    
    31   15  139 1    
    32   15  140 1    
    33   16   17 1    
    34   17   18 1    
    35   17  141 1    
    36   17  142 1    
    37   18   19 1    
    38   18   67 1    
    39   18  143 1    
    40   19   20 am   BACKBONE|DICT|INTERRES
    41   19  144 1    
    42   20   21 2    
    43   20   22 1    
    44   22   23 1    
    45   22   24 1    
    46   22  145 1    
    47   23  146 1    
    48   23  147 1    
    49   23  148 1    
    50   24   25 am   BACKBONE|DICT|INTERRES
    51   24  149 1    
    52   25   26 2    
    53   25   27 1    
    54   27   28 1    
    55   27   29 1    
    56   27  150 1    
    57   28  151 1    
    58   28  152 1    
    59   28  153 1    
    60   29   30 am   BACKBONE|DICT|INTERRES
    61   29  154 1    
    62   30   31 2    
    63   30   32 1    
    64   32   33 1    
    65   32   34 1    
    66   32  155 1    
    67   33  156 1    
    68   33  157 1    
    69   33  158 1    
    70   34   35 am   BACKBONE|DICT|INTERRES
    71   34  159 1    
    72   35   36 2    
    73   35   37 1    
    74   37   38 1    
    75   37   39 1    
    76   37  160 1    
    77   38  161 1    
    78   38  162 1    
    79   38  163 1    
    80   39   40 am   BACKBONE|DICT|INTERRES
    81   39  164 1    
    82   40   41 2    
    83   40   42 1    
    84   42   43 1    
    85   42   44 1    
    86   42  165 1    
    87   43  166 1    
    88   43  167 1    
    89   43  168 1    
    90   44   45 am   BACKBONE|DICT|INTERRES
    91   44  169 1    
    92   45   46 2    
    93   45   47 1    
    94   47   48 1    
    95   47   49 1    
    96   47  170 1    
    97   48  171 1    
    98   48  172 1    
    99   48  173 1    
   100   49   50 am   BACKBONE|DICT|INTERRES
   101   49  174 1    
   102   50   51 2    
   103   50   52 1    
   104   52   53 1    
   105   52   54 1    
   106   52  175 1    
   107   53  176 1    
   108   53  177 1    
   109   53  178 1    
   110   54   55 am   BACKBONE|DICT|INTERRES
   111   54  179 1    
   112   55   56 2    
   113   55   57 1    
   114   57   58 1    
   115   57   59 1    
   116   57  180 1    
   117   58  181 1    
   118   58  182 1    
   119   58  183 1    
   120   59   60 am   BACKBONE|DICT|INTERRES
   121   59  184 1    
   122   60   61 2    
   123   60   62 1    
   124   62   63 1    
   125   62   64 1    
   126   62  185 1    
   127   63  186 1    
   128   63  187 1    
   129   63  188 1    
   130   64   65 am   BACKBONE|DICT|INTERRES
   131   64  189 1    
   132   65   66 2    
   133   67   68 2    
   134   67   69 am   BACKBONE|DICT|INTERRES
   135   69   70 1    
   136   69  190 1    
   137   70   71 1    
   138   70   72 1    
   139   70  191 1    
   140   71  192 1    
   141   71  193 1    
   142   71  194 1    
   143   72   73 2    
   144   72   74 am   BACKBONE|DICT|INTERRES
   145   74   75 1    
   146   74  195 1    
   147   75   76 1    
   148   75   77 1    
   149   75  196 1    
   150   76  197 1    
   151   76  198 1    
   152   76  199 1    
   153   77   78 2    
   154   77   79 am   BACKBONE|DICT|INTERRES
   155   79   80 1    
   156   79  200 1    
   157   80   81 1    
   158   80   82 1    
   159   80  201 1    
   160   81  202 1    
   161   81  203 1    
   162   81  204 1    
   163   82   83 2    
   164   82   84 am   BACKBONE|DICT|INTERRES
   165   84   85 1    
   166   84  205 1    
   167   85   86 1    
   168   85   87 1    
   169   85  206 1    
   170   86  207 1    
   171   86  208 1    
   172   86  209 1    
   173   87   88 2    
   174   87   89 am   BACKBONE|DICT|INTERRES
   175   89   90 1    
   176   89  210 1    
   177   90   91 1    
   178   90   92 1    
   179   90  211 1    
   180   91  212 1    
   181   91  213 1    
   182   91  214 1    
   183   92   93 2    
   184   92   94 am   BACKBONE|DICT|INTERRES
   185   94   95 1    
   186   94  215 1    
   187   95   96 1    
   188   95   97 1    
   189   95  216 1    
   190   96  217 1    
   191   96  218 1    
   192   96  219 1    
   193   97   98 2    
   194   97   99 am   BACKBONE|DICT|INTERRES
   195   99  100 1    
   196   99  220 1    
   197  100  101 1    
   198  100  102 1    
   199  100  221 1    
   200  101  222 1    
   201  101  223 1    
   202  101  224 1    
   203  102  103 2    
   204  102  104 am   BACKBONE|DICT|INTERRES
   205  104  105 1    
   206  104  225 1    
   207  105  106 1    
   208  105  107 1    
   209  105  226 1    
   210  106  227 1    
   211  106  228 1    
   212  106  229 1    
   213  107  108 2    
   214  107  109 am   BACKBONE|DICT|INTERRES
   215  109  110 1    
   216  109  230 1    
   217  110  111 1    
   218  110  112 1    
   219  110  231 1    
   220  111  232 1    
   221  111  233 1    
   222  111  234 1    
   223  112  113 2    
   224  112  114 am   BACKBONE|DICT|INTERRES
   225  114  115 1    
   226  114  235 1    
   227  115  116 1    
   228  115  117 1    
   229  115  236 1    
   230  116  237 1    
   231  116  238 1    
   232  116  239 1    
   233  117  118 2    
   234  117  119 am   BACKBONE|DICT|INTERRES
   235  119  120 1    
   236  119  240 1    
   237  120  121 1    
   238  120  124 1    
   239  120  241 1    
   240  121  122 am   BACKBONE|DICT|INTERRES
   241  121  123 2    
   242  122  242 1    
   243  122  243 1    
   244  124  125 1    
   245  124  244 1    
   246  124  245 1    
   247  125  126 1    
   248  126  246 1    
   249  126  247 1    
@<TRIPOS>SUBSTRUCTURE
     1 UNK         1 GROUP             0       ****    0 ROOT    
