@<TRIPOS>MOLECULE
3R540
247   249    1
SMALL
USER_CHARGES


@<TRIPOS>ATOM
      1 CA          0.2033  -12.4146  -49.3117 C.3       0 UNK        -0.1800 
      2 C           1.3660  -13.0121  -48.5346 C.2       0 UNK         0.5000 
      3 O           1.1732  -13.4749  -47.4127 O.2       0 UNK        -0.5000 
      4 N           2.5692  -13.0028  -49.1243 N.am      1 UNK        -0.5000 
      5 CA          3.8267  -13.5610  -48.6042 C.3       1 UNK         0.1400 
      6 C6          3.7276  -15.0710  -48.2597 C.3       23 UNK        -0.0398 
      7 S7          5.3204  -15.9537  -48.3815 S.3       23 UNK        -0.2404 
      8 C8          5.3608  -16.4381  -50.1376 C.3       23 UNK        -0.0205 
      9 C9          4.2618  -17.4269  -50.4999 C.ar      23 UNK        -0.0193 
     10 C10         3.1290  -16.9938  -51.1928 C.ar      23 UNK        -0.1150 
     11 C11         2.1094  -17.8893  -51.5281 C.ar      23 UNK        -0.0193 
     12 C12         2.2464  -19.2400  -51.1895 C.ar      23 UNK        -0.1150 
     13 C13         3.3889  -19.6922  -50.5189 C.ar      23 UNK        -0.0193 
     14 C14         4.3864  -18.7778  -50.1665 C.ar      23 UNK        -0.1150 
     15 C15         3.5780  -21.1717  -50.2134 C.3       23 UNK        -0.0205 
     16 S16         2.8852  -21.6389  -48.5973 S.3       23 UNK        -0.2404 
     17 C17         1.1190  -21.8157  -49.0074 C.3       23 UNK        -0.0398 
     18 CA          0.3794  -22.7832  -48.0539 C.3       11 UNK         0.1400 
     19 N           0.3427  -22.3031  -46.6685 N.am      11 UNK        -0.5000 
     20 C          -0.1313  -23.0042  -45.6283 C.2       10 UNK         0.5000 
     21 O          -0.5279  -24.1666  -45.7101 O.2       10 UNK        -0.5000 
     22 CA         -0.2373  -22.2667  -44.2825 C.3       10 UNK         0.1400 
     23 CB          1.1110  -22.2476  -43.5464 C.3       10 UNK        -0.1800 
     24 N          -0.7409  -20.9028  -44.4493 N.am      10 UNK        -0.5000 
     25 C          -2.0068  -20.6064  -44.7782 C.2       9 UNK         0.5000 
     26 O          -2.8873  -21.4530  -44.9261 O.2       9 UNK        -0.5000 
     27 CA         -2.3402  -19.1219  -45.0211 C.3       9 UNK         0.1400 
     28 CB         -2.7163  -18.4292  -43.7033 C.3       9 UNK        -0.1800 
     29 N          -1.2530  -18.3845  -45.6658 N.am      9 UNK        -0.5000 
     30 C          -0.7754  -18.6574  -46.8881 C.2       8 UNK         0.5000 
     31 O          -1.2261  -19.5423  -47.6127 O.2       8 UNK        -0.5000 
     32 CA          0.4451  -17.8467  -47.3542 C.3       8 UNK         0.1400 
     33 CB         -0.0000  -16.4701  -47.8599 C.3       8 UNK        -0.1800 
     34 N           1.4685  -17.6948  -46.3145 N.am      8 UNK        -0.5000 
     35 C           2.0907  -18.7085  -45.6962 C.2       7 UNK         0.5000 
     36 O           1.8601  -19.8905  -45.9443 O.2       7 UNK        -0.5000 
     37 CA          3.0810  -18.3728  -44.5628 C.3       7 UNK         0.1400 
     38 CB          4.4631  -17.9687  -45.1104 C.3       7 UNK        -0.1800 
     39 N           2.5506  -17.4058  -43.5918 N.am      7 UNK        -0.5000 
     40 C           2.3105  -16.1016  -43.7739 C.2       6 UNK         0.5000 
     41 O           2.6309  -15.4769  -44.7859 O.2       6 UNK        -0.5000 
     42 CA          1.5235  -15.3930  -42.6551 C.3       6 UNK         0.1400 
     43 CB          2.4661  -14.7042  -41.6582 C.3       6 UNK        -0.1800 
     44 N           0.5854  -14.4124  -43.2017 N.am      6 UNK        -0.5000 
     45 C          -0.4186  -14.7131  -44.0406 C.2       5 UNK         0.5000 
     46 O          -0.7152  -15.8705  -44.3469 O.2       5 UNK        -0.5000 
     47 CA         -1.2105  -13.5324  -44.6420 C.3       5 UNK         0.1400 
     48 CB         -2.6211  -13.9365  -45.1199 C.3       5 UNK        -0.1800 
     49 N          -1.2604  -12.3583  -43.7648 N.am      5 UNK        -0.5000 
     50 C          -1.8066  -12.2731  -42.5413 C.2       4 UNK         0.5000 
     51 O          -2.4375  -13.1871  -42.0079 O.2       4 UNK        -0.5000 
     52 CA         -1.6055  -10.9371  -41.7871 C.3       4 UNK         0.1400 
     53 CB         -1.5893  -11.1193  -40.2545 C.3       4 UNK        -0.1800 
     54 N          -0.4277  -10.1746  -42.2290 N.am      4 UNK        -0.5000 
     55 C           0.8519  -10.5735  -42.1880 C.2       3 UNK         0.5000 
     56 O           1.2254  -11.6569  -41.7339 O.2       3 UNK        -0.5000 
     57 CA          1.8849   -9.5954  -42.7798 C.3       3 UNK         0.1400 
     58 CB          2.5312   -8.7596  -41.6647 C.3       3 UNK        -0.1800 
     59 N           2.9386  -10.2713  -43.5415 N.am      3 UNK        -0.5000 
     60 C           2.7421  -11.0807  -44.5913 C.2       2 UNK         0.5000 
     61 O           1.6277  -11.3393  -45.0557 O.2       2 UNK        -0.5000 
     62 CA          4.0072  -11.6740  -45.2344 C.3       2 UNK         0.1400 
     63 CB          4.7955  -12.5711  -44.2607 C.3       2 UNK        -0.1800 
     64 N           3.6404  -12.4400  -46.4193 N.am      2 UNK        -0.5000 
     65 C           4.4365  -12.7324  -47.4506 C.2       1 UNK         0.5000 
     66 O           5.6061  -12.3528  -47.5321 O.2       1 UNK        -0.5000 
     67 C          -1.0365  -23.0865  -48.5839 C.2       11 UNK         0.5000 
     68 O          -1.2508  -24.1532  -49.1594 O.2       11 UNK        -0.5000 
     69 N          -1.9827  -22.1687  -48.3414 N.am      12 UNK        -0.5000 
     70 CA         -3.3952  -22.3166  -48.6868 C.3       12 UNK         0.1400 
     71 CB         -4.1400  -21.0096  -48.3849 C.3       12 UNK        -0.1800 
     72 C          -4.0586  -23.5004  -47.9641 C.2       12 UNK         0.5000 
     73 O          -4.7865  -24.2588  -48.6016 O.2       12 UNK        -0.5000 
     74 N          -3.7712  -23.6647  -46.6642 N.am      13 UNK        -0.5000 
     75 CA         -4.2423  -24.7852  -45.8485 C.3       13 UNK         0.1400 
     76 CB         -3.8918  -24.5451  -44.3728 C.3       13 UNK        -0.1800 
     77 C          -3.6962  -26.1415  -46.3289 C.2       13 UNK         0.5000 
     78 O          -4.4654  -27.0973  -46.4320 O.2       13 UNK        -0.5000 
     79 N          -2.3988  -26.1934  -46.6647 N.am      14 UNK        -0.5000 
     80 CA         -1.7335  -27.3673  -47.2390 C.3       14 UNK         0.1400 
     81 CB         -0.2206  -27.1129  -47.3151 C.3       14 UNK        -0.1800 
     82 C          -2.2930  -27.7592  -48.6211 C.2       14 UNK         0.5000 
     83 O          -2.4055  -28.9482  -48.9201 O.2       14 UNK        -0.5000 
     84 N          -2.6752  -26.7521  -49.4158 N.am      15 UNK        -0.5000 
     85 CA         -3.3493  -26.8928  -50.7068 C.3       15 UNK         0.1400 
     86 CB         -3.0508  -25.6397  -51.5437 C.3       15 UNK        -0.1800 
     87 C          -4.8726  -27.1230  -50.5889 C.2       15 UNK         0.5000 
     88 O          -5.5443  -27.1947  -51.6187 O.2       15 UNK        -0.5000 
     89 N          -5.4055  -27.2031  -49.3586 N.am      16 UNK        -0.5000 
     90 CA         -6.8190  -27.3947  -49.0064 C.3       16 UNK         0.1400 
     91 CB         -7.2750  -28.8200  -49.3808 C.3       16 UNK        -0.1800 
     92 C          -7.7511  -26.3002  -49.5739 C.2       16 UNK         0.5000 
     93 O          -8.9059  -26.5791  -49.9002 O.2       16 UNK        -0.5000 
     94 N          -7.2134  -25.0786  -49.7045 N.am      17 UNK        -0.5000 
     95 CA         -7.8103  -23.8732  -50.2878 C.3       17 UNK         0.1400 
     96 CB         -9.0195  -23.4015  -49.4550 C.3       17 UNK        -0.1800 
     97 C          -8.1370  -23.9777  -51.7950 C.2       17 UNK         0.5000 
     98 O          -8.7996  -23.0860  -52.3278 O.2       17 UNK        -0.5000 
     99 N          -7.6565  -25.0311  -52.4730 N.am      18 UNK        -0.5000 
    100 CA        -7.8312  -25.2363  -53.9137 C.3       18 UNK         0.1400 
    101 CB        -7.7028  -26.7354  -54.2253 C.3       18 UNK        -0.1800 
    102 C         -6.8261  -24.4223  -54.7519 C.2       18 UNK         0.5000 
    103 O         -7.0486  -24.2272  -55.9476 O.2       18 UNK        -0.5000 
    104 N         -5.7450  -23.9645  -54.1138 N.am      19 UNK        -0.5000 
    105 CA        -4.6735  -23.1544  -54.6748 C.3       19 UNK         0.1400 
    106 CB        -3.7047  -24.0512  -55.4706 C.3       19 UNK        -0.1800 
    107 C         -3.9609  -22.4360  -53.5177 C.2       19 UNK         0.5000 
    108 O         -4.3042  -22.6586  -52.3538 O.2       19 UNK        -0.5000 
    109 N         -2.9805  -21.5897  -53.8626 N.am      20 UNK        -0.5000 
    110 CA        -2.0376  -20.9013  -52.9675 C.3       20 UNK         0.1400 
    111 CB        -1.1549  -21.9236  -52.2248 C.3       20 UNK        -0.1800 
    112 C         -2.6589  -19.8688  -52.0012 C.2       20 UNK         0.5000 
    113 O         -1.9514  -19.3449  -51.1406 O.2       20 UNK        -0.5000 
    114 N         -3.9453  -19.5453  -52.1790 N.am      21 UNK        -0.5000 
    115 CA        -4.6979  -18.5627  -51.3990 C.3       21 UNK         0.1400 
    116 CB        -6.1914  -18.9308  -51.4587 C.3       21 UNK        -0.1800 
    117 C         -4.4080  -17.1221  -51.8692 C.2       21 UNK         0.5000 
    118 O         -5.3222  -16.4050  -52.2799 O.2       21 UNK        -0.5000 
    119 N         -3.1283  -16.7353  -51.8250 N.am      22 UNK        -0.5000 
    120 CA        -2.6275  -15.4111  -52.2248 C.3       22 UNK         0.1400 
    121 C         -2.8776  -14.2693  -51.1943 C.2       22 UNK         0.5000 
    122 N         -3.3279  -14.5536  -49.9780 N.am      22 UNK        -0.7600 
    123 O         -2.6778  -13.1005  -51.5136 O.2       22 UNK        -0.5000 
    124 C124       -1.1485  -15.4736  -52.6865 C.3       23 UNK        -0.0398 
    125 S125        0.0128  -16.0686  -51.4067 S.3       23 UNK        -0.2404 
    126 C126        0.8892  -17.3962  -52.2953 C.3       23 UNK        -0.0205 
    127 H127       -0.2028  -11.5549  -48.7790 H         1 UNK         0.0600 
    128 H128        0.5015  -12.0921  -50.3095 H         1 UNK         0.0600 
    129 H129       -0.5883  -13.1560  -49.4185 H         1 UNK         0.0600 
    130 H130        2.6502  -12.5706  -50.0339 H         1 UNK         0.3000 
    131 H131        4.5175  -13.4647  -49.4434 H         1 UNK         0.0600 
    132 H132        3.3248  -15.2170  -47.2578 H         1 UNK         0.0800 
    133 H133        3.0144  -15.5579  -48.9208 H         1 UNK         0.0800 
    134 H134        5.2951  -15.5444  -50.7601 H         1 UNK         0.0800 
    135 H135        6.3316  -16.8857  -50.3546 H         1 UNK         0.0800 
    136 H136        3.0320  -15.9520  -51.4648 H         1 UNK         0.1150 
    137 H137        1.4736  -19.9427  -51.4646 H         1 UNK         0.1150 
    138 H138        5.2684  -19.1189  -49.6426 H         1 UNK         0.1150 
    139 H139        3.1418  -21.7829  -51.0047 H         1 UNK         0.0800 
    140 H140        4.6429  -21.4092  -50.2108 H         1 UNK         0.0800 
    141 H141        1.0526  -22.1907  -50.0290 H         1 UNK         0.0800 
    142 H142        0.6560  -20.8280  -49.0072 H         1 UNK         0.0800 
    143 H143        0.9242  -23.7299  -48.0497 H         1 UNK         0.0600 
    144 H144        0.7062  -21.3684  -46.5043 H         1 UNK         0.3000 
    145 H145       -0.9469  -22.8145  -43.6588 H         1 UNK         0.0600 
    146 H146        1.0280  -21.7442  -42.5832 H         1 UNK         0.0600 
    147 H147        1.4586  -23.2631  -43.3530 H         1 UNK         0.0600 
    148 H148        1.8867  -21.7448  -44.1229 H         1 UNK         0.0600 
    149 H149       -0.0622  -20.1568  -44.4155 H         1 UNK         0.3000 
    150 H150       -3.2062  -19.0833  -45.6849 H         1 UNK         0.0600 
    151 H151       -3.5265  -18.9578  -43.1995 H         1 UNK         0.0600 
    152 H152       -3.0547  -17.4077  -43.8790 H         1 UNK         0.0600 
    153 H153       -1.8707  -18.3868  -43.0157 H         1 UNK         0.0600 
    154 H154       -0.8733  -17.5903  -45.1554 H         1 UNK         0.3000 
    155 H155        0.8986  -18.3848  -48.1895 H         1 UNK         0.0600 
    156 H156        0.8077  -15.9748  -48.3938 H         1 UNK         0.0600 
    157 H157       -0.3172  -15.8186  -47.0459 H         1 UNK         0.0600 
    158 H158       -0.8366  -16.5568  -48.5543 H         1 UNK         0.0600 
    159 H159        1.6981  -16.7505  -46.0212 H         1 UNK         0.3000 
    160 H160        3.2239  -19.2956  -43.9980 H         1 UNK         0.0600 
    161 H161        4.4169  -17.0697  -45.7235 H         1 UNK         0.0600 
    162 H162        4.8768  -18.7609  -45.7355 H         1 UNK         0.0600 
    163 H163        5.1706  -17.7871  -44.3016 H         1 UNK         0.0600 
    164 H164        2.2377  -17.8180  -42.7239 H         1 UNK         0.3000 
    165 H165        0.9389  -16.1404  -42.1147 H         1 UNK         0.0600 
    166 H166        3.0033  -13.8746  -42.1163 H         1 UNK         0.0600 
    167 H167        1.9119  -14.3070  -40.8075 H         1 UNK         0.0600 
    168 H168        3.2064  -15.4029  -41.2668 H         1 UNK         0.0600 
    169 H169        0.7713  -13.4402  -42.9881 H         1 UNK         0.3000 
    170 H170       -0.6486  -13.2187  -45.5217 H         1 UNK         0.0600 
    171 H171       -3.2251  -14.3400  -44.3069 H         1 UNK         0.0600 
    172 H172       -2.5647  -14.7029  -45.8941 H         1 UNK         0.0600 
    173 H173       -3.1526  -13.0858  -45.5459 H         1 UNK         0.0600 
    174 H174       -0.7300  -11.5628  -44.0946 H         1 UNK         0.3000 
    175 H175       -2.4730  -10.3237  -42.0341 H         1 UNK         0.0600 
    176 H176       -1.4514  -10.1656  -39.7451 H         1 UNK         0.0600 
    177 H177       -2.5303  -11.5410  -39.8994 H         1 UNK         0.0600 
    178 H178       -0.7908  -11.7894  -39.9345 H         1 UNK         0.0600 
    179 H179       -0.6314   -9.2690  -42.6297 H         1 UNK         0.3000 
    180 H180        1.3720   -8.9188  -43.4664 H         1 UNK         0.0600 
    181 H181        3.0885   -9.3854  -40.9663 H         1 UNK         0.0600 
    182 H182        1.7756   -8.2212  -41.0911 H         1 UNK         0.0600 
    183 H183        3.2172   -8.0171  -42.0730 H         1 UNK         0.0600 
    184 H184        3.8817  -10.1262  -43.2131 H         1 UNK         0.3000 
    185 H185        4.6357  -10.8341  -45.5371 H         1 UNK         0.0600 
    186 H186        5.7429  -12.8871  -44.6973 H         1 UNK         0.0600 
    187 H187        5.0293  -12.0549  -43.3294 H         1 UNK         0.0600 
    188 H188        4.2353  -13.4705  -44.0104 H         1 UNK         0.0600 
    189 H189        2.6675  -12.7434  -46.4521 H         1 UNK         0.3000 
    190 H190       -1.7107  -21.2840  -47.9161 H         1 UNK         0.3000 
    191 H191       -3.4547  -22.5011  -49.7607 H         1 UNK         0.0600 
    192 H192       -3.6478  -20.1643  -48.8631 H         1 UNK         0.0600 
    193 H193       -5.1646  -21.0496  -48.7565 H         1 UNK         0.0600 
    194 H194       -4.1819  -20.8048  -47.3151 H         1 UNK         0.0600 
    195 H195       -3.2070  -22.9652  -46.1921 H         1 UNK         0.3000 
    196 H196       -5.3304  -24.8200  -45.9338 H         1 UNK         0.0600 
    197 H197       -4.2450  -25.3667  -43.7485 H         1 UNK         0.0600 
    198 H198       -4.3576  -23.6322  -44.0013 H         1 UNK         0.0600 
    199 H199       -2.8159  -24.4569  -44.2221 H         1 UNK         0.0600 
    200 H200       -1.8191  -25.3725  -46.5106 H         1 UNK         0.3000 
    201 H201       -1.9030  -28.2085  -46.5638 H         1 UNK         0.0600 
    202 H202        0.1947  -26.9100  -46.3278 H         1 UNK         0.0600 
    203 H203        0.0132  -26.2627  -47.9563 H         1 UNK         0.0600 
    204 H204        0.3025  -27.9816  -47.7165 H         1 UNK         0.0600 
    205 H205       -2.4865  -25.8019  -49.1129 H         1 UNK         0.3000 
    206 H206       -2.9348  -27.7560  -51.2309 H         1 UNK         0.0600 
    207 H207       -1.9794  -25.5134  -51.7005 H         1 UNK         0.0600 
    208 H208       -3.5190  -25.6941  -52.5268 H         1 UNK         0.0600 
    209 H209       -3.4209  -24.7416  -51.0497 H         1 UNK         0.0600 
    210 H210       -4.7822  -27.0939  -48.5680 H         1 UNK         0.3000 
    211 H211       -6.8760  -27.3039  -47.9210 H         1 UNK         0.0600 
    212 H212       -7.2999  -28.9656  -50.4612 H         1 UNK         0.0600 
    213 H213       -8.2760  -29.0250  -48.9995 H         1 UNK         0.0600 
    214 H214       -6.6082  -29.5705  -48.9562 H         1 UNK         0.0600 
    215 H215       -6.2562  -24.9518  -49.3755 H         1 UNK         0.3000 
    216 H216       -7.0411  -23.1033  -50.2095 H         1 UNK         0.0600 
    217 H217       -8.7598  -23.3111  -48.4003 H         1 UNK         0.0600 
    218 H218       -9.8614  -24.0892  -49.5367 H         1 UNK         0.0600 
    219 H219       -9.3660  -22.4220  -49.7864 H         1 UNK         0.0600 
    220 H220       -7.1068  -25.7268  -51.9813 H         1 UNK         0.3000 
    221 H221       -8.8362  -24.9178  -54.1981 H         1 UNK         0.0600 
    222 H222       -6.6966  -27.1042  -54.0246 H         1 UNK         0.0600 
    223 H223       -8.4016  -27.3246  -53.6311 H         1 UNK         0.0600 
    224 H224       -7.9194  -26.9344  -55.2755 H         1 UNK         0.0600 
    225 H225       -5.6635  -24.1114  -53.1153 H         1 UNK         0.3000 
    226 H226       -5.1030  -22.3963  -55.3327 H         1 UNK         0.0600 
    227 H227       -4.2194  -24.5759  -56.2756 H         1 UNK         0.0600 
    228 H228       -2.9074  -23.4671  -55.9309 H         1 UNK         0.0600 
    229 H229       -3.2360  -24.8006  -54.8319 H         1 UNK         0.0600 
    230 H230       -2.8052  -21.4500  -54.8482 H         1 UNK         0.3000 
    231 H231       -1.3808  -20.3236  -53.6192 H         1 UNK         0.0600 
    232 H232       -0.3798  -21.4193  -51.6507 H         1 UNK         0.0600 
    233 H233       -0.6556  -22.5962  -52.9219 H         1 UNK         0.0600 
    234 H234       -1.7335  -22.5317  -51.5299 H         1 UNK         0.0600 
    235 H235       -4.4468  -20.0069  -52.9225 H         1 UNK         0.3000 
    236 H236       -4.3872  -18.6188  -50.3552 H         1 UNK         0.0600 
    237 H237       -6.7883  -18.2457  -50.8554 H         1 UNK         0.0600 
    238 H238       -6.5759  -18.8936  -52.4786 H         1 UNK         0.0600 
    239 H239       -6.3638  -19.9359  -51.0725 H         1 UNK         0.0600 
    240 H240       -2.4385  -17.3934  -51.4760 H         1 UNK         0.3000 
    241 H241       -3.2015  -15.1135  -53.1045 H         1 UNK         0.0600 
    242 H242       -3.4975  -15.5074  -49.7061 H         1 UNK         0.3800 
    243 H243       -3.4989  -13.8050  -49.3263 H         1 UNK         0.3800 
    244 H244       -1.0794  -16.1210  -53.5615 H         1 UNK         0.0800 
    245 H245       -0.8109  -14.4928  -53.0256 H         1 UNK         0.0800 
    246 H246        1.2178  -17.0268  -53.2676 H         1 UNK         0.0800 
    247 H247        0.1940  -18.2142  -52.4876 H         1 UNK         0.0800 
@<TRIPOS>BOND
     1    1    2 1    
     2    1  127 1    
     3    1  128 1    
     4    1  129 1    
     5    2    3 2    
     6    2    4 am   BACKBONE|DICT|INTERRES
     7    4    5 1    
     8    4  130 1    
     9    5    6 1    
    10    5   65 1    
    11    5  131 1    
    12    6    7 1    
    13    6  132 1    
    14    6  133 1    
    15    7    8 1    
    16    8    9 1    
    17    8  134 1    
    18    8  135 1    
    19    9   10 ar   
    20    9   14 ar   
    21   10   11 ar   
    22   10  136 1    
    23   11   12 ar   
    24   11  126 1    
    25   12   13 ar   
    26   12  137 1    
    27   13   14 ar   
    28   13   15 1    
    29   14  138 1    
    30   15   16 1    
    31   15  139 1    
    32   15  140 1    
    33   16   17 1    
    34   17   18 1    
    35   17  141 1    
    36   17  142 1    
    37   18   19 1    
    38   18   67 1    
    39   18  143 1    
    40   19   20 am   BACKBONE|DICT|INTERRES
    41   19  144 1    
    42   20   21 2    
    43   20   22 1    
    44   22   23 1    
    45   22   24 1    
    46   22  145 1    
    47   23  146 1    
    48   23  147 1    
    49   23  148 1    
    50   24   25 am   BACKBONE|DICT|INTERRES
    51   24  149 1    
    52   25   26 2    
    53   25   27 1    
    54   27   28 1    
    55   27   29 1    
    56   27  150 1    
    57   28  151 1    
    58   28  152 1    
    59   28  153 1    
    60   29   30 am   BACKBONE|DICT|INTERRES
    61   29  154 1    
    62   30   31 2    
    63   30   32 1    
    64   32   33 1    
    65   32   34 1    
    66   32  155 1    
    67   33  156 1    
    68   33  157 1    
    69   33  158 1    
    70   34   35 am   BACKBONE|DICT|INTERRES
    71   34  159 1    
    72   35   36 2    
    73   35   37 1    
    74   37   38 1    
    75   37   39 1    
    76   37  160 1    
    77   38  161 1    
    78   38  162 1    
    79   38  163 1    
    80   39   40 am   BACKBONE|DICT|INTERRES
    81   39  164 1    
    82   40   41 2    
    83   40   42 1    
    84   42   43 1    
    85   42   44 1    
    86   42  165 1    
    87   43  166 1    
    88   43  167 1    
    89   43  168 1    
    90   44   45 am   BACKBONE|DICT|INTERRES
    91   44  169 1    
    92   45   46 2    
    93   45   47 1    
    94   47   48 1    
    95   47   49 1    
    96   47  170 1    
    97   48  171 1    
    98   48  172 1    
    99   48  173 1    
   100   49   50 am   BACKBONE|DICT|INTERRES
   101   49  174 1    
   102   50   51 2    
   103   50   52 1    
   104   52   53 1    
   105   52   54 1    
   106   52  175 1    
   107   53  176 1    
   108   53  177 1    
   109   53  178 1    
   110   54   55 am   BACKBONE|DICT|INTERRES
   111   54  179 1    
   112   55   56 2    
   113   55   57 1    
   114   57   58 1    
   115   57   59 1    
   116   57  180 1    
   117   58  181 1    
   118   58  182 1    
   119   58  183 1    
   120   59   60 am   BACKBONE|DICT|INTERRES
   121   59  184 1    
   122   60   61 2    
   123   60   62 1    
   124   62   63 1    
   125   62   64 1    
   126   62  185 1    
   127   63  186 1    
   128   63  187 1    
   129   63  188 1    
   130   64   65 am   BACKBONE|DICT|INTERRES
   131   64  189 1    
   132   65   66 2    
   133   67   68 2    
   134   67   69 am   BACKBONE|DICT|INTERRES
   135   69   70 1    
   136   69  190 1    
   137   70   71 1    
   138   70   72 1    
   139   70  191 1    
   140   71  192 1    
   141   71  193 1    
   142   71  194 1    
   143   72   73 2    
   144   72   74 am   BACKBONE|DICT|INTERRES
   145   74   75 1    
   146   74  195 1    
   147   75   76 1    
   148   75   77 1    
   149   75  196 1    
   150   76  197 1    
   151   76  198 1    
   152   76  199 1    
   153   77   78 2    
   154   77   79 am   BACKBONE|DICT|INTERRES
   155   79   80 1    
   156   79  200 1    
   157   80   81 1    
   158   80   82 1    
   159   80  201 1    
   160   81  202 1    
   161   81  203 1    
   162   81  204 1    
   163   82   83 2    
   164   82   84 am   BACKBONE|DICT|INTERRES
   165   84   85 1    
   166   84  205 1    
   167   85   86 1    
   168   85   87 1    
   169   85  206 1    
   170   86  207 1    
   171   86  208 1    
   172   86  209 1    
   173   87   88 2    
   174   87   89 am   BACKBONE|DICT|INTERRES
   175   89   90 1    
   176   89  210 1    
   177   90   91 1    
   178   90   92 1    
   179   90  211 1    
   180   91  212 1    
   181   91  213 1    
   182   91  214 1    
   183   92   93 2    
   184   92   94 am   BACKBONE|DICT|INTERRES
   185   94   95 1    
   186   94  215 1    
   187   95   96 1    
   188   95   97 1    
   189   95  216 1    
   190   96  217 1    
   191   96  218 1    
   192   96  219 1    
   193   97   98 2    
   194   97   99 am   BACKBONE|DICT|INTERRES
   195   99  100 1    
   196   99  220 1    
   197  100  101 1    
   198  100  102 1    
   199  100  221 1    
   200  101  222 1    
   201  101  223 1    
   202  101  224 1    
   203  102  103 2    
   204  102  104 am   BACKBONE|DICT|INTERRES
   205  104  105 1    
   206  104  225 1    
   207  105  106 1    
   208  105  107 1    
   209  105  226 1    
   210  106  227 1    
   211  106  228 1    
   212  106  229 1    
   213  107  108 2    
   214  107  109 am   BACKBONE|DICT|INTERRES
   215  109  110 1    
   216  109  230 1    
   217  110  111 1    
   218  110  112 1    
   219  110  231 1    
   220  111  232 1    
   221  111  233 1    
   222  111  234 1    
   223  112  113 2    
   224  112  114 am   BACKBONE|DICT|INTERRES
   225  114  115 1    
   226  114  235 1    
   227  115  116 1    
   228  115  117 1    
   229  115  236 1    
   230  116  237 1    
   231  116  238 1    
   232  116  239 1    
   233  117  118 2    
   234  117  119 am   BACKBONE|DICT|INTERRES
   235  119  120 1    
   236  119  240 1    
   237  120  121 1    
   238  120  124 1    
   239  120  241 1    
   240  121  122 am   BACKBONE|DICT|INTERRES
   241  121  123 2    
   242  122  242 1    
   243  122  243 1    
   244  124  125 1    
   245  124  244 1    
   246  124  245 1    
   247  125  126 1    
   248  126  246 1    
   249  126  247 1    
@<TRIPOS>SUBSTRUCTURE
     1 UNK         1 GROUP             0       ****    0 ROOT    
