@<TRIPOS>MOLECULE
3R540
247   249    1
SMALL
USER_CHARGES


@<TRIPOS>ATOM
      1 CA         -5.1166  -15.8358  -44.4665 C.3       0 UNK        -0.1800 
      2 C          -4.7617  -16.8985  -45.5045 C.2       0 UNK         0.5000 
      3 O          -5.3996  -17.9469  -45.5333 O.2       0 UNK        -0.5000 
      4 N          -3.7727  -16.6790  -46.3813 N.am      1 UNK        -0.5000 
      5 CA         -2.9181  -15.4902  -46.4745 C.3       1 UNK         0.1400 
      6 C6         -2.3721  -15.2801  -47.9087 C.3       23 UNK        -0.0398 
      7 S7         -1.5687  -16.7552  -48.6322 S.3       23 UNK        -0.2404 
      8 C8          0.1465  -16.1779  -48.8057 C.3       23 UNK        -0.0205 
      9 C9          0.9823  -17.2282  -49.5149 C.ar      23 UNK        -0.0193 
     10 C10         1.0433  -17.2547  -50.9099 C.ar      23 UNK        -0.1150 
     11 C11         1.7591  -18.2580  -51.5692 C.ar      23 UNK        -0.0193 
     12 C12         2.4229  -19.2368  -50.8228 C.ar      23 UNK        -0.1150 
     13 C13         2.3742  -19.2150  -49.4260 C.ar      23 UNK        -0.0193 
     14 C14         1.6634  -18.1995  -48.7795 C.ar      23 UNK        -0.1150 
     15 C15         3.0518  -20.3098  -48.6130 C.3       23 UNK        -0.0205 
     16 S16         2.0074  -21.7948  -48.4829 S.3       23 UNK        -0.2404 
     17 C17         0.5155  -21.0812  -47.7170 C.3       23 UNK        -0.0398 
     18 CA         -0.4184  -22.1458  -47.1134 C.3       11 UNK         0.1400 
     19 N           0.2019  -22.8696  -46.0045 N.am      11 UNK        -0.5000 
     20 C          -0.2619  -24.0241  -45.5065 C.2       10 UNK         0.5000 
     21 O          -1.2521  -24.6030  -45.9515 O.2       10 UNK        -0.5000 
     22 CA          0.4586  -24.5996  -44.2707 C.3       10 UNK         0.1400 
     23 CB          1.5632  -25.5749  -44.7021 C.3       10 UNK        -0.1800 
     24 N           1.0389  -23.5705  -43.4058 N.am      10 UNK        -0.5000 
     25 C           0.3557  -22.5716  -42.8299 C.2       9 UNK         0.5000 
     26 O          -0.8691  -22.4597  -42.8996 O.2       9 UNK        -0.5000 
     27 CA          1.1782  -21.4801  -42.1171 C.3       9 UNK         0.1400 
     28 CB          1.1891  -21.7237  -40.6012 C.3       9 UNK        -0.1800 
     29 N           2.5617  -21.3396  -42.5923 N.am      9 UNK        -0.5000 
     30 C           2.9307  -21.0461  -43.8474 C.2       8 UNK         0.5000 
     31 O           2.1449  -20.9642  -44.7928 O.2       8 UNK        -0.5000 
     32 CA          4.4352  -20.8434  -44.0993 C.3       8 UNK         0.1400 
     33 CB          4.9832  -21.9731  -44.9855 C.3       8 UNK        -0.1800 
     34 N           4.7130  -19.5562  -44.7395 N.am      8 UNK        -0.5000 
     35 C           4.5050  -18.3581  -44.1776 C.2       7 UNK         0.5000 
     36 O           4.0803  -18.2043  -43.0294 O.2       7 UNK        -0.5000 
     37 CA          4.8439  -17.1319  -45.0419 C.3       7 UNK         0.1400 
     38 CB          3.8842  -16.9915  -46.2363 C.3       7 UNK        -0.1800 
     39 N           4.7645  -15.9220  -44.2312 N.am      7 UNK        -0.5000 
     40 C           5.5097  -14.8252  -44.3880 C.2       6 UNK         0.5000 
     41 O           6.3800  -14.7071  -45.2530 O.2       6 UNK        -0.5000 
     42 CA          5.1816  -13.6465  -43.4502 C.3       6 UNK         0.1400 
     43 CB          6.3293  -12.6244  -43.3621 C.3       6 UNK        -0.1800 
     44 N           3.9733  -12.9605  -43.9080 N.am      6 UNK        -0.5000 
     45 C           2.7237  -13.3917  -43.7011 C.2       5 UNK         0.5000 
     46 O           2.4490  -14.3951  -43.0402 O.2       5 UNK        -0.5000 
     47 CA          1.6055  -12.5945  -44.3951 C.3       5 UNK         0.1400 
     48 CB          1.4029  -13.1061  -45.8314 C.3       5 UNK        -0.1800 
     49 N           0.3370  -12.6973  -43.6758 N.am      5 UNK        -0.5000 
     50 C           0.0568  -12.0771  -42.5217 C.2       4 UNK         0.5000 
     51 O           0.8347  -11.3092  -41.9535 O.2       4 UNK        -0.5000 
     52 CA         -1.3206  -12.3554  -41.8970 C.3       4 UNK         0.1400 
     53 CB         -2.4195  -11.5809  -42.6428 C.3       4 UNK        -0.1800 
     54 N          -1.6369  -13.7828  -41.9302 N.am      4 UNK        -0.5000 
     55 C          -1.7882  -14.5681  -40.8531 C.2       3 UNK         0.5000 
     56 O          -1.7050  -14.1631  -39.6930 O.2       3 UNK        -0.5000 
     57 CA         -2.0897  -16.0619  -41.1039 C.3       3 UNK         0.1400 
     58 CB         -3.5911  -16.3464  -40.9443 C.3       3 UNK        -0.1800 
     59 N          -1.6575  -16.5018  -42.4306 N.am      3 UNK        -0.5000 
     60 C          -0.3791  -16.7093  -42.7720 C.2       2 UNK         0.5000 
     61 O           0.5384  -16.7347  -41.9531 O.2       2 UNK        -0.5000 
     62 CA         -0.0671  -16.9059  -44.2711 C.3       2 UNK         0.1400 
     63 CB          0.5249  -18.2961  -44.5298 C.3       2 UNK        -0.1800 
     64 N          -1.2033  -16.6937  -45.1786 N.am      2 UNK        -0.5000 
     65 C          -1.7854  -15.5122  -45.4290 C.2       1 UNK         0.5000 
     66 O          -1.4982  -14.4779  -44.8276 O.2       1 UNK        -0.5000 
     67 C          -1.7584  -21.4987  -46.7139 C.2       11 UNK         0.5000 
     68 O          -2.6228  -21.3637  -47.5777 O.2       11 UNK        -0.5000 
     69 N          -1.9322  -21.1300  -45.4348 N.am      12 UNK        -0.5000 
     70 CA         -3.2072  -20.6345  -44.9083 C.3       12 UNK         0.1400 
     71 CB         -2.9874  -19.8216  -43.6228 C.3       12 UNK        -0.1800 
     72 C          -4.2018  -21.7815  -44.6699 C.2       12 UNK         0.5000 
     73 O          -5.3934  -21.6102  -44.9228 O.2       12 UNK        -0.5000 
     74 N          -3.6921  -22.9431  -44.2336 N.am      13 UNK        -0.5000 
     75 CA         -4.4662  -24.1769  -44.0798 C.3       13 UNK         0.1400 
     76 CB         -3.6236  -25.2266  -43.3394 C.3       13 UNK        -0.1800 
     77 C          -4.9728  -24.7208  -45.4305 C.2       13 UNK         0.5000 
     78 O          -6.1314  -25.1262  -45.5284 O.2       13 UNK        -0.5000 
     79 N          -4.1068  -24.6841  -46.4529 N.am      14 UNK        -0.5000 
     80 CA         -4.4326  -25.0408  -47.8354 C.3       14 UNK         0.1400 
     81 CB         -3.1242  -25.2943  -48.6009 C.3       14 UNK        -0.1800 
     82 C          -5.2657  -23.9681  -48.5659 C.2       14 UNK         0.5000 
     83 O          -5.9269  -24.2955  -49.5515 O.2       14 UNK        -0.5000 
     84 N          -5.1905  -22.7157  -48.0889 N.am      15 UNK        -0.5000 
     85 CA         -5.7269  -21.4886  -48.6886 C.3       15 UNK         0.1400 
     86 CB         -7.2689  -21.4980  -48.6819 C.3       15 UNK        -0.1800 
     87 C          -5.1218  -21.2373  -50.0856 C.2       15 UNK         0.5000 
     88 O          -5.8526  -21.0039  -51.0483 O.2       15 UNK        -0.5000 
     89 N          -3.7865  -21.3299  -50.1656 N.am      16 UNK        -0.5000 
     90 CA         -2.9856  -21.4050  -51.3915 C.3       16 UNK         0.1400 
     91 CB         -1.4946  -21.4409  -51.0215 C.3       16 UNK        -0.1800 
     92 C          -3.2503  -20.2875  -52.4140 C.2       16 UNK         0.5000 
     93 O          -3.3653  -20.5733  -53.6068 O.2       16 UNK        -0.5000 
     94 N          -3.3690  -19.0461  -51.9271 N.am      17 UNK        -0.5000 
     95 CA         -3.6300  -17.8660  -52.7509 C.3       17 UNK         0.1400 
     96 CB         -3.3284  -16.6021  -51.9324 C.3       17 UNK        -0.1800 
     97 C          -5.0633  -17.8251  -53.3155 C.2       17 UNK         0.5000 
     98 O          -5.2602  -17.3199  -54.4207 O.2       17 UNK        -0.5000 
     99 N          -6.0323  -18.3672  -52.5644 N.am      18 UNK        -0.5000 
    100 CA        -7.4358  -18.4666  -52.9713 C.3       18 UNK         0.1400 
    101 CB        -8.3254  -18.5702  -51.7230 C.3       18 UNK        -0.1800 
    102 C         -7.6689  -19.6637  -53.9089 C.2       18 UNK         0.5000 
    103 O         -8.4343  -19.5514  -54.8668 O.2       18 UNK        -0.5000 
    104 N         -6.9789  -20.7776  -53.6302 N.am      19 UNK        -0.5000 
    105 CA        -6.9738  -22.0022  -54.4317 C.3       19 UNK         0.1400 
    106 CB        -6.3518  -23.1294  -53.5914 C.3       19 UNK        -0.1800 
    107 C         -6.2180  -21.8596  -55.7685 C.2       19 UNK         0.5000 
    108 O         -6.3856  -22.7085  -56.6448 O.2       19 UNK        -0.5000 
    109 N         -5.3903  -20.8101  -55.8855 N.am      20 UNK        -0.5000 
    110 CA        -4.4758  -20.5049  -56.9899 C.3       20 UNK         0.1400 
    111 CB        -5.2415  -20.2544  -58.3056 C.3       20 UNK        -0.1800 
    112 C         -3.3476  -21.5488  -57.1280 C.2       20 UNK         0.5000 
    113 O         -2.8549  -21.7944  -58.2308 O.2       20 UNK        -0.5000 
    114 N         -2.9291  -22.1197  -55.9894 N.am      21 UNK        -0.5000 
    115 CA        -1.8250  -23.0758  -55.8771 C.3       21 UNK         0.1400 
    116 CB        -1.8908  -23.7504  -54.4986 C.3       21 UNK        -0.1800 
    117 C         -0.4486  -22.4170  -56.0955 C.2       21 UNK         0.5000 
    118 O          0.5152  -23.1097  -56.4234 O.2       21 UNK        -0.5000 
    119 N         -0.3942  -21.0903  -55.9275 N.am      22 UNK        -0.5000 
    120 CA         0.7670  -20.2282  -56.1888 C.3       22 UNK         0.1400 
    121 C          1.1509  -20.0913  -57.6935 C.2       22 UNK         0.5000 
    122 N          0.3205  -20.5131  -58.6411 N.am      22 UNK        -0.7600 
    123 O          2.2283  -19.5924  -58.0068 O.2       22 UNK        -0.5000 
    124 C124        0.5748  -18.8266  -55.5551 C.3       23 UNK        -0.0398 
    125 S125        0.2240  -18.8969  -53.7651 S.3       23 UNK        -0.2404 
    126 C126        1.7964  -18.2874  -53.0871 C.3       23 UNK        -0.0205 
    127 H127       -4.2341  -15.4091  -43.9942 H         1 UNK         0.0600 
    128 H128       -5.7342  -16.2676  -43.6786 H         1 UNK         0.0600 
    129 H129       -5.6838  -15.0302  -44.9326 H         1 UNK         0.0600 
    130 H130       -3.5795  -17.3875  -47.0748 H         1 UNK         0.3000 
    131 H131       -3.5292  -14.6137  -46.2499 H         1 UNK         0.0600 
    132 H132       -1.6951  -14.4243  -47.9433 H         1 UNK         0.0800 
    133 H133       -3.2008  -15.0151  -48.5667 H         1 UNK         0.0800 
    134 H134        0.5632  -15.9598  -47.8209 H         1 UNK         0.0800 
    135 H135        0.1667  -15.2444  -49.3702 H         1 UNK         0.0800 
    136 H136        0.5103  -16.5108  -51.4854 H         1 UNK         0.1150 
    137 H137        2.9616  -20.0269  -51.3268 H         1 UNK         0.1150 
    138 H138        1.6082  -18.1853  -47.7022 H         1 UNK         0.1150 
    139 H139        3.2843  -19.9583  -47.6075 H         1 UNK         0.0800 
    140 H140        4.0032  -20.5795  -49.0734 H         1 UNK         0.0800 
    141 H141       -0.0047  -20.5089  -48.4864 H         1 UNK         0.0800 
    142 H142        0.8142  -20.3652  -46.9516 H         1 UNK         0.0800 
    143 H143       -0.6431  -22.8712  -47.8982 H         1 UNK         0.0600 
    144 H144        1.0048  -22.4208  -45.5741 H         1 UNK         0.3000 
    145 H145       -0.2790  -25.1499  -43.6836 H         1 UNK         0.0600 
    146 H146        1.1589  -26.3684  -45.3321 H         1 UNK         0.0600 
    147 H147        2.0284  -26.0519  -43.8393 H         1 UNK         0.0600 
    148 H148        2.3455  -25.0701  -45.2707 H         1 UNK         0.0600 
    149 H149        2.0426  -23.5778  -43.3032 H         1 UNK         0.3000 
    150 H150        0.6738  -20.5299  -42.3033 H         1 UNK         0.0600 
    151 H151        1.7157  -22.6440  -40.3456 H         1 UNK         0.0600 
    152 H152        0.1737  -21.8067  -40.2108 H         1 UNK         0.0600 
    153 H153        1.6713  -20.9011  -40.0727 H         1 UNK         0.0600 
    154 H154        3.2773  -21.3959  -41.8821 H         1 UNK         0.3000 
    155 H155        4.9645  -20.8673  -43.1445 H         1 UNK         0.0600 
    156 H156        4.5068  -21.9826  -45.9672 H         1 UNK         0.0600 
    157 H157        4.8093  -22.9481  -44.5284 H         1 UNK         0.0600 
    158 H158        6.0583  -21.8724  -45.1349 H         1 UNK         0.0600 
    159 H159        5.0511  -19.5982  -45.6890 H         1 UNK         0.3000 
    160 H160        5.8644  -17.2603  -45.4091 H         1 UNK         0.0600 
    161 H161        2.8466  -16.9160  -45.9106 H         1 UNK         0.0600 
    162 H162        3.9657  -17.8453  -46.9067 H         1 UNK         0.0600 
    163 H163        4.1119  -16.1030  -46.8255 H         1 UNK         0.0600 
    164 H164        4.0682  -15.9472  -43.4935 H         1 UNK         0.3000 
    165 H165        5.0149  -14.0465  -42.4475 H         1 UNK         0.0600 
    166 H166        7.2521  -13.1027  -43.0317 H         1 UNK         0.0600 
    167 H167        6.5294  -12.1530  -44.3253 H         1 UNK         0.0600 
    168 H168        6.0987  -11.8357  -42.6457 H         1 UNK         0.0600 
    169 H169        4.1199  -12.1515  -44.4943 H         1 UNK         0.3000 
    170 H170        1.8951  -11.5423  -44.4361 H         1 UNK         0.0600 
    171 H171        1.1417  -14.1645  -45.8501 H         1 UNK         0.0600 
    172 H172        2.3110  -12.9846  -46.4230 H         1 UNK         0.0600 
    173 H173        0.6089  -12.5575  -46.3384 H         1 UNK         0.0600 
    174 H174       -0.3527  -13.3236  -44.0827 H         1 UNK         0.3000 
    175 H175       -1.2922  -11.9909  -40.8681 H         1 UNK         0.0600 
    176 H176       -2.2084  -10.5107  -42.6487 H         1 UNK         0.0600 
    177 H177       -2.5104  -11.9050  -43.6805 H         1 UNK         0.0600 
    178 H178       -3.3892  -11.7186  -42.1644 H         1 UNK         0.0600 
    179 H179       -1.6852  -14.2036  -42.8506 H         1 UNK         0.3000 
    180 H180       -1.5531  -16.6427  -40.3506 H         1 UNK         0.0600 
    181 H181       -4.1932  -15.7375  -41.6181 H         1 UNK         0.0600 
    182 H182       -3.9200  -16.1258  -39.9280 H         1 UNK         0.0600 
    183 H183       -3.8199  -17.3946  -41.1387 H         1 UNK         0.0600 
    184 H184       -2.3554  -16.5238  -43.1568 H         1 UNK         0.3000 
    185 H185        0.6985  -16.1697  -44.5231 H         1 UNK         0.0600 
    186 H186        1.4129  -18.4525  -43.9177 H         1 UNK         0.0600 
    187 H187       -0.1744  -19.0962  -44.2943 H         1 UNK         0.0600 
    188 H188        0.8282  -18.4107  -45.5681 H         1 UNK         0.0600 
    189 H189       -1.5155  -17.4972  -45.7037 H         1 UNK         0.3000 
    190 H190       -1.2071  -21.3325  -44.7591 H         1 UNK         0.3000 
    191 H191       -3.6522  -19.9669  -45.6486 H         1 UNK         0.0600 
    192 H192       -2.4132  -18.9208  -43.8230 H         1 UNK         0.0600 
    193 H193       -3.9403  -19.4993  -43.2008 H         1 UNK         0.0600 
    194 H194       -2.4680  -20.3939  -42.8550 H         1 UNK         0.0600 
    195 H195       -2.7066  -22.9848  -44.0046 H         1 UNK         0.3000 
    196 H196       -5.3386  -23.9490  -43.4636 H         1 UNK         0.0600 
    197 H197       -4.2070  -26.1284  -43.1500 H         1 UNK         0.0600 
    198 H198       -3.2822  -24.8507  -42.3747 H         1 UNK         0.0600 
    199 H199       -2.7458  -25.5216  -43.9136 H         1 UNK         0.0600 
    200 H200       -3.1413  -24.4266  -46.2666 H         1 UNK         0.3000 
    201 H201       -5.0119  -25.9664  -47.8293 H         1 UNK         0.0600 
    202 H202       -3.3240  -25.6037  -49.6276 H         1 UNK         0.0600 
    203 H203       -2.5383  -26.0846  -48.1311 H         1 UNK         0.0600 
    204 H204       -2.5045  -24.3978  -48.6432 H         1 UNK         0.0600 
    205 H205       -4.5864  -22.5657  -47.2931 H         1 UNK         0.3000 
    206 H206       -5.3981  -20.6651  -48.0528 H         1 UNK         0.0600 
    207 H207       -7.6554  -21.6980  -47.6825 H         1 UNK         0.0600 
    208 H208       -7.6635  -20.5311  -48.9943 H         1 UNK         0.0600 
    209 H209       -7.6759  -22.2513  -49.3571 H         1 UNK         0.0600 
    210 H210       -3.2836  -21.4609  -49.2906 H         1 UNK         0.3000 
    211 H211       -3.2400  -22.3509  -51.8726 H         1 UNK         0.0600 
    212 H212       -0.8699  -21.5386  -51.9105 H         1 UNK         0.0600 
    213 H213       -1.2662  -22.2838  -50.3692 H         1 UNK         0.0600 
    214 H214       -1.1885  -20.5262  -50.5129 H         1 UNK         0.0600 
    215 H215       -3.2586  -18.9013  -50.9343 H         1 UNK         0.3000 
    216 H216       -2.9437  -17.8876  -53.6006 H         1 UNK         0.0600 
    217 H217       -2.2817  -16.5743  -51.6289 H         1 UNK         0.0600 
    218 H218       -3.9421  -16.5467  -51.0325 H         1 UNK         0.0600 
    219 H219       -3.5187  -15.7015  -52.5175 H         1 UNK         0.0600 
    220 H220       -5.7770  -18.8344  -51.7049 H         1 UNK         0.3000 
    221 H221       -7.7150  -17.5575  -53.5086 H         1 UNK         0.0600 
    222 H222       -8.1155  -19.4738  -51.1507 H         1 UNK         0.0600 
    223 H223       -8.1824  -17.7139  -51.0638 H         1 UNK         0.0600 
    224 H224       -9.3802  -18.5963  -51.9989 H         1 UNK         0.0600 
    225 H225       -6.4304  -20.8015  -52.7726 H         1 UNK         0.3000 
    226 H226       -8.0074  -22.2687  -54.6608 H         1 UNK         0.0600 
    227 H227       -6.8996  -23.2778  -52.6603 H         1 UNK         0.0600 
    228 H228       -6.3654  -24.0768  -54.1316 H         1 UNK         0.0600 
    229 H229       -5.3141  -22.9117  -53.3352 H         1 UNK         0.0600 
    230 H230       -5.3036  -20.2101  -55.0765 H         1 UNK         0.3000 
    231 H231       -3.9843  -19.5699  -56.7169 H         1 UNK         0.0600 
    232 H232       -5.6919  -21.1673  -58.6957 H         1 UNK         0.0600 
    233 H233       -4.5745  -19.8668  -59.0764 H         1 UNK         0.0600 
    234 H234       -6.0352  -19.5206  -58.1657 H         1 UNK         0.0600 
    235 H235       -3.3273  -21.7834  -55.1172 H         1 UNK         0.3000 
    236 H236       -1.9545  -23.8420  -56.6441 H         1 UNK         0.0600 
    237 H237       -1.7273  -23.0326  -53.6954 H         1 UNK         0.0600 
    238 H238       -2.8584  -24.2253  -54.3349 H         1 UNK         0.0600 
    239 H239       -1.1276  -24.5240  -54.4064 H         1 UNK         0.0600 
    240 H240       -1.2314  -20.6203  -55.6167 H         1 UNK         0.3000 
    241 H241        1.6257  -20.6951  -55.7027 H         1 UNK         0.0600 
    242 H242        0.5870  -20.4194  -59.6087 H         1 UNK         0.3800 
    243 H243       -0.5665  -20.9342  -58.4063 H         1 UNK         0.3800 
    244 H244        1.4561  -18.2050  -55.7235 H         1 UNK         0.0800 
    245 H245       -0.2544  -18.3059  -56.0371 H         1 UNK         0.0800 
    246 H246        2.6127  -18.9202  -53.4389 H         1 UNK         0.0800 
    247 H247        1.9933  -17.2829  -53.4648 H         1 UNK         0.0800 
@<TRIPOS>BOND
     1    1    2 1    
     2    1  127 1    
     3    1  128 1    
     4    1  129 1    
     5    2    3 2    
     6    2    4 am   BACKBONE|DICT|INTERRES
     7    4    5 1    
     8    4  130 1    
     9    5    6 1    
    10    5   65 1    
    11    5  131 1    
    12    6    7 1    
    13    6  132 1    
    14    6  133 1    
    15    7    8 1    
    16    8    9 1    
    17    8  134 1    
    18    8  135 1    
    19    9   10 ar   
    20    9   14 ar   
    21   10   11 ar   
    22   10  136 1    
    23   11   12 ar   
    24   11  126 1    
    25   12   13 ar   
    26   12  137 1    
    27   13   14 ar   
    28   13   15 1    
    29   14  138 1    
    30   15   16 1    
    31   15  139 1    
    32   15  140 1    
    33   16   17 1    
    34   17   18 1    
    35   17  141 1    
    36   17  142 1    
    37   18   19 1    
    38   18   67 1    
    39   18  143 1    
    40   19   20 am   BACKBONE|DICT|INTERRES
    41   19  144 1    
    42   20   21 2    
    43   20   22 1    
    44   22   23 1    
    45   22   24 1    
    46   22  145 1    
    47   23  146 1    
    48   23  147 1    
    49   23  148 1    
    50   24   25 am   BACKBONE|DICT|INTERRES
    51   24  149 1    
    52   25   26 2    
    53   25   27 1    
    54   27   28 1    
    55   27   29 1    
    56   27  150 1    
    57   28  151 1    
    58   28  152 1    
    59   28  153 1    
    60   29   30 am   BACKBONE|DICT|INTERRES
    61   29  154 1    
    62   30   31 2    
    63   30   32 1    
    64   32   33 1    
    65   32   34 1    
    66   32  155 1    
    67   33  156 1    
    68   33  157 1    
    69   33  158 1    
    70   34   35 am   BACKBONE|DICT|INTERRES
    71   34  159 1    
    72   35   36 2    
    73   35   37 1    
    74   37   38 1    
    75   37   39 1    
    76   37  160 1    
    77   38  161 1    
    78   38  162 1    
    79   38  163 1    
    80   39   40 am   BACKBONE|DICT|INTERRES
    81   39  164 1    
    82   40   41 2    
    83   40   42 1    
    84   42   43 1    
    85   42   44 1    
    86   42  165 1    
    87   43  166 1    
    88   43  167 1    
    89   43  168 1    
    90   44   45 am   BACKBONE|DICT|INTERRES
    91   44  169 1    
    92   45   46 2    
    93   45   47 1    
    94   47   48 1    
    95   47   49 1    
    96   47  170 1    
    97   48  171 1    
    98   48  172 1    
    99   48  173 1    
   100   49   50 am   BACKBONE|DICT|INTERRES
   101   49  174 1    
   102   50   51 2    
   103   50   52 1    
   104   52   53 1    
   105   52   54 1    
   106   52  175 1    
   107   53  176 1    
   108   53  177 1    
   109   53  178 1    
   110   54   55 am   BACKBONE|DICT|INTERRES
   111   54  179 1    
   112   55   56 2    
   113   55   57 1    
   114   57   58 1    
   115   57   59 1    
   116   57  180 1    
   117   58  181 1    
   118   58  182 1    
   119   58  183 1    
   120   59   60 am   BACKBONE|DICT|INTERRES
   121   59  184 1    
   122   60   61 2    
   123   60   62 1    
   124   62   63 1    
   125   62   64 1    
   126   62  185 1    
   127   63  186 1    
   128   63  187 1    
   129   63  188 1    
   130   64   65 am   BACKBONE|DICT|INTERRES
   131   64  189 1    
   132   65   66 2    
   133   67   68 2    
   134   67   69 am   BACKBONE|DICT|INTERRES
   135   69   70 1    
   136   69  190 1    
   137   70   71 1    
   138   70   72 1    
   139   70  191 1    
   140   71  192 1    
   141   71  193 1    
   142   71  194 1    
   143   72   73 2    
   144   72   74 am   BACKBONE|DICT|INTERRES
   145   74   75 1    
   146   74  195 1    
   147   75   76 1    
   148   75   77 1    
   149   75  196 1    
   150   76  197 1    
   151   76  198 1    
   152   76  199 1    
   153   77   78 2    
   154   77   79 am   BACKBONE|DICT|INTERRES
   155   79   80 1    
   156   79  200 1    
   157   80   81 1    
   158   80   82 1    
   159   80  201 1    
   160   81  202 1    
   161   81  203 1    
   162   81  204 1    
   163   82   83 2    
   164   82   84 am   BACKBONE|DICT|INTERRES
   165   84   85 1    
   166   84  205 1    
   167   85   86 1    
   168   85   87 1    
   169   85  206 1    
   170   86  207 1    
   171   86  208 1    
   172   86  209 1    
   173   87   88 2    
   174   87   89 am   BACKBONE|DICT|INTERRES
   175   89   90 1    
   176   89  210 1    
   177   90   91 1    
   178   90   92 1    
   179   90  211 1    
   180   91  212 1    
   181   91  213 1    
   182   91  214 1    
   183   92   93 2    
   184   92   94 am   BACKBONE|DICT|INTERRES
   185   94   95 1    
   186   94  215 1    
   187   95   96 1    
   188   95   97 1    
   189   95  216 1    
   190   96  217 1    
   191   96  218 1    
   192   96  219 1    
   193   97   98 2    
   194   97   99 am   BACKBONE|DICT|INTERRES
   195   99  100 1    
   196   99  220 1    
   197  100  101 1    
   198  100  102 1    
   199  100  221 1    
   200  101  222 1    
   201  101  223 1    
   202  101  224 1    
   203  102  103 2    
   204  102  104 am   BACKBONE|DICT|INTERRES
   205  104  105 1    
   206  104  225 1    
   207  105  106 1    
   208  105  107 1    
   209  105  226 1    
   210  106  227 1    
   211  106  228 1    
   212  106  229 1    
   213  107  108 2    
   214  107  109 am   BACKBONE|DICT|INTERRES
   215  109  110 1    
   216  109  230 1    
   217  110  111 1    
   218  110  112 1    
   219  110  231 1    
   220  111  232 1    
   221  111  233 1    
   222  111  234 1    
   223  112  113 2    
   224  112  114 am   BACKBONE|DICT|INTERRES
   225  114  115 1    
   226  114  235 1    
   227  115  116 1    
   228  115  117 1    
   229  115  236 1    
   230  116  237 1    
   231  116  238 1    
   232  116  239 1    
   233  117  118 2    
   234  117  119 am   BACKBONE|DICT|INTERRES
   235  119  120 1    
   236  119  240 1    
   237  120  121 1    
   238  120  124 1    
   239  120  241 1    
   240  121  122 am   BACKBONE|DICT|INTERRES
   241  121  123 2    
   242  122  242 1    
   243  122  243 1    
   244  124  125 1    
   245  124  244 1    
   246  124  245 1    
   247  125  126 1    
   248  126  246 1    
   249  126  247 1    
@<TRIPOS>SUBSTRUCTURE
     1 UNK         1 GROUP             0       ****    0 ROOT    
