@<TRIPOS>MOLECULE
3R540
247   249    1
SMALL
USER_CHARGES


@<TRIPOS>ATOM
      1 CA         -0.1631  -13.6249  -47.5615 C.3       0 UNK        -0.1800 
      2 C           1.0470  -14.4730  -47.9257 C.2       0 UNK         0.5000 
      3 O           0.9080  -15.6820  -48.0939 O.2       0 UNK        -0.5000 
      4 N           2.2154  -13.8264  -48.0406 N.am      1 UNK        -0.5000 
      5 CA          3.5588  -14.3109  -48.4021 C.3       1 UNK         0.1400 
      6 C6          3.7609  -14.5394  -49.9292 C.3       23 UNK        -0.0398 
      7 S7          3.1231  -16.1063  -50.6231 S.3       23 UNK        -0.2404 
      8 C8          1.6304  -15.5482  -51.4963 C.3       23 UNK        -0.0205 
      9 C9          0.7884  -16.7394  -51.9211 C.ar      23 UNK        -0.0193 
     10 C10         0.9369  -17.2955  -53.1955 C.ar      23 UNK        -0.1150 
     11 C11         0.1826  -18.4097  -53.5774 C.ar      23 UNK        -0.0193 
     12 C12        -0.7289  -18.9595  -52.6704 C.ar      23 UNK        -0.1150 
     13 C13        -0.8869  -18.4115  -51.3946 C.ar      23 UNK        -0.0193 
     14 C14        -0.1277  -17.2998  -51.0266 C.ar      23 UNK        -0.1150 
     15 C15        -1.8831  -19.0213  -50.4239 C.3       23 UNK        -0.0205 
     16 S16        -1.3891  -20.6954  -49.9243 S.3       23 UNK        -0.2404 
     17 C17        -0.5424  -20.3735  -48.3416 C.3       23 UNK        -0.0398 
     18 CA         -0.1699  -21.6717  -47.5839 C.3       11 UNK         0.1400 
     19 N           0.6634  -21.4153  -46.4033 N.am      11 UNK        -0.5000 
     20 C           1.3278  -22.3716  -45.7350 C.2       10 UNK         0.5000 
     21 O           1.3900  -23.5419  -46.1087 O.2       10 UNK        -0.5000 
     22 CA          1.9576  -21.9900  -44.3836 C.3       10 UNK         0.1400 
     23 CB          3.4199  -21.5489  -44.5228 C.3       10 UNK        -0.1800 
     24 N           1.1775  -20.9670  -43.6872 N.am      10 UNK        -0.5000 
     25 C           0.0310  -21.2471  -43.0520 C.2       9 UNK         0.5000 
     26 O          -0.4441  -22.3808  -42.9860 O.2       9 UNK        -0.5000 
     27 CA         -0.7333  -20.0814  -42.4015 C.3       9 UNK         0.1400 
     28 CB         -0.2885  -19.9079  -40.9442 C.3       9 UNK        -0.1800 
     29 N          -0.6309  -18.8045  -43.1121 N.am      9 UNK        -0.5000 
     30 C          -1.0495  -18.5971  -44.3687 C.2       8 UNK         0.5000 
     31 O          -1.4699  -19.4957  -45.1008 O.2       8 UNK        -0.5000 
     32 CA         -1.0013  -17.1403  -44.8705 C.3       8 UNK         0.1400 
     33 CB         -1.6986  -16.9473  -46.2346 C.3       8 UNK        -0.1800 
     34 N          -1.5104  -16.1998  -43.8658 N.am      8 UNK        -0.5000 
     35 C          -2.7705  -16.0874  -43.4199 C.2       7 UNK         0.5000 
     36 O          -3.7085  -16.7832  -43.8123 O.2       7 UNK        -0.5000 
     37 CA         -3.0086  -14.9869  -42.3658 C.3       7 UNK         0.1400 
     38 CB         -4.4293  -15.0087  -41.7618 C.3       7 UNK        -0.1800 
     39 N          -1.9842  -14.9705  -41.3166 N.am      7 UNK        -0.5000 
     40 C          -1.7437  -15.9135  -40.3908 C.2       6 UNK         0.5000 
     41 O          -2.3835  -16.9614  -40.3048 O.2       6 UNK        -0.5000 
     42 CA         -0.6025  -15.6390  -39.3865 C.3       6 UNK         0.1400 
     43 CB          0.2272  -16.8981  -39.0878 C.3       6 UNK        -0.1800 
     44 N           0.3039  -14.6038  -39.8768 N.am      6 UNK        -0.5000 
     45 C           0.3542  -13.3369  -39.4467 C.2       5 UNK         0.5000 
     46 O          -0.3335  -12.8974  -38.5248 O.2       5 UNK        -0.5000 
     47 CA          1.3226  -12.3913  -40.1870 C.3       5 UNK         0.1400 
     48 CB          2.6084  -12.1938  -39.3696 C.3       5 UNK        -0.1800 
     49 N           1.6837  -12.8500  -41.5323 N.am      5 UNK        -0.5000 
     50 C           0.8353  -12.9643  -42.5638 C.2       4 UNK         0.5000 
     51 O          -0.3634  -12.6925  -42.5003 O.2       4 UNK        -0.5000 
     52 CA          1.4161  -13.5381  -43.8680 C.3       4 UNK         0.1400 
     53 CB          2.0672  -12.4135  -44.6864 C.3       4 UNK        -0.1800 
     54 N           2.3966  -14.6086  -43.6612 N.am      4 UNK        -0.5000 
     55 C           2.1844  -15.7595  -43.0059 C.2       3 UNK         0.5000 
     56 O           1.1154  -16.0531  -42.4646 O.2       3 UNK        -0.5000 
     57 CA          3.3768  -16.7342  -42.9860 C.3       3 UNK         0.1400 
     58 CB          3.1171  -18.0063  -42.1514 C.3       3 UNK        -0.1800 
     59 N           3.8157  -17.0481  -44.3511 N.am      3 UNK        -0.5000 
     60 C           3.1551  -17.7652  -45.2709 C.2       2 UNK         0.5000 
     61 O           2.1029  -18.3714  -45.0576 O.2       2 UNK        -0.5000 
     62 CA          3.7726  -17.7645  -46.6768 C.3       2 UNK         0.1400 
     63 CB          3.2886  -18.9373  -47.5474 C.3       2 UNK        -0.1800 
     64 N           3.3873  -16.5316  -47.3468 N.am      2 UNK        -0.5000 
     65 C           4.1411  -15.4456  -47.5215 C.2       1 UNK         0.5000 
     66 O           5.2591  -15.3136  -47.0210 O.2       1 UNK        -0.5000 
     67 C          -1.4194  -22.4938  -47.2009 C.2       11 UNK         0.5000 
     68 O          -1.7579  -23.4471  -47.9037 O.2       11 UNK        -0.5000 
     69 N          -2.0652  -22.1400  -46.0808 N.am      12 UNK        -0.5000 
     70 CA         -3.2108  -22.8637  -45.5256 C.3       12 UNK         0.1400 
     71 CB         -3.7727  -22.1003  -44.3182 C.3       12 UNK        -0.1800 
     72 C          -2.8807  -24.3227  -45.1584 C.2       12 UNK         0.5000 
     73 O          -3.7073  -25.2050  -45.3877 O.2       12 UNK        -0.5000 
     74 N          -1.6724  -24.5502  -44.6290 N.am      13 UNK        -0.5000 
     75 CA         -1.1505  -25.8717  -44.2993 C.3       13 UNK         0.1400 
     76 CB          0.0300  -25.7261  -43.3252 C.3       13 UNK        -0.1800 
     77 C          -0.7418  -26.6804  -45.5448 C.2       13 UNK         0.5000 
     78 O          -1.2372  -27.7924  -45.7313 O.2       13 UNK        -0.5000 
     79 N           0.1824  -26.1366  -46.3491 N.am      14 UNK        -0.5000 
     80 CA          0.8781  -26.8868  -47.3970 C.3       14 UNK         0.1400 
     81 CB          2.2732  -26.2800  -47.6138 C.3       14 UNK        -0.1800 
     82 C           0.1203  -26.9500  -48.7322 C.2       14 UNK         0.5000 
     83 O           0.1846  -27.9791  -49.4062 O.2       14 UNK        -0.5000 
     84 N          -0.5522  -25.8556  -49.1083 N.am      15 UNK        -0.5000 
     85 CA         -1.1925  -25.6880  -50.4172 C.3       15 UNK         0.1400 
     86 CB         -0.6690  -24.3893  -51.0525 C.3       15 UNK        -0.1800 
     87 C          -2.7292  -25.6775  -50.3301 C.2       15 UNK         0.5000 
     88 O          -3.3845  -25.5402  -51.3632 O.2       15 UNK        -0.5000 
     89 N          -3.2756  -25.8104  -49.1122 N.am      16 UNK        -0.5000 
     90 CA         -4.7011  -25.7609  -48.7713 C.3       16 UNK         0.1400 
     91 CB         -5.4578  -26.9578  -49.3858 C.3       16 UNK        -0.1800 
     92 C          -5.3515  -24.3974  -49.0943 C.2       16 UNK         0.5000 
     93 O          -6.5196  -24.3539  -49.4839 O.2       16 UNK        -0.5000 
     94 N          -4.5796  -23.3133  -48.9109 N.am      17 UNK        -0.5000 
     95 CA         -4.9473  -21.9117  -49.1419 C.3       17 UNK         0.1400 
     96 CB         -6.0595  -21.4561  -48.1732 C.3       17 UNK        -0.1800 
     97 C          -5.2853  -21.6393  -50.6220 C.2       17 UNK         0.5000 
     98 O          -6.3978  -21.2237  -50.9492 O.2       17 UNK        -0.5000 
     99 N          -4.2979  -21.8693  -51.4965 N.am      18 UNK        -0.5000 
    100 CA        -4.3762  -21.7493  -52.9581 C.3       18 UNK         0.1400 
    101 CB        -3.1594  -22.4677  -53.5665 C.3       18 UNK        -0.1800 
    102 C         -4.5068  -20.3083  -53.5087 C.2       18 UNK         0.5000 
    103 O         -4.3536  -20.1061  -54.7138 O.2       18 UNK        -0.5000 
    104 N         -4.8044  -19.3258  -52.6478 N.am      19 UNK        -0.5000 
    105 CA        -4.9195  -17.9002  -52.9709 C.3       19 UNK         0.1400 
    106 CB        -5.2055  -17.1125  -51.6835 C.3       19 UNK        -0.1800 
    107 C         -5.9819  -17.5867  -54.0415 C.2       19 UNK         0.5000 
    108 O         -5.8048  -16.6451  -54.8139 O.2       19 UNK        -0.5000 
    109 N         -7.0387  -18.4086  -54.1006 N.am      20 UNK        -0.5000 
    110 CA        -8.0882  -18.3506  -55.1191 C.3       20 UNK         0.1400 
    111 CB        -9.2275  -19.2983  -54.7142 C.3       20 UNK        -0.1800 
    112 C         -7.5873  -18.6847  -56.5397 C.2       20 UNK         0.5000 
    113 O         -8.1686  -18.1964  -57.5096 O.2       20 UNK        -0.5000 
    114 N         -6.5255  -19.4967  -56.6402 N.am      21 UNK        -0.5000 
    115 CA        -5.8548  -19.8266  -57.8958 C.3       21 UNK         0.1400 
    116 CB        -5.3223  -21.2674  -57.8311 C.3       21 UNK        -0.1800 
    117 C         -4.7165  -18.8353  -58.1883 C.2       21 UNK         0.5000 
    118 O         -4.5708  -18.4052  -59.3335 O.2       21 UNK        -0.5000 
    119 N         -3.9321  -18.4948  -57.1566 N.am      22 UNK        -0.5000 
    120 CA        -2.7847  -17.5769  -57.2527 C.3       22 UNK         0.1400 
    121 C         -3.1663  -16.0893  -57.4967 C.2       22 UNK         0.5000 
    122 N         -4.3077  -15.6085  -57.0207 N.am      22 UNK        -0.7600 
    123 O         -2.4137  -15.3596  -58.1363 O.2       22 UNK        -0.5000 
    124 C124       -1.8398  -17.6976  -56.0326 C.3       23 UNK        -0.0398 
    125 S125       -1.1638  -19.3805  -55.8386 S.3       23 UNK        -0.2404 
    126 C126        0.3914  -19.0393  -54.9511 C.3       23 UNK        -0.0205 
    127 H127       -0.9757  -13.8127  -48.2634 H         1 UNK         0.0600 
    128 H128        0.0650  -12.5591  -47.5850 H         1 UNK         0.0600 
    129 H129       -0.5123  -13.8749  -46.5607 H         1 UNK         0.0600 
    130 H130        2.1947  -12.8314  -47.8682 H         1 UNK         0.3000 
    131 H131        4.1843  -13.4486  -48.1645 H         1 UNK         0.0600 
    132 H132        3.3385  -13.7018  -50.4856 H         1 UNK         0.0800 
    133 H133        4.8291  -14.5139  -50.1503 H         1 UNK         0.0800 
    134 H134        1.0433  -14.8948  -50.8504 H         1 UNK         0.0800 
    135 H135        1.9166  -14.9522  -52.3640 H         1 UNK         0.0800 
    136 H136        1.6552  -16.8699  -53.8822 H         1 UNK         0.1150 
    137 H137       -1.3110  -19.8245  -52.9530 H         1 UNK         0.1150 
    138 H138       -0.2402  -16.8762  -50.0391 H         1 UNK         0.1150 
    139 H139       -2.0231  -18.3867  -49.5474 H         1 UNK         0.0800 
    140 H140       -2.8528  -19.0822  -50.9099 H         1 UNK         0.0800 
    141 H141        0.3535  -19.7966  -48.5655 H         1 UNK         0.0800 
    142 H142       -1.1758  -19.7374  -47.7232 H         1 UNK         0.0800 
    143 H143        0.4213  -22.2875  -48.2657 H         1 UNK         0.0600 
    144 H144        0.6150  -20.4892  -46.0006 H         1 UNK         0.3000 
    145 H145        1.9632  -22.8945  -43.7713 H         1 UNK         0.0600 
    146 H146        3.8840  -21.4237  -43.5445 H         1 UNK         0.0600 
    147 H147        4.0031  -22.2925  -45.0675 H         1 UNK         0.0600 
    148 H148        3.5123  -20.6063  -45.0522 H         1 UNK         0.0600 
    149 H149        1.4804  -20.0042  -43.7818 H         1 UNK         0.3000 
    150 H150       -1.7895  -20.3561  -42.3936 H         1 UNK         0.0600 
    151 H151       -0.3425  -20.8533  -40.4026 H         1 UNK         0.0600 
    152 H152       -0.9374  -19.2069  -40.4228 H         1 UNK         0.0600 
    153 H153        0.7377  -19.5483  -40.8720 H         1 UNK         0.0600 
    154 H154       -0.2791  -18.0129  -42.5902 H         1 UNK         0.3000 
    155 H155        0.0475  -16.8827  -45.0102 H         1 UNK         0.0600 
    156 H156       -1.7503  -15.8959  -46.5115 H         1 UNK         0.0600 
    157 H157       -2.7152  -17.3414  -46.2352 H         1 UNK         0.0600 
    158 H158       -1.1475  -17.4597  -47.0231 H         1 UNK         0.0600 
    159 H159       -0.7984  -15.6560  -43.3950 H         1 UNK         0.3000 
    160 H160       -2.9031  -14.0404  -42.8981 H         1 UNK         0.0600 
    161 H161       -4.6469  -15.9530  -41.2624 H         1 UNK         0.0600 
    162 H162       -5.1834  -14.8708  -42.5374 H         1 UNK         0.0600 
    163 H163       -4.5615  -14.2063  -41.0360 H         1 UNK         0.0600 
    164 H164       -1.3856  -14.1531  -41.3237 H         1 UNK         0.3000 
    165 H165       -1.0740  -15.3206  -38.4550 H         1 UNK         0.0600 
    166 H166        0.6922  -17.2913  -39.9914 H         1 UNK         0.0600 
    167 H167        1.0207  -16.6844  -38.3718 H         1 UNK         0.0600 
    168 H168       -0.3905  -17.6856  -38.6553 H         1 UNK         0.0600 
    169 H169        0.8740  -14.8710  -40.6699 H         1 UNK         0.3000 
    170 H170        0.8243  -11.4244  -40.2838 H         1 UNK         0.0600 
    171 H171        2.3828  -11.8223  -38.3691 H         1 UNK         0.0600 
    172 H172        3.1602  -13.1278  -39.2562 H         1 UNK         0.0600 
    173 H173        3.2694  -11.4671  -39.8423 H         1 UNK         0.0600 
    174 H174        2.6490  -13.1077  -41.6765 H         1 UNK         0.3000 
    175 H175        0.5916  -13.9586  -44.4456 H         1 UNK         0.0600 
    176 H176        2.8460  -11.9012  -44.1198 H         1 UNK         0.0600 
    177 H177        2.5253  -12.7956  -45.5957 H         1 UNK         0.0600 
    178 H178        1.3285  -11.6662  -44.9792 H         1 UNK         0.0600 
    179 H179        3.3041  -14.4618  -44.0779 H         1 UNK         0.3000 
    180 H180        4.2029  -16.2026  -42.5118 H         1 UNK         0.0600 
    181 H181        2.2403  -18.5519  -42.4945 H         1 UNK         0.0600 
    182 H182        2.9477  -17.7525  -41.1046 H         1 UNK         0.0600 
    183 H183        3.9693  -18.6846  -42.1883 H         1 UNK         0.0600 
    184 H184        4.6643  -16.5859  -44.6493 H         1 UNK         0.3000 
    185 H185        4.8587  -17.8321  -46.5868 H         1 UNK         0.0600 
    186 H186        3.6812  -18.8595  -48.5615 H         1 UNK         0.0600 
    187 H187        3.6187  -19.8961  -47.1519 H         1 UNK         0.0600 
    188 H188        2.2025  -18.9590  -47.6174 H         1 UNK         0.0600 
    189 H189        2.4410  -16.4961  -47.7252 H         1 UNK         0.3000 
    190 H190       -1.7665  -21.3020  -45.5877 H         1 UNK         0.3000 
    191 H191       -3.9856  -22.8898  -46.2905 H         1 UNK         0.0600 
    192 H192       -4.0179  -21.0705  -44.5798 H         1 UNK         0.0600 
    193 H193       -4.6863  -22.5708  -43.9531 H         1 UNK         0.0600 
    194 H194       -3.0652  -22.0774  -43.4906 H         1 UNK         0.0600 
    195 H195       -1.0839  -23.7562  -44.4039 H         1 UNK         0.3000 
    196 H196       -1.9354  -26.4299  -43.7843 H         1 UNK         0.0600 
    197 H197        0.4367  -26.7014  -43.0549 H         1 UNK         0.0600 
    198 H198       -0.2812  -25.2364  -42.4022 H         1 UNK         0.0600 
    199 H199        0.8418  -25.1388  -43.7549 H         1 UNK         0.0600 
    200 H200        0.5368  -25.2027  -46.1540 H         1 UNK         0.3000 
    201 H201        1.0218  -27.9137  -47.0530 H         1 UNK         0.0600 
    202 H202        2.8413  -26.2517  -46.6838 H         1 UNK         0.0600 
    203 H203        2.2148  -25.2625  -48.0021 H         1 UNK         0.0600 
    204 H204        2.8482  -26.8695  -48.3289 H         1 UNK         0.0600 
    205 H205       -0.6063  -25.0588  -48.4831 H         1 UNK         0.3000 
    206 H206       -0.9260  -26.5103  -51.0839 H         1 UNK         0.0600 
    207 H207        0.4179  -24.4000  -51.1336 H         1 UNK         0.0600 
    208 H208       -1.0662  -24.2536  -52.0587 H         1 UNK         0.0600 
    209 H209       -0.9512  -23.5161  -50.4673 H         1 UNK         0.0600 
    210 H210       -2.6410  -25.8881  -48.3300 H         1 UNK         0.3000 
    211 H211       -4.7583  -25.8694  -47.6887 H         1 UNK         0.0600 
    212 H212       -5.5169  -26.8881  -50.4722 H         1 UNK         0.0600 
    213 H213       -6.4792  -27.0097  -49.0071 H         1 UNK         0.0600 
    214 H214       -4.9727  -27.9012  -49.1355 H         1 UNK         0.0600 
    215 H215       -3.6191  -23.4711  -48.6195 H         1 UNK         0.3000 
    216 H216       -4.0634  -21.3189  -48.9073 H         1 UNK         0.0600 
    217 H217       -5.7723  -21.6108  -47.1340 H         1 UNK         0.0600 
    218 H218       -6.9960  -21.9877  -48.3439 H         1 UNK         0.0600 
    219 H219       -6.2652  -20.3920  -48.2941 H         1 UNK         0.0600 
    220 H220       -3.4124  -22.1928  -51.1343 H         1 UNK         0.3000 
    221 H221       -5.2722  -22.2807  -53.2842 H         1 UNK         0.0600 
    222 H222       -2.2219  -22.0119  -53.2472 H         1 UNK         0.0600 
    223 H223       -3.1387  -23.5175  -53.2743 H         1 UNK         0.0600 
    224 H224       -3.1825  -22.4423  -54.6568 H         1 UNK         0.0600 
    225 H225       -5.0092  -19.5920  -51.6958 H         1 UNK         0.3000 
    226 H226       -3.9544  -17.5744  -53.3619 H         1 UNK         0.0600 
    227 H227       -4.3999  -17.2264  -50.9588 H         1 UNK         0.0600 
    228 H228       -5.3004  -16.0458  -51.8916 H         1 UNK         0.0600 
    229 H229       -6.1327  -17.4384  -51.2105 H         1 UNK         0.0600 
    230 H230       -7.0995  -19.1572  -53.4255 H         1 UNK         0.3000 
    231 H231       -8.4806  -17.3318  -55.1401 H         1 UNK         0.0600 
    232 H232      -10.0422  -19.2619  -55.4387 H         1 UNK         0.0600 
    233 H233       -9.6440  -19.0236  -53.7449 H         1 UNK         0.0600 
    234 H234       -8.8877  -20.3330  -54.6537 H         1 UNK         0.0600 
    235 H235       -6.0644  -19.8100  -55.7942 H         1 UNK         0.3000 
    236 H236       -6.5687  -19.7744  -58.7207 H         1 UNK         0.0600 
    237 H237       -6.1291  -21.9772  -57.6485 H         1 UNK         0.0600 
    238 H238       -4.8485  -21.5482  -58.7724 H         1 UNK         0.0600 
    239 H239       -4.5802  -21.3942  -57.0423 H         1 UNK         0.0600 
    240 H240       -4.0788  -18.9434  -56.2577 H         1 UNK         0.3000 
    241 H241       -2.2103  -17.8839  -58.1292 H         1 UNK         0.0600 
    242 H242       -4.5447  -14.6450  -57.1940 H         1 UNK         0.3800 
    243 H243       -4.8996  -16.1612  -56.4065 H         1 UNK         0.3800 
    244 H244       -2.3594  -17.4233  -55.1141 H         1 UNK         0.0800 
    245 H245       -1.0041  -17.0022  -56.1322 H         1 UNK         0.0800 
    246 H246        0.9313  -19.9780  -54.8219 H         1 UNK         0.0800 
    247 H247        1.0217  -18.4060  -55.5774 H         1 UNK         0.0800 
@<TRIPOS>BOND
     1    1    2 1    
     2    1  127 1    
     3    1  128 1    
     4    1  129 1    
     5    2    3 2    
     6    2    4 am   BACKBONE|DICT|INTERRES
     7    4    5 1    
     8    4  130 1    
     9    5    6 1    
    10    5   65 1    
    11    5  131 1    
    12    6    7 1    
    13    6  132 1    
    14    6  133 1    
    15    7    8 1    
    16    8    9 1    
    17    8  134 1    
    18    8  135 1    
    19    9   10 ar   
    20    9   14 ar   
    21   10   11 ar   
    22   10  136 1    
    23   11   12 ar   
    24   11  126 1    
    25   12   13 ar   
    26   12  137 1    
    27   13   14 ar   
    28   13   15 1    
    29   14  138 1    
    30   15   16 1    
    31   15  139 1    
    32   15  140 1    
    33   16   17 1    
    34   17   18 1    
    35   17  141 1    
    36   17  142 1    
    37   18   19 1    
    38   18   67 1    
    39   18  143 1    
    40   19   20 am   BACKBONE|DICT|INTERRES
    41   19  144 1    
    42   20   21 2    
    43   20   22 1    
    44   22   23 1    
    45   22   24 1    
    46   22  145 1    
    47   23  146 1    
    48   23  147 1    
    49   23  148 1    
    50   24   25 am   BACKBONE|DICT|INTERRES
    51   24  149 1    
    52   25   26 2    
    53   25   27 1    
    54   27   28 1    
    55   27   29 1    
    56   27  150 1    
    57   28  151 1    
    58   28  152 1    
    59   28  153 1    
    60   29   30 am   BACKBONE|DICT|INTERRES
    61   29  154 1    
    62   30   31 2    
    63   30   32 1    
    64   32   33 1    
    65   32   34 1    
    66   32  155 1    
    67   33  156 1    
    68   33  157 1    
    69   33  158 1    
    70   34   35 am   BACKBONE|DICT|INTERRES
    71   34  159 1    
    72   35   36 2    
    73   35   37 1    
    74   37   38 1    
    75   37   39 1    
    76   37  160 1    
    77   38  161 1    
    78   38  162 1    
    79   38  163 1    
    80   39   40 am   BACKBONE|DICT|INTERRES
    81   39  164 1    
    82   40   41 2    
    83   40   42 1    
    84   42   43 1    
    85   42   44 1    
    86   42  165 1    
    87   43  166 1    
    88   43  167 1    
    89   43  168 1    
    90   44   45 am   BACKBONE|DICT|INTERRES
    91   44  169 1    
    92   45   46 2    
    93   45   47 1    
    94   47   48 1    
    95   47   49 1    
    96   47  170 1    
    97   48  171 1    
    98   48  172 1    
    99   48  173 1    
   100   49   50 am   BACKBONE|DICT|INTERRES
   101   49  174 1    
   102   50   51 2    
   103   50   52 1    
   104   52   53 1    
   105   52   54 1    
   106   52  175 1    
   107   53  176 1    
   108   53  177 1    
   109   53  178 1    
   110   54   55 am   BACKBONE|DICT|INTERRES
   111   54  179 1    
   112   55   56 2    
   113   55   57 1    
   114   57   58 1    
   115   57   59 1    
   116   57  180 1    
   117   58  181 1    
   118   58  182 1    
   119   58  183 1    
   120   59   60 am   BACKBONE|DICT|INTERRES
   121   59  184 1    
   122   60   61 2    
   123   60   62 1    
   124   62   63 1    
   125   62   64 1    
   126   62  185 1    
   127   63  186 1    
   128   63  187 1    
   129   63  188 1    
   130   64   65 am   BACKBONE|DICT|INTERRES
   131   64  189 1    
   132   65   66 2    
   133   67   68 2    
   134   67   69 am   BACKBONE|DICT|INTERRES
   135   69   70 1    
   136   69  190 1    
   137   70   71 1    
   138   70   72 1    
   139   70  191 1    
   140   71  192 1    
   141   71  193 1    
   142   71  194 1    
   143   72   73 2    
   144   72   74 am   BACKBONE|DICT|INTERRES
   145   74   75 1    
   146   74  195 1    
   147   75   76 1    
   148   75   77 1    
   149   75  196 1    
   150   76  197 1    
   151   76  198 1    
   152   76  199 1    
   153   77   78 2    
   154   77   79 am   BACKBONE|DICT|INTERRES
   155   79   80 1    
   156   79  200 1    
   157   80   81 1    
   158   80   82 1    
   159   80  201 1    
   160   81  202 1    
   161   81  203 1    
   162   81  204 1    
   163   82   83 2    
   164   82   84 am   BACKBONE|DICT|INTERRES
   165   84   85 1    
   166   84  205 1    
   167   85   86 1    
   168   85   87 1    
   169   85  206 1    
   170   86  207 1    
   171   86  208 1    
   172   86  209 1    
   173   87   88 2    
   174   87   89 am   BACKBONE|DICT|INTERRES
   175   89   90 1    
   176   89  210 1    
   177   90   91 1    
   178   90   92 1    
   179   90  211 1    
   180   91  212 1    
   181   91  213 1    
   182   91  214 1    
   183   92   93 2    
   184   92   94 am   BACKBONE|DICT|INTERRES
   185   94   95 1    
   186   94  215 1    
   187   95   96 1    
   188   95   97 1    
   189   95  216 1    
   190   96  217 1    
   191   96  218 1    
   192   96  219 1    
   193   97   98 2    
   194   97   99 am   BACKBONE|DICT|INTERRES
   195   99  100 1    
   196   99  220 1    
   197  100  101 1    
   198  100  102 1    
   199  100  221 1    
   200  101  222 1    
   201  101  223 1    
   202  101  224 1    
   203  102  103 2    
   204  102  104 am   BACKBONE|DICT|INTERRES
   205  104  105 1    
   206  104  225 1    
   207  105  106 1    
   208  105  107 1    
   209  105  226 1    
   210  106  227 1    
   211  106  228 1    
   212  106  229 1    
   213  107  108 2    
   214  107  109 am   BACKBONE|DICT|INTERRES
   215  109  110 1    
   216  109  230 1    
   217  110  111 1    
   218  110  112 1    
   219  110  231 1    
   220  111  232 1    
   221  111  233 1    
   222  111  234 1    
   223  112  113 2    
   224  112  114 am   BACKBONE|DICT|INTERRES
   225  114  115 1    
   226  114  235 1    
   227  115  116 1    
   228  115  117 1    
   229  115  236 1    
   230  116  237 1    
   231  116  238 1    
   232  116  239 1    
   233  117  118 2    
   234  117  119 am   BACKBONE|DICT|INTERRES
   235  119  120 1    
   236  119  240 1    
   237  120  121 1    
   238  120  124 1    
   239  120  241 1    
   240  121  122 am   BACKBONE|DICT|INTERRES
   241  121  123 2    
   242  122  242 1    
   243  122  243 1    
   244  124  125 1    
   245  124  244 1    
   246  124  245 1    
   247  125  126 1    
   248  126  246 1    
   249  126  247 1    
@<TRIPOS>SUBSTRUCTURE
     1 UNK         1 GROUP             0       ****    0 ROOT    
