@<TRIPOS>MOLECULE
3R540
247   249    1
SMALL
USER_CHARGES


@<TRIPOS>ATOM
      1 CA          3.4089   -9.5011  -45.8146 C.3       0 UNK        -0.1800 
      2 C           3.2117  -10.9467  -45.3845 C.2       0 UNK         0.5000 
      3 O           3.2587  -11.2437  -44.1917 O.2       0 UNK        -0.5000 
      4 N           2.9692  -11.8489  -46.3429 N.am      1 UNK        -0.5000 
      5 CA          2.7567  -13.2845  -46.1156 C.3       1 UNK         0.1400 
      6 C6          2.7601  -14.0853  -47.4422 C.3       23 UNK        -0.0398 
      7 S7          1.5125  -13.5077  -48.6523 S.3       23 UNK        -0.2404 
      8 C8          0.4239  -14.9583  -48.7854 C.3       23 UNK        -0.0205 
      9 C9          0.7747  -15.8068  -49.9965 C.ar      23 UNK        -0.0193 
     10 C10        -0.0232  -15.7462  -51.1418 C.ar      23 UNK        -0.1150 
     11 C11         0.2874  -16.5121  -52.2681 C.ar      23 UNK        -0.0193 
     12 C12         1.4144  -17.3378  -52.2446 C.ar      23 UNK        -0.1150 
     13 C13         2.2101  -17.4267  -51.0980 C.ar      23 UNK        -0.0193 
     14 C14         1.8876  -16.6531  -49.9776 C.ar      23 UNK        -0.1150 
     15 C15         3.4125  -18.3652  -51.0805 C.3       23 UNK        -0.0205 
     16 S16         3.3805  -19.5594  -49.7001 S.3       23 UNK        -0.2404 
     17 C17         1.6645  -20.1758  -49.7729 C.3       23 UNK        -0.0398 
     18 CA          1.5095  -21.6343  -49.2788 C.3       11 UNK         0.1400 
     19 N           1.8894  -21.7736  -47.8685 N.am      11 UNK        -0.5000 
     20 C           2.2369  -22.9243  -47.2790 C.2       10 UNK         0.5000 
     21 O           2.3287  -23.9977  -47.8752 O.2       10 UNK        -0.5000 
     22 CA          2.4777  -22.8765  -45.7586 C.3       10 UNK         0.1400 
     23 CB          3.9128  -22.4230  -45.4517 C.3       10 UNK        -0.1800 
     24 N           1.5245  -22.0181  -45.0475 N.am      10 UNK        -0.5000 
     25 C           0.2013  -22.2297  -44.9854 C.2       9 UNK         0.5000 
     26 O          -0.3640  -23.1772  -45.5306 O.2       9 UNK        -0.5000 
     27 CA         -0.6434  -21.1878  -44.2300 C.3       9 UNK         0.1400 
     28 CB         -0.5229  -21.3681  -42.7099 C.3       9 UNK        -0.1800 
     29 N          -0.2921  -19.8171  -44.5956 N.am      9 UNK        -0.5000 
     30 C          -0.4997  -19.2792  -45.8042 C.2       8 UNK         0.5000 
     31 O          -1.0991  -19.8529  -46.7133 O.2       8 UNK        -0.5000 
     32 CA          0.0786  -17.8757  -46.0566 C.3       8 UNK         0.1400 
     33 CB         -0.9148  -16.7914  -45.6157 C.3       8 UNK        -0.1800 
     34 N           1.3735  -17.6616  -45.4063 N.am      8 UNK        -0.5000 
     35 C           2.4776  -18.3680  -45.6924 C.2       7 UNK         0.5000 
     36 O           2.5169  -19.2489  -46.5488 O.2       7 UNK        -0.5000 
     37 CA          3.7247  -18.0918  -44.8359 C.3       7 UNK         0.1400 
     38 CB          4.3945  -16.7700  -45.2353 C.3       7 UNK        -0.1800 
     39 N           3.4109  -18.0706  -43.4085 N.am      7 UNK        -0.5000 
     40 C           3.0087  -19.1395  -42.7060 C.2       6 UNK         0.5000 
     41 O           2.9148  -20.2722  -43.1760 O.2       6 UNK        -0.5000 
     42 CA          2.5915  -18.8886  -41.2461 C.3       6 UNK         0.1400 
     43 CB          3.8109  -18.9521  -40.3152 C.3       6 UNK        -0.1800 
     44 N           1.9131  -17.6052  -41.0661 N.am      6 UNK        -0.5000 
     45 C           0.7585  -17.2504  -41.6424 C.2       5 UNK         0.5000 
     46 O           0.1131  -17.9942  -42.3800 O.2       5 UNK        -0.5000 
     47 CA          0.2608  -15.8157  -41.4000 C.3       5 UNK         0.1400 
     48 CB         -0.5236  -15.7070  -40.0802 C.3       5 UNK        -0.1800 
     49 N           1.3073  -14.7910  -41.4934 N.am      5 UNK        -0.5000 
     50 C           2.3484  -14.5442  -40.6841 C.2       4 UNK         0.5000 
     51 O           2.6428  -15.2305  -39.7050 O.2       4 UNK        -0.5000 
     52 CA          3.2101  -13.3181  -41.0409 C.3       4 UNK         0.1400 
     53 CB          4.3256  -13.7174  -42.0193 C.3       4 UNK        -0.1800 
     54 N           2.4193  -12.2355  -41.6286 N.am      4 UNK        -0.5000 
     55 C           1.4801  -11.5313  -40.9792 C.2       3 UNK         0.5000 
     56 O           1.2639  -11.6247  -39.7704 O.2       3 UNK        -0.5000 
     57 CA          0.6032  -10.6041  -41.8388 C.3       3 UNK         0.1400 
     58 CB          1.2950   -9.2542  -42.0850 C.3       3 UNK        -0.1800 
     59 N           0.2606  -11.2289  -43.1185 N.am      3 UNK        -0.5000 
     60 C          -0.6447  -12.2083  -43.2630 C.2       2 UNK         0.5000 
     61 O          -1.3390  -12.6374  -42.3421 O.2       2 UNK        -0.5000 
     62 CA         -0.7881  -12.8320  -44.6633 C.3       2 UNK         0.1400 
     63 CB         -1.9049  -12.1376  -45.4559 C.3       2 UNK        -0.1800 
     64 N           0.4521  -12.7728  -45.4362 N.am      2 UNK        -0.5000 
     65 C           1.5046  -13.5831  -45.2591 C.2       1 UNK         0.5000 
     66 O           1.5269  -14.5056  -44.4424 O.2       1 UNK        -0.5000 
     67 C           0.0694  -22.1226  -49.5606 C.2       11 UNK         0.5000 
     68 O          -0.3310  -22.1370  -50.7236 O.2       11 UNK        -0.5000 
     69 N          -0.7076  -22.4457  -48.5136 N.am      12 UNK        -0.5000 
     70 CA         -2.1326  -22.8056  -48.5326 C.3       12 UNK         0.1400 
     71 CB         -2.3567  -24.1518  -49.2521 C.3       12 UNK        -0.1800 
     72 C          -3.0575  -21.6835  -49.0574 C.2       12 UNK         0.5000 
     73 O          -4.2209  -21.9374  -49.3690 O.2       12 UNK        -0.5000 
     74 N          -2.5425  -20.4497  -49.1067 N.am      13 UNK        -0.5000 
     75 CA         -3.2549  -19.2386  -49.5034 C.3       13 UNK         0.1400 
     76 CB         -2.2272  -18.1314  -49.7809 C.3       13 UNK        -0.1800 
     77 C          -4.2656  -18.7931  -48.4324 C.2       13 UNK         0.5000 
     78 O          -5.3100  -18.2409  -48.7768 O.2       13 UNK        -0.5000 
     79 N          -3.9512  -19.0718  -47.1577 N.am      14 UNK        -0.5000 
     80 CA         -4.8493  -18.8632  -46.0201 C.3       14 UNK         0.1400 
     81 CB         -4.0520  -18.9640  -44.7105 C.3       14 UNK        -0.1800 
     82 C          -6.0237  -19.8605  -46.0058 C.2       14 UNK         0.5000 
     83 O          -7.1119  -19.5073  -45.5504 O.2       14 UNK        -0.5000 
     84 N          -5.7818  -21.0829  -46.5010 N.am      15 UNK        -0.5000 
     85 CA         -6.7930  -22.1278  -46.6521 C.3       15 UNK         0.1400 
     86 CB         -6.1078  -23.5010  -46.7490 C.3       15 UNK        -0.1800 
     87 C          -7.6887  -21.8624  -47.8739 C.2       15 UNK         0.5000 
     88 O          -8.9134  -21.9012  -47.7453 O.2       15 UNK        -0.5000 
     89 N          -7.0504  -21.5683  -49.0176 N.am      16 UNK        -0.5000 
     90 CA         -7.6468  -21.2837  -50.3256 C.3       16 UNK         0.1400 
     91 CB         -8.4717  -19.9789  -50.2697 C.3       16 UNK        -0.1800 
     92 C          -8.4392  -22.4791  -50.9044 C.2       16 UNK         0.5000 
     93 O          -8.3031  -23.6065  -50.4215 O.2       16 UNK        -0.5000 
     94 N          -9.2282  -22.2119  -51.9559 N.am      17 UNK        -0.5000 
     95 CA        -10.1420  -23.1018  -52.6904 C.3       17 UNK         0.1400 
     96 CB        -11.2511  -23.6438  -51.7685 C.3       17 UNK        -0.1800 
     97 C          -9.4683  -24.2459  -53.4765 C.2       17 UNK         0.5000 
     98 O          -9.8190  -24.4682  -54.6365 O.2       17 UNK        -0.5000 
     99 N          -8.5269  -24.9517  -52.8435 N.am      18 UNK        -0.5000 
    100 CA        -7.7268  -26.0235  -53.4286 C.3       18 UNK         0.1400 
    101 CB        -6.9976  -26.7638  -52.2961 C.3       18 UNK        -0.1800 
    102 C         -6.7086  -25.4843  -54.4476 C.2       18 UNK         0.5000 
    103 O         -6.2177  -24.3638  -54.2963 O.2       18 UNK        -0.5000 
    104 N         -6.3513  -26.3222  -55.4295 N.am      19 UNK        -0.5000 
    105 CA        -5.3591  -26.0228  -56.4701 C.3       19 UNK         0.1400 
    106 CB        -5.3922  -27.1408  -57.5238 C.3       19 UNK        -0.1800 
    107 C         -3.9241  -25.8268  -55.9347 C.2       19 UNK         0.5000 
    108 O         -3.0946  -25.2334  -56.6244 O.2       19 UNK        -0.5000 
    109 N         -3.6620  -26.3180  -54.7159 N.am      20 UNK        -0.5000 
    110 CA        -2.4084  -26.1462  -53.9841 C.3       20 UNK         0.1400 
    111 CB        -2.3797  -27.1492  -52.8199 C.3       20 UNK        -0.1800 
    112 C         -2.1868  -24.7138  -53.4570 C.2       20 UNK         0.5000 
    113 O         -1.0462  -24.3726  -53.1406 O.2       20 UNK        -0.5000 
    114 N         -3.2567  -23.9085  -53.3528 N.am      21 UNK        -0.5000 
    115 CA        -3.2151  -22.5299  -52.8646 C.3       21 UNK         0.1400 
    116 CB        -4.6422  -21.9751  -52.7567 C.3       21 UNK        -0.1800 
    117 C         -2.3325  -21.6336  -53.7506 C.2       21 UNK         0.5000 
    118 O         -2.5865  -21.5229  -54.9518 O.2       21 UNK        -0.5000 
    119 N         -1.3044  -21.0459  -53.1311 N.am      22 UNK        -0.5000 
    120 CA        -0.2165  -20.2780  -53.7563 C.3       22 UNK         0.1400 
    121 C          0.8273  -21.1546  -54.5141 C.2       22 UNK         0.5000 
    122 N          0.8215  -22.4761  -54.3814 N.am      22 UNK        -0.7600 
    123 O          1.6894  -20.6267  -55.2112 O.2       22 UNK        -0.5000 
    124 C124       -0.6885  -19.0541  -54.5941 C.3       23 UNK        -0.0398 
    125 S125       -1.7084  -17.8662  -53.6502 S.3       23 UNK        -0.2404 
    126 C126       -0.5912  -16.4320  -53.5081 C.3       23 UNK        -0.0205 
    127 H127        4.3949   -9.1516  -45.5086 H         1 UNK         0.0600 
    128 H128        2.6595   -8.8648  -45.3440 H         1 UNK         0.0600 
    129 H129        3.3258   -9.3848  -46.8954 H         1 UNK         0.0600 
    130 H130        2.9255  -11.5514  -47.3079 H         1 UNK         0.3000 
    131 H131        3.6121  -13.6287  -45.5314 H         1 UNK         0.0600 
    132 H132        2.6381  -15.1509  -47.2433 H         1 UNK         0.0800 
    133 H133        3.7393  -13.9941  -47.9141 H         1 UNK         0.0800 
    134 H134        0.4803  -15.5612  -47.8822 H         1 UNK         0.0800 
    135 H135       -0.6089  -14.6126  -48.8509 H         1 UNK         0.0800 
    136 H136       -0.8892  -15.0995  -51.1572 H         1 UNK         0.1150 
    137 H137        1.6669  -17.9193  -53.1194 H         1 UNK         0.1150 
    138 H138        2.5026  -16.7158  -49.0914 H         1 UNK         0.1150 
    139 H139        3.4783  -18.9238  -52.0155 H         1 UNK         0.0800 
    140 H140        4.3247  -17.7712  -51.0126 H         1 UNK         0.0800 
    141 H141        1.3280  -20.0918  -50.8065 H         1 UNK         0.0800 
    142 H142        1.0338  -19.5027  -49.1886 H         1 UNK         0.0800 
    143 H143        2.1729  -22.2624  -49.8772 H         1 UNK         0.0600 
    144 H144        1.9244  -20.9152  -47.3236 H         1 UNK         0.3000 
    145 H145        2.3555  -23.8914  -45.3750 H         1 UNK         0.0600 
    146 H146        4.1249  -22.4827  -44.3841 H         1 UNK         0.0600 
    147 H147        4.6408  -23.0539  -45.9631 H         1 UNK         0.0600 
    148 H148        4.0870  -21.3950  -45.7706 H         1 UNK         0.0600 
    149 H149        1.9210  -21.2312  -44.5411 H         1 UNK         0.3000 
    150 H150       -1.6869  -21.3524  -44.5040 H         1 UNK         0.0600 
    151 H151       -0.8246  -22.3727  -42.4114 H         1 UNK         0.0600 
    152 H152       -1.1632  -20.6635  -42.1787 H         1 UNK         0.0600 
    153 H153        0.4991  -21.2163  -42.3638 H         1 UNK         0.0600 
    154 H154        0.1305  -19.2419  -43.8729 H         1 UNK         0.3000 
    155 H155        0.2323  -17.7829  -47.1333 H         1 UNK         0.0600 
    156 H156       -0.5349  -15.7946  -45.8293 H         1 UNK         0.0600 
    157 H157       -1.1236  -16.8441  -44.5469 H         1 UNK         0.0600 
    158 H158       -1.8628  -16.8932  -46.1453 H         1 UNK         0.0600 
    159 H159        1.4102  -16.9588  -44.6808 H         1 UNK         0.3000 
    160 H160        4.4364  -18.9001  -45.0171 H         1 UNK         0.0600 
    161 H161        3.7675  -15.9155  -44.9883 H         1 UNK         0.0600 
    162 H162        4.5954  -16.7387  -46.3071 H         1 UNK         0.0600 
    163 H163        5.3476  -16.6422  -44.7218 H         1 UNK         0.0600 
    164 H164        3.4436  -17.1761  -42.9435 H         1 UNK         0.3000 
    165 H165        1.8958  -19.6786  -40.9572 H         1 UNK         0.0600 
    166 H166        3.5144  -18.8525  -39.2709 H         1 UNK         0.0600 
    167 H167        4.3301  -19.9061  -40.4160 H         1 UNK         0.0600 
    168 H168        4.5286  -18.1610  -40.5365 H         1 UNK         0.0600 
    169 H169        2.3614  -16.9190  -40.4645 H         1 UNK         0.3000 
    170 H170       -0.4346  -15.5896  -42.2100 H         1 UNK         0.0600 
    171 H171       -1.3654  -16.4004  -40.0715 H         1 UNK         0.0600 
    172 H172        0.0967  -15.9375  -39.2139 H         1 UNK         0.0600 
    173 H173       -0.9274  -14.7030  -39.9472 H         1 UNK         0.0600 
    174 H174        1.2450  -14.2191  -42.3265 H         1 UNK         0.3000 
    175 H175        3.6690  -12.9485  -40.1217 H         1 UNK         0.0600 
    176 H176        3.9218  -14.0863  -42.9627 H         1 UNK         0.0600 
    177 H177        4.9740  -12.8702  -42.2437 H         1 UNK         0.0600 
    178 H178        4.9522  -14.5050  -41.5988 H         1 UNK         0.0600 
    179 H179        2.5935  -12.0232  -42.6078 H         1 UNK         0.3000 
    180 H180       -0.3206  -10.4116  -41.2889 H         1 UNK         0.0600 
    181 H181        0.6625   -8.5882  -42.6720 H         1 UNK         0.0600 
    182 H182        2.2416   -9.3694  -42.6126 H         1 UNK         0.0600 
    183 H183        1.5081   -8.7511  -41.1410 H         1 UNK         0.0600 
    184 H184        0.8185  -10.9623  -43.9158 H         1 UNK         0.3000 
    185 H185       -1.0691  -13.8780  -44.5274 H         1 UNK         0.0600 
    186 H186       -1.6797  -11.0852  -45.6332 H         1 UNK         0.0600 
    187 H187       -2.0566  -12.6168  -46.4234 H         1 UNK         0.0600 
    188 H188       -2.8529  -12.1851  -44.9183 H         1 UNK         0.0600 
    189 H189        0.5180  -12.0519  -46.1402 H         1 UNK         0.3000 
    190 H190       -0.2953  -22.4019  -47.5897 H         1 UNK         0.3000 
    191 H191       -2.4163  -22.9462  -47.4889 H         1 UNK         0.0600 
    192 H192       -3.4039  -24.4539  -49.2122 H         1 UNK         0.0600 
    193 H193       -1.7755  -24.9445  -48.7814 H         1 UNK         0.0600 
    194 H194       -2.0686  -24.1119  -50.3016 H         1 UNK         0.0600 
    195 H195       -1.6221  -20.3182  -48.7072 H         1 UNK         0.3000 
    196 H196       -3.8025  -19.4444  -50.4254 H         1 UNK         0.0600 
    197 H197       -1.5157  -18.4384  -50.5481 H         1 UNK         0.0600 
    198 H198       -2.7164  -17.2244  -50.1378 H         1 UNK         0.0600 
    199 H199       -1.6604  -17.8699  -48.8868 H         1 UNK         0.0600 
    200 H200       -3.0488  -19.4952  -46.9675 H         1 UNK         0.3000 
    201 H201       -5.2665  -17.8564  -46.0899 H         1 UNK         0.0600 
    202 H202       -3.5862  -19.9426  -44.5975 H         1 UNK         0.0600 
    203 H203       -4.6999  -18.8093  -43.8468 H         1 UNK         0.0600 
    204 H204       -3.2687  -18.2097  -44.6610 H         1 UNK         0.0600 
    205 H205       -4.8687  -21.2737  -46.8825 H         1 UNK         0.3000 
    206 H206       -7.4272  -22.1335  -45.7627 H         1 UNK         0.0600 
    207 H207       -5.5125  -23.7080  -45.8595 H         1 UNK         0.0600 
    208 H208       -6.8481  -24.2970  -46.8374 H         1 UNK         0.0600 
    209 H209       -5.4505  -23.5713  -47.6157 H         1 UNK         0.0600 
    210 H210       -6.0355  -21.6344  -49.0250 H         1 UNK         0.3000 
    211 H211       -6.8079  -21.1128  -50.9995 H         1 UNK         0.0600 
    212 H212       -8.7220  -19.6200  -51.2681 H         1 UNK         0.0600 
    213 H213       -7.9109  -19.1825  -49.7795 H         1 UNK         0.0600 
    214 H214       -9.4061  -20.1122  -49.7234 H         1 UNK         0.0600 
    215 H215       -9.2239  -21.2603  -52.2952 H         1 UNK         0.3000 
    216 H216      -10.6263  -22.4659  -53.4333 H         1 UNK         0.0600 
    217 H217      -11.9815  -24.2212  -52.3367 H         1 UNK         0.0600 
    218 H218      -10.8537  -24.2978  -50.9919 H         1 UNK         0.0600 
    219 H219      -11.7887  -22.8315  -51.2794 H         1 UNK         0.0600 
    220 H220       -8.2944  -24.6636  -51.8957 H         1 UNK         0.3000 
    221 H221       -8.3994  -26.7204  -53.9330 H         1 UNK         0.0600 
    222 H222       -7.7046  -27.1716  -51.5734 H         1 UNK         0.0600 
    223 H223       -6.3150  -26.1033  -51.7590 H         1 UNK         0.0600 
    224 H224       -6.4124  -27.5991  -52.6826 H         1 UNK         0.0600 
    225 H225       -6.7864  -27.2326  -55.4782 H         1 UNK         0.3000 
    226 H226       -5.6531  -25.0885  -56.9528 H         1 UNK         0.0600 
    227 H227       -5.1257  -28.1069  -57.0934 H         1 UNK         0.0600 
    228 H228       -6.3819  -27.2326  -57.9716 H         1 UNK         0.0600 
    229 H229       -4.6896  -26.9371  -58.3331 H         1 UNK         0.0600 
    230 H230       -4.4030  -26.8033  -54.2334 H         1 UNK         0.3000 
    231 H231       -1.5818  -26.3788  -54.6587 H         1 UNK         0.0600 
    232 H232       -3.1938  -26.9716  -52.1158 H         1 UNK         0.0600 
    233 H233       -1.4441  -27.0759  -52.2636 H         1 UNK         0.0600 
    234 H234       -2.4624  -28.1750  -53.1793 H         1 UNK         0.0600 
    235 H235       -4.1565  -24.2377  -53.6812 H         1 UNK         0.3000 
    236 H236       -2.7941  -22.5529  -51.8598 H         1 UNK         0.0600 
    237 H237       -4.6364  -20.9722  -52.3287 H         1 UNK         0.0600 
    238 H238       -5.1272  -21.9155  -53.7317 H         1 UNK         0.0600 
    239 H239       -5.2570  -22.6039  -52.1124 H         1 UNK         0.0600 
    240 H240       -1.1246  -21.3081  -52.1640 H         1 UNK         0.3000 
    241 H241        0.3439  -19.8810  -52.9125 H         1 UNK         0.0600 
    242 H242        1.5147  -23.0202  -54.8689 H         1 UNK         0.3800 
    243 H243        0.1300  -22.9514  -53.8082 H         1 UNK         0.3800 
    244 H244       -1.2617  -19.3805  -55.4619 H         1 UNK         0.0800 
    245 H245        0.1711  -18.5248  -55.0060 H         1 UNK         0.0800 
    246 H246       -1.2028  -15.5293  -53.4704 H         1 UNK         0.0800 
    247 H247        0.0262  -16.3304  -54.4013 H         1 UNK         0.0800 
@<TRIPOS>BOND
     1    1    2 1    
     2    1  127 1    
     3    1  128 1    
     4    1  129 1    
     5    2    3 2    
     6    2    4 am   BACKBONE|DICT|INTERRES
     7    4    5 1    
     8    4  130 1    
     9    5    6 1    
    10    5   65 1    
    11    5  131 1    
    12    6    7 1    
    13    6  132 1    
    14    6  133 1    
    15    7    8 1    
    16    8    9 1    
    17    8  134 1    
    18    8  135 1    
    19    9   10 ar   
    20    9   14 ar   
    21   10   11 ar   
    22   10  136 1    
    23   11   12 ar   
    24   11  126 1    
    25   12   13 ar   
    26   12  137 1    
    27   13   14 ar   
    28   13   15 1    
    29   14  138 1    
    30   15   16 1    
    31   15  139 1    
    32   15  140 1    
    33   16   17 1    
    34   17   18 1    
    35   17  141 1    
    36   17  142 1    
    37   18   19 1    
    38   18   67 1    
    39   18  143 1    
    40   19   20 am   BACKBONE|DICT|INTERRES
    41   19  144 1    
    42   20   21 2    
    43   20   22 1    
    44   22   23 1    
    45   22   24 1    
    46   22  145 1    
    47   23  146 1    
    48   23  147 1    
    49   23  148 1    
    50   24   25 am   BACKBONE|DICT|INTERRES
    51   24  149 1    
    52   25   26 2    
    53   25   27 1    
    54   27   28 1    
    55   27   29 1    
    56   27  150 1    
    57   28  151 1    
    58   28  152 1    
    59   28  153 1    
    60   29   30 am   BACKBONE|DICT|INTERRES
    61   29  154 1    
    62   30   31 2    
    63   30   32 1    
    64   32   33 1    
    65   32   34 1    
    66   32  155 1    
    67   33  156 1    
    68   33  157 1    
    69   33  158 1    
    70   34   35 am   BACKBONE|DICT|INTERRES
    71   34  159 1    
    72   35   36 2    
    73   35   37 1    
    74   37   38 1    
    75   37   39 1    
    76   37  160 1    
    77   38  161 1    
    78   38  162 1    
    79   38  163 1    
    80   39   40 am   BACKBONE|DICT|INTERRES
    81   39  164 1    
    82   40   41 2    
    83   40   42 1    
    84   42   43 1    
    85   42   44 1    
    86   42  165 1    
    87   43  166 1    
    88   43  167 1    
    89   43  168 1    
    90   44   45 am   BACKBONE|DICT|INTERRES
    91   44  169 1    
    92   45   46 2    
    93   45   47 1    
    94   47   48 1    
    95   47   49 1    
    96   47  170 1    
    97   48  171 1    
    98   48  172 1    
    99   48  173 1    
   100   49   50 am   BACKBONE|DICT|INTERRES
   101   49  174 1    
   102   50   51 2    
   103   50   52 1    
   104   52   53 1    
   105   52   54 1    
   106   52  175 1    
   107   53  176 1    
   108   53  177 1    
   109   53  178 1    
   110   54   55 am   BACKBONE|DICT|INTERRES
   111   54  179 1    
   112   55   56 2    
   113   55   57 1    
   114   57   58 1    
   115   57   59 1    
   116   57  180 1    
   117   58  181 1    
   118   58  182 1    
   119   58  183 1    
   120   59   60 am   BACKBONE|DICT|INTERRES
   121   59  184 1    
   122   60   61 2    
   123   60   62 1    
   124   62   63 1    
   125   62   64 1    
   126   62  185 1    
   127   63  186 1    
   128   63  187 1    
   129   63  188 1    
   130   64   65 am   BACKBONE|DICT|INTERRES
   131   64  189 1    
   132   65   66 2    
   133   67   68 2    
   134   67   69 am   BACKBONE|DICT|INTERRES
   135   69   70 1    
   136   69  190 1    
   137   70   71 1    
   138   70   72 1    
   139   70  191 1    
   140   71  192 1    
   141   71  193 1    
   142   71  194 1    
   143   72   73 2    
   144   72   74 am   BACKBONE|DICT|INTERRES
   145   74   75 1    
   146   74  195 1    
   147   75   76 1    
   148   75   77 1    
   149   75  196 1    
   150   76  197 1    
   151   76  198 1    
   152   76  199 1    
   153   77   78 2    
   154   77   79 am   BACKBONE|DICT|INTERRES
   155   79   80 1    
   156   79  200 1    
   157   80   81 1    
   158   80   82 1    
   159   80  201 1    
   160   81  202 1    
   161   81  203 1    
   162   81  204 1    
   163   82   83 2    
   164   82   84 am   BACKBONE|DICT|INTERRES
   165   84   85 1    
   166   84  205 1    
   167   85   86 1    
   168   85   87 1    
   169   85  206 1    
   170   86  207 1    
   171   86  208 1    
   172   86  209 1    
   173   87   88 2    
   174   87   89 am   BACKBONE|DICT|INTERRES
   175   89   90 1    
   176   89  210 1    
   177   90   91 1    
   178   90   92 1    
   179   90  211 1    
   180   91  212 1    
   181   91  213 1    
   182   91  214 1    
   183   92   93 2    
   184   92   94 am   BACKBONE|DICT|INTERRES
   185   94   95 1    
   186   94  215 1    
   187   95   96 1    
   188   95   97 1    
   189   95  216 1    
   190   96  217 1    
   191   96  218 1    
   192   96  219 1    
   193   97   98 2    
   194   97   99 am   BACKBONE|DICT|INTERRES
   195   99  100 1    
   196   99  220 1    
   197  100  101 1    
   198  100  102 1    
   199  100  221 1    
   200  101  222 1    
   201  101  223 1    
   202  101  224 1    
   203  102  103 2    
   204  102  104 am   BACKBONE|DICT|INTERRES
   205  104  105 1    
   206  104  225 1    
   207  105  106 1    
   208  105  107 1    
   209  105  226 1    
   210  106  227 1    
   211  106  228 1    
   212  106  229 1    
   213  107  108 2    
   214  107  109 am   BACKBONE|DICT|INTERRES
   215  109  110 1    
   216  109  230 1    
   217  110  111 1    
   218  110  112 1    
   219  110  231 1    
   220  111  232 1    
   221  111  233 1    
   222  111  234 1    
   223  112  113 2    
   224  112  114 am   BACKBONE|DICT|INTERRES
   225  114  115 1    
   226  114  235 1    
   227  115  116 1    
   228  115  117 1    
   229  115  236 1    
   230  116  237 1    
   231  116  238 1    
   232  116  239 1    
   233  117  118 2    
   234  117  119 am   BACKBONE|DICT|INTERRES
   235  119  120 1    
   236  119  240 1    
   237  120  121 1    
   238  120  124 1    
   239  120  241 1    
   240  121  122 am   BACKBONE|DICT|INTERRES
   241  121  123 2    
   242  122  242 1    
   243  122  243 1    
   244  124  125 1    
   245  124  244 1    
   246  124  245 1    
   247  125  126 1    
   248  126  246 1    
   249  126  247 1    
@<TRIPOS>SUBSTRUCTURE
     1 UNK         1 GROUP             0       ****    0 ROOT    
