@<TRIPOS>MOLECULE
3R540
247   249    1
SMALL
USER_CHARGES


@<TRIPOS>ATOM
      1 CA          2.6414   -9.3435  -48.6518 C.3       0 UNK        -0.1800 
      2 C           2.7729  -10.6374  -47.8630 C.2       0 UNK         0.5000 
      3 O           3.8762  -10.9939  -47.4494 O.2       0 UNK        -0.5000 
      4 N           1.6530  -11.3358  -47.6322 N.am      1 UNK        -0.5000 
      5 CA          1.5948  -12.6282  -46.9329 C.3       1 UNK         0.1400 
      6 C6          0.1995  -13.2925  -47.0254 C.3       23 UNK        -0.0398 
      7 S7         -0.2658  -13.6212  -48.7597 S.3       23 UNK        -0.2404 
      8 C8         -2.0527  -13.2798  -48.7492 C.3       23 UNK        -0.0205 
      9 C9         -2.8566  -14.5091  -48.3541 C.ar      23 UNK        -0.0193 
     10 C10        -3.2957  -15.3991  -49.3382 C.ar      23 UNK        -0.1150 
     11 C11        -4.0536  -16.5235  -48.9973 C.ar      23 UNK        -0.0193 
     12 C12        -4.3905  -16.7407  -47.6584 C.ar      23 UNK        -0.1150 
     13 C13        -3.9567  -15.8598  -46.6629 C.ar      23 UNK        -0.0193 
     14 C14        -3.1834  -14.7486  -47.0163 C.ar      23 UNK        -0.1150 
     15 C15        -4.3503  -16.0859  -45.2108 C.3       23 UNK        -0.0205 
     16 S16        -3.3600  -17.3961  -44.4271 S.3       23 UNK        -0.2404 
     17 C17        -4.3037  -18.9064  -44.8198 C.3       23 UNK        -0.0398 
     18 CA         -3.5633  -19.8570  -45.7922 C.3       11 UNK         0.1400 
     19 N          -2.3044  -20.3618  -45.2284 N.am      11 UNK        -0.5000 
     20 C          -1.4193  -21.1229  -45.8907 C.2       10 UNK         0.5000 
     21 O          -1.5217  -21.3855  -47.0873 O.2       10 UNK        -0.5000 
     22 CA         -0.2774  -21.7816  -45.0871 C.3       10 UNK         0.1400 
     23 CB          1.0777  -21.1351  -45.4081 C.3       10 UNK        -0.1800 
     24 N          -0.4718  -21.7950  -43.6350 N.am      10 UNK        -0.5000 
     25 C          -1.4842  -22.3801  -42.9782 C.2       9 UNK         0.5000 
     26 O          -2.3937  -22.9945  -43.5375 O.2       9 UNK        -0.5000 
     27 CA         -1.5158  -22.1918  -41.4487 C.3       9 UNK         0.1400 
     28 CB         -0.7978  -23.3572  -40.7531 C.3       9 UNK        -0.1800 
     29 N          -0.9268  -20.9215  -41.0054 N.am      9 UNK        -0.5000 
     30 C          -1.3813  -19.7096  -41.3563 C.2       8 UNK         0.5000 
     31 O          -2.3691  -19.5519  -42.0753 O.2       8 UNK        -0.5000 
     32 CA         -0.6009  -18.4766  -40.8652 C.3       8 UNK         0.1400 
     33 CB          0.8398  -18.7859  -40.4022 C.3       8 UNK        -0.1800 
     34 N          -0.5755  -17.5000  -41.9476 N.am      8 UNK        -0.5000 
     35 C          -0.4099  -16.1809  -41.8352 C.2       7 UNK         0.5000 
     36 O          -0.2517  -15.6031  -40.7580 O.2       7 UNK        -0.5000 
     37 CA         -0.3803  -15.3894  -43.1624 C.3       7 UNK         0.1400 
     38 CB         -0.3856  -13.8669  -42.9430 C.3       7 UNK        -0.1800 
     39 N           0.7799  -15.7464  -43.9809 N.am      7 UNK        -0.5000 
     40 C           0.9472  -16.8931  -44.6584 C.2       6 UNK         0.5000 
     41 O           0.0919  -17.7749  -44.7252 O.2       6 UNK        -0.5000 
     42 CA          2.3015  -17.1069  -45.3594 C.3       6 UNK         0.1400 
     43 CB          2.1873  -16.8227  -46.8647 C.3       6 UNK        -0.1800 
     44 N           3.3459  -16.2569  -44.7933 N.am      6 UNK        -0.5000 
     45 C           4.0780  -16.5404  -43.7089 C.2       5 UNK         0.5000 
     46 O           4.0165  -17.6131  -43.1064 O.2       5 UNK        -0.5000 
     47 CA          5.0103  -15.4149  -43.2076 C.3       5 UNK         0.1400 
     48 CB          6.2172  -15.9384  -42.4019 C.3       5 UNK        -0.1800 
     49 N           5.4329  -14.5021  -44.2775 N.am      5 UNK        -0.5000 
     50 C           6.2056  -14.7816  -45.3389 C.2       4 UNK         0.5000 
     51 O           6.7498  -15.8700  -45.5271 O.2       4 UNK        -0.5000 
     52 CA          6.3760  -13.6680  -46.3933 C.3       4 UNK         0.1400 
     53 CB          5.5693  -14.0096  -47.6559 C.3       4 UNK        -0.1800 
     54 N           5.9650  -12.3435  -45.9222 N.am      4 UNK        -0.5000 
     55 C           6.6488  -11.5908  -45.0492 C.2       3 UNK         0.5000 
     56 O           7.7333  -11.9157  -44.5652 O.2       3 UNK        -0.5000 
     57 CA          5.9892  -10.2677  -44.6240 C.3       3 UNK         0.1400 
     58 CB          6.2994   -9.1515  -45.6334 C.3       3 UNK        -0.1800 
     59 N           4.5388  -10.4062  -44.4792 N.am      3 UNK        -0.5000 
     60 C           3.9343  -10.9793  -43.4289 C.2       2 UNK         0.5000 
     61 O           4.5378  -11.4316  -42.4562 O.2       2 UNK        -0.5000 
     62 CA          2.3991  -11.0909  -43.4848 C.3       2 UNK         0.1400 
     63 CB          1.7402   -9.8064  -42.9611 C.3       2 UNK        -0.1800 
     64 N           1.9015  -11.3749  -44.8315 N.am      2 UNK        -0.5000 
     65 C           2.0656  -12.5436  -45.4663 C.2       1 UNK         0.5000 
     66 O           2.5924  -13.5280  -44.9481 O.2       1 UNK        -0.5000 
     67 C          -4.5230  -20.9906  -46.2282 C.2       11 UNK         0.5000 
     68 O          -5.3787  -20.7455  -47.0789 O.2       11 UNK        -0.5000 
     69 N          -4.3750  -22.1897  -45.6437 N.am      12 UNK        -0.5000 
     70 CA         -5.1432  -23.3886  -45.9779 C.3       12 UNK         0.1400 
     71 CB         -6.0576  -23.7411  -44.7942 C.3       12 UNK        -0.1800 
     72 C          -4.2356  -24.5821  -46.3267 C.2       12 UNK         0.5000 
     73 O          -4.6073  -25.3850  -47.1821 O.2       12 UNK        -0.5000 
     74 N          -3.0822  -24.7018  -45.6535 N.am      13 UNK        -0.5000 
     75 CA         -2.1983  -25.8675  -45.7310 C.3       13 UNK         0.1400 
     76 CB         -1.3449  -25.9273  -44.4533 C.3       13 UNK        -0.1800 
     77 C          -1.2912  -25.9116  -46.9751 C.2       13 UNK         0.5000 
     78 O          -0.7568  -26.9804  -47.2765 O.2       13 UNK        -0.5000 
     79 N          -1.0954  -24.7743  -47.6579 N.am      14 UNK        -0.5000 
     80 CA         -0.2631  -24.6844  -48.8606 C.3       14 UNK         0.1400 
     81 CB         -0.0023  -23.2082  -49.1933 C.3       14 UNK        -0.1800 
     82 C          -0.9076  -25.3878  -50.0674 C.2       14 UNK         0.5000 
     83 O          -2.1349  -25.4572  -50.1574 O.2       14 UNK        -0.5000 
     84 N          -0.0713  -25.8365  -51.0127 N.am      15 UNK        -0.5000 
     85 CA         -0.5017  -26.4704  -52.2629 C.3       15 UNK         0.1400 
     86 CB          0.7282  -26.9649  -53.0385 C.3       15 UNK        -0.1800 
     87 C          -1.3617  -25.5418  -53.1400 C.2       15 UNK         0.5000 
     88 O          -2.3527  -25.9925  -53.7121 O.2       15 UNK        -0.5000 
     89 N          -1.0032  -24.2501  -53.1787 N.am      16 UNK        -0.5000 
     90 CA         -1.7649  -23.2045  -53.8630 C.3       16 UNK         0.1400 
     91 CB         -0.9325  -21.9156  -53.9235 C.3       16 UNK        -0.1800 
     92 C          -3.1240  -22.9260  -53.1990 C.2       16 UNK         0.5000 
     93 O          -4.0837  -22.6083  -53.8998 O.2       16 UNK        -0.5000 
     94 N          -3.1934  -23.0496  -51.8673 N.am      17 UNK        -0.5000 
     95 CA         -4.4286  -22.9008  -51.0998 C.3       17 UNK         0.1400 
     96 CB         -4.1027  -22.6684  -49.6189 C.3       17 UNK        -0.1800 
     97 C          -5.3609  -24.1067  -51.2955 C.2       17 UNK         0.5000 
     98 O          -6.5570  -23.9150  -51.5124 O.2       17 UNK        -0.5000 
     99 N          -4.7873  -25.3180  -51.2860 N.am      18 UNK        -0.5000 
    100 CA        -5.4792  -26.5771  -51.5684 C.3       18 UNK         0.1400 
    101 CB        -4.5294  -27.7508  -51.2867 C.3       18 UNK        -0.1800 
    102 C         -6.0320  -26.6499  -53.0061 C.2       18 UNK         0.5000 
    103 O         -7.1429  -27.1416  -53.2069 O.2       18 UNK        -0.5000 
    104 N         -5.2648  -26.1264  -53.9725 N.am      19 UNK        -0.5000 
    105 CA        -5.6513  -26.0040  -55.3805 C.3       19 UNK         0.1400 
    106 CB        -4.3813  -25.8062  -56.2238 C.3       19 UNK        -0.1800 
    107 C         -6.6485  -24.8593  -55.6566 C.2       19 UNK         0.5000 
    108 O         -7.1950  -24.8005  -56.7588 O.2       19 UNK        -0.5000 
    109 N         -6.8435  -23.9618  -54.6777 N.am      20 UNK        -0.5000 
    110 CA        -7.6383  -22.7287  -54.7391 C.3       20 UNK         0.1400 
    111 CB        -9.1353  -23.0386  -54.9469 C.3       20 UNK        -0.1800 
    112 C         -7.0840  -21.6970  -55.7482 C.2       20 UNK         0.5000 
    113 O         -7.8417  -20.8984  -56.3018 O.2       20 UNK        -0.5000 
    114 N         -5.7616  -21.7249  -55.9529 N.am      21 UNK        -0.5000 
    115 CA        -5.0020  -20.7673  -56.7540 C.3       21 UNK         0.1400 
    116 CB        -3.7588  -21.4742  -57.3168 C.3       21 UNK        -0.1800 
    117 C         -4.5924  -19.5336  -55.9270 C.2       21 UNK         0.5000 
    118 O         -4.3753  -18.4665  -56.5021 O.2       21 UNK        -0.5000 
    119 N         -4.4922  -19.7031  -54.6007 N.am      22 UNK        -0.5000 
    120 CA        -4.2362  -18.6469  -53.6113 C.3       22 UNK         0.1400 
    121 C         -5.3375  -17.5479  -53.6235 C.2       22 UNK         0.5000 
    122 N         -4.9620  -16.2768  -53.6673 N.am      22 UNK        -0.7600 
    123 O         -6.5285  -17.8427  -53.5550 O.2       22 UNK        -0.5000 
    124 C124       -4.0721  -19.2648  -52.1983 C.3       23 UNK        -0.0398 
    125 S125       -3.1631  -18.2020  -51.0288 S.3       23 UNK        -0.2404 
    126 C126       -4.5396  -17.4808  -50.0766 C.3       23 UNK        -0.0205 
    127 H127        1.6076   -9.1445  -48.9350 H         1 UNK         0.0600 
    128 H128        3.2398   -9.3984  -49.5611 H         1 UNK         0.0600 
    129 H129        3.0003   -8.5041  -48.0564 H         1 UNK         0.0600 
    130 H130        0.7766  -11.0027  -48.0083 H         1 UNK         0.3000 
    131 H131        2.3021  -13.2873  -47.4391 H         1 UNK         0.0600 
    132 H132        0.1785  -14.2438  -46.4912 H         1 UNK         0.0800 
    133 H133       -0.5515  -12.6600  -46.5496 H         1 UNK         0.0800 
    134 H134       -2.2817  -12.4412  -48.0903 H         1 UNK         0.0800 
    135 H135       -2.3476  -12.9591  -49.7496 H         1 UNK         0.0800 
    136 H136       -3.0457  -15.2189  -50.3745 H         1 UNK         0.1150 
    137 H137       -4.9971  -17.5939  -47.3913 H         1 UNK         0.1150 
    138 H138       -2.8482  -14.0612  -46.2525 H         1 UNK         0.1150 
    139 H139       -4.2069  -15.1670  -44.6404 H         1 UNK         0.0800 
    140 H140       -5.4145  -16.3140  -45.1399 H         1 UNK         0.0800 
    141 H141       -5.2761  -18.6202  -45.2235 H         1 UNK         0.0800 
    142 H142       -4.5148  -19.4201  -43.8802 H         1 UNK         0.0800 
    143 H143       -3.3079  -19.2965  -46.6937 H         1 UNK         0.0600 
    144 H144       -2.1500  -20.1654  -44.2473 H         1 UNK         0.3000 
    145 H145       -0.2327  -22.8215  -45.4158 H         1 UNK         0.0600 
    146 H146        1.8995  -21.7193  -44.9941 H         1 UNK         0.0600 
    147 H147        1.2395  -21.0664  -46.4847 H         1 UNK         0.0600 
    148 H148        1.1466  -20.1284  -45.0003 H         1 UNK         0.0600 
    149 H149        0.2150  -21.2962  -43.0895 H         1 UNK         0.3000 
    150 H150       -2.5634  -22.2007  -41.1408 H         1 UNK         0.0600 
    151 H151        0.2640  -23.3828  -41.0014 H         1 UNK         0.0600 
    152 H152       -0.8886  -23.2863  -39.6690 H         1 UNK         0.0600 
    153 H153       -1.2277  -24.3145  -41.0518 H         1 UNK         0.0600 
    154 H154       -0.1109  -20.9821  -40.4135 H         1 UNK         0.3000 
    155 H155       -1.1620  -18.0601  -40.0266 H         1 UNK         0.0600 
    156 H156        1.4305  -19.2391  -41.1996 H         1 UNK         0.0600 
    157 H157        0.8492  -19.4617  -39.5465 H         1 UNK         0.0600 
    158 H158        1.3561  -17.8784  -40.0888 H         1 UNK         0.0600 
    159 H159       -0.7113  -17.8786  -42.8812 H         1 UNK         0.3000 
    160 H160       -1.2829  -15.6370  -43.7195 H         1 UNK         0.0600 
    161 H161        0.5038  -13.5378  -42.4063 H         1 UNK         0.0600 
    162 H162       -1.2540  -13.5602  -42.3588 H         1 UNK         0.0600 
    163 H163       -0.4295  -13.3296  -43.8898 H         1 UNK         0.0600 
    164 H164        1.5386  -15.0762  -43.9961 H         1 UNK         0.3000 
    165 H165        2.5818  -18.1541  -45.2307 H         1 UNK         0.0600 
    166 H166        1.4067  -17.4336  -47.3203 H         1 UNK         0.0600 
    167 H167        1.9462  -15.7791  -47.0633 H         1 UNK         0.0600 
    168 H168        3.1211  -17.0518  -47.3785 H         1 UNK         0.0600 
    169 H169        3.4067  -15.3133  -45.1598 H         1 UNK         0.3000 
    170 H170        4.4053  -14.8113  -42.5294 H         1 UNK         0.0600 
    171 H171        5.8881  -16.4718  -41.5095 H         1 UNK         0.0600 
    172 H172        6.8283  -16.6279  -42.9847 H         1 UNK         0.0600 
    173 H173        6.8558  -15.1190  -42.0718 H         1 UNK         0.0600 
    174 H174        5.0138  -13.5829  -44.2474 H         1 UNK         0.3000 
    175 H175        7.4336  -13.6258  -46.6616 H         1 UNK         0.0600 
    176 H176        5.6885  -13.2433  -48.4221 H         1 UNK         0.0600 
    177 H177        5.8989  -14.9555  -48.0875 H         1 UNK         0.0600 
    178 H178        4.5058  -14.1034  -47.4373 H         1 UNK         0.0600 
    179 H179        5.1166  -11.9585  -46.3288 H         1 UNK         0.3000 
    180 H180        6.4118   -9.9767  -43.6598 H         1 UNK         0.0600 
    181 H181        5.8740   -8.2007  -45.3122 H         1 UNK         0.0600 
    182 H182        5.9041   -9.3779  -46.6242 H         1 UNK         0.0600 
    183 H183        7.3757   -9.0079  -45.7356 H         1 UNK         0.0600 
    184 H184        3.9779  -10.1181  -45.2684 H         1 UNK         0.3000 
    185 H185        2.1082  -11.9123  -42.8283 H         1 UNK         0.0600 
    186 H186        2.0794   -9.5783  -41.9498 H         1 UNK         0.0600 
    187 H187        1.9762   -8.9463  -43.5888 H         1 UNK         0.0600 
    188 H188        0.6554   -9.9081  -42.9236 H         1 UNK         0.0600 
    189 H189        1.4604  -10.6141  -45.3274 H         1 UNK         0.3000 
    190 H190       -3.6566  -22.2975  -44.9362 H         1 UNK         0.3000 
    191 H191       -5.7756  -23.2069  -46.8488 H         1 UNK         0.0600 
    192 H192       -6.7602  -22.9338  -44.5872 H         1 UNK         0.0600 
    193 H193       -6.6437  -24.6366  -45.0047 H         1 UNK         0.0600 
    194 H194       -5.4843  -23.9275  -43.8850 H         1 UNK         0.0600 
    195 H195       -2.8603  -24.0322  -44.9208 H         1 UNK         0.3000 
    196 H196       -2.8199  -26.7652  -45.7561 H         1 UNK         0.0600 
    197 H197       -0.7353  -26.8315  -44.4315 H         1 UNK         0.0600 
    198 H198       -1.9694  -25.9370  -43.5597 H         1 UNK         0.0600 
    199 H199       -0.6678  -25.0760  -44.3806 H         1 UNK         0.0600 
    200 H200       -1.5976  -23.9423  -47.3836 H         1 UNK         0.3000 
    201 H201        0.6947  -25.1650  -48.6503 H         1 UNK         0.0600 
    202 H202        0.6370  -23.1071  -50.0711 H         1 UNK         0.0600 
    203 H203       -0.9289  -22.6712  -49.3996 H         1 UNK         0.0600 
    204 H204        0.5030  -22.7037  -48.3700 H         1 UNK         0.0600 
    205 H205        0.9247  -25.7389  -50.8767 H         1 UNK         0.3000 
    206 H206       -1.1126  -27.3375  -52.0034 H         1 UNK         0.0600 
    207 H207        1.2961  -27.6905  -52.4561 H         1 UNK         0.0600 
    208 H208        0.4321  -27.4558  -53.9667 H         1 UNK         0.0600 
    209 H209        1.3982  -26.1449  -53.3000 H         1 UNK         0.0600 
    210 H210       -0.1724  -23.9634  -52.6828 H         1 UNK         0.3000 
    211 H211       -1.9574  -23.5363  -54.8853 H         1 UNK         0.0600 
    212 H212       -0.6885  -21.5449  -52.9270 H         1 UNK         0.0600 
    213 H213       -1.4746  -21.1243  -54.4437 H         1 UNK         0.0600 
    214 H214        0.0022  -22.0750  -54.4614 H         1 UNK         0.0600 
    215 H215       -2.3800  -23.3682  -51.3627 H         1 UNK         0.3000 
    216 H216       -4.9595  -22.0191  -51.4627 H         1 UNK         0.0600 
    217 H217       -5.0203  -22.5420  -49.0456 H         1 UNK         0.0600 
    218 H218       -3.5056  -21.7667  -49.4794 H         1 UNK         0.0600 
    219 H219       -3.5574  -23.5033  -49.1809 H         1 UNK         0.0600 
    220 H220       -3.8020  -25.3847  -51.0416 H         1 UNK         0.3000 
    221 H221       -6.3254  -26.6510  -50.8823 H         1 UNK         0.0600 
    222 H222       -3.6540  -27.7248  -51.9360 H         1 UNK         0.0600 
    223 H223       -4.1793  -27.7344  -50.2541 H         1 UNK         0.0600 
    224 H224       -5.0303  -28.7063  -51.4470 H         1 UNK         0.0600 
    225 H225       -4.3250  -25.8225  -53.7361 H         1 UNK         0.3000 
    226 H226       -6.1273  -26.9357  -55.6927 H         1 UNK         0.0600 
    227 H227       -4.6187  -25.7466  -57.2867 H         1 UNK         0.0600 
    228 H228       -3.8595  -24.8877  -55.9523 H         1 UNK         0.0600 
    229 H229       -3.6879  -26.6372  -56.0939 H         1 UNK         0.0600 
    230 H230       -6.3509  -24.1096  -53.8066 H         1 UNK         0.3000 
    231 H231       -7.5369  -22.2642  -53.7572 H         1 UNK         0.0600 
    232 H232       -9.3352  -23.4334  -55.9432 H         1 UNK         0.0600 
    233 H233       -9.7404  -22.1394  -54.8260 H         1 UNK         0.0600 
    234 H234       -9.4908  -23.7675  -54.2185 H         1 UNK         0.0600 
    235 H235       -5.2117  -22.3696  -55.3923 H         1 UNK         0.3000 
    236 H236       -5.6140  -20.4264  -57.5917 H         1 UNK         0.0600 
    237 H237       -3.1785  -20.8000  -57.9478 H         1 UNK         0.0600 
    238 H238       -3.1015  -21.8280  -56.5219 H         1 UNK         0.0600 
    239 H239       -4.0374  -22.3332  -57.9276 H         1 UNK         0.0600 
    240 H240       -4.6639  -20.6310  -54.2354 H         1 UNK         0.3000 
    241 H241       -3.2867  -18.1890  -53.8956 H         1 UNK         0.0600 
    242 H242       -3.9896  -16.0157  -53.7171 H         1 UNK         0.3800 
    243 H243       -5.6677  -15.5571  -53.6667 H         1 UNK         0.3800 
    244 H244       -3.4839  -20.1786  -52.2693 H         1 UNK         0.0800 
    245 H245       -5.0345  -19.5617  -51.7777 H         1 UNK         0.0800 
    246 H246       -5.2083  -16.9397  -50.7464 H         1 UNK         0.0800 
    247 H247       -5.1254  -18.2895  -49.6361 H         1 UNK         0.0800 
@<TRIPOS>BOND
     1    1    2 1    
     2    1  127 1    
     3    1  128 1    
     4    1  129 1    
     5    2    3 2    
     6    2    4 am   BACKBONE|DICT|INTERRES
     7    4    5 1    
     8    4  130 1    
     9    5    6 1    
    10    5   65 1    
    11    5  131 1    
    12    6    7 1    
    13    6  132 1    
    14    6  133 1    
    15    7    8 1    
    16    8    9 1    
    17    8  134 1    
    18    8  135 1    
    19    9   10 ar   
    20    9   14 ar   
    21   10   11 ar   
    22   10  136 1    
    23   11   12 ar   
    24   11  126 1    
    25   12   13 ar   
    26   12  137 1    
    27   13   14 ar   
    28   13   15 1    
    29   14  138 1    
    30   15   16 1    
    31   15  139 1    
    32   15  140 1    
    33   16   17 1    
    34   17   18 1    
    35   17  141 1    
    36   17  142 1    
    37   18   19 1    
    38   18   67 1    
    39   18  143 1    
    40   19   20 am   BACKBONE|DICT|INTERRES
    41   19  144 1    
    42   20   21 2    
    43   20   22 1    
    44   22   23 1    
    45   22   24 1    
    46   22  145 1    
    47   23  146 1    
    48   23  147 1    
    49   23  148 1    
    50   24   25 am   BACKBONE|DICT|INTERRES
    51   24  149 1    
    52   25   26 2    
    53   25   27 1    
    54   27   28 1    
    55   27   29 1    
    56   27  150 1    
    57   28  151 1    
    58   28  152 1    
    59   28  153 1    
    60   29   30 am   BACKBONE|DICT|INTERRES
    61   29  154 1    
    62   30   31 2    
    63   30   32 1    
    64   32   33 1    
    65   32   34 1    
    66   32  155 1    
    67   33  156 1    
    68   33  157 1    
    69   33  158 1    
    70   34   35 am   BACKBONE|DICT|INTERRES
    71   34  159 1    
    72   35   36 2    
    73   35   37 1    
    74   37   38 1    
    75   37   39 1    
    76   37  160 1    
    77   38  161 1    
    78   38  162 1    
    79   38  163 1    
    80   39   40 am   BACKBONE|DICT|INTERRES
    81   39  164 1    
    82   40   41 2    
    83   40   42 1    
    84   42   43 1    
    85   42   44 1    
    86   42  165 1    
    87   43  166 1    
    88   43  167 1    
    89   43  168 1    
    90   44   45 am   BACKBONE|DICT|INTERRES
    91   44  169 1    
    92   45   46 2    
    93   45   47 1    
    94   47   48 1    
    95   47   49 1    
    96   47  170 1    
    97   48  171 1    
    98   48  172 1    
    99   48  173 1    
   100   49   50 am   BACKBONE|DICT|INTERRES
   101   49  174 1    
   102   50   51 2    
   103   50   52 1    
   104   52   53 1    
   105   52   54 1    
   106   52  175 1    
   107   53  176 1    
   108   53  177 1    
   109   53  178 1    
   110   54   55 am   BACKBONE|DICT|INTERRES
   111   54  179 1    
   112   55   56 2    
   113   55   57 1    
   114   57   58 1    
   115   57   59 1    
   116   57  180 1    
   117   58  181 1    
   118   58  182 1    
   119   58  183 1    
   120   59   60 am   BACKBONE|DICT|INTERRES
   121   59  184 1    
   122   60   61 2    
   123   60   62 1    
   124   62   63 1    
   125   62   64 1    
   126   62  185 1    
   127   63  186 1    
   128   63  187 1    
   129   63  188 1    
   130   64   65 am   BACKBONE|DICT|INTERRES
   131   64  189 1    
   132   65   66 2    
   133   67   68 2    
   134   67   69 am   BACKBONE|DICT|INTERRES
   135   69   70 1    
   136   69  190 1    
   137   70   71 1    
   138   70   72 1    
   139   70  191 1    
   140   71  192 1    
   141   71  193 1    
   142   71  194 1    
   143   72   73 2    
   144   72   74 am   BACKBONE|DICT|INTERRES
   145   74   75 1    
   146   74  195 1    
   147   75   76 1    
   148   75   77 1    
   149   75  196 1    
   150   76  197 1    
   151   76  198 1    
   152   76  199 1    
   153   77   78 2    
   154   77   79 am   BACKBONE|DICT|INTERRES
   155   79   80 1    
   156   79  200 1    
   157   80   81 1    
   158   80   82 1    
   159   80  201 1    
   160   81  202 1    
   161   81  203 1    
   162   81  204 1    
   163   82   83 2    
   164   82   84 am   BACKBONE|DICT|INTERRES
   165   84   85 1    
   166   84  205 1    
   167   85   86 1    
   168   85   87 1    
   169   85  206 1    
   170   86  207 1    
   171   86  208 1    
   172   86  209 1    
   173   87   88 2    
   174   87   89 am   BACKBONE|DICT|INTERRES
   175   89   90 1    
   176   89  210 1    
   177   90   91 1    
   178   90   92 1    
   179   90  211 1    
   180   91  212 1    
   181   91  213 1    
   182   91  214 1    
   183   92   93 2    
   184   92   94 am   BACKBONE|DICT|INTERRES
   185   94   95 1    
   186   94  215 1    
   187   95   96 1    
   188   95   97 1    
   189   95  216 1    
   190   96  217 1    
   191   96  218 1    
   192   96  219 1    
   193   97   98 2    
   194   97   99 am   BACKBONE|DICT|INTERRES
   195   99  100 1    
   196   99  220 1    
   197  100  101 1    
   198  100  102 1    
   199  100  221 1    
   200  101  222 1    
   201  101  223 1    
   202  101  224 1    
   203  102  103 2    
   204  102  104 am   BACKBONE|DICT|INTERRES
   205  104  105 1    
   206  104  225 1    
   207  105  106 1    
   208  105  107 1    
   209  105  226 1    
   210  106  227 1    
   211  106  228 1    
   212  106  229 1    
   213  107  108 2    
   214  107  109 am   BACKBONE|DICT|INTERRES
   215  109  110 1    
   216  109  230 1    
   217  110  111 1    
   218  110  112 1    
   219  110  231 1    
   220  111  232 1    
   221  111  233 1    
   222  111  234 1    
   223  112  113 2    
   224  112  114 am   BACKBONE|DICT|INTERRES
   225  114  115 1    
   226  114  235 1    
   227  115  116 1    
   228  115  117 1    
   229  115  236 1    
   230  116  237 1    
   231  116  238 1    
   232  116  239 1    
   233  117  118 2    
   234  117  119 am   BACKBONE|DICT|INTERRES
   235  119  120 1    
   236  119  240 1    
   237  120  121 1    
   238  120  124 1    
   239  120  241 1    
   240  121  122 am   BACKBONE|DICT|INTERRES
   241  121  123 2    
   242  122  242 1    
   243  122  243 1    
   244  124  125 1    
   245  124  244 1    
   246  124  245 1    
   247  125  126 1    
   248  126  246 1    
   249  126  247 1    
@<TRIPOS>SUBSTRUCTURE
     1 UNK         1 GROUP             0       ****    0 ROOT    
