@<TRIPOS>MOLECULE
3R540
247   249    1
SMALL
USER_CHARGES


@<TRIPOS>ATOM
      1 CA         -1.1271  -17.3870  -49.7569 C.3       0 UNK        -0.1800 
      2 C          -0.9639  -15.8851  -49.8778 C.2       0 UNK         0.5000 
      3 O          -1.9430  -15.1448  -49.7737 O.2       0 UNK        -0.5000 
      4 N           0.2734  -15.4357  -50.1078 N.am      1 UNK        -0.5000 
      5 CA          0.6570  -14.0462  -50.3821 C.3       1 UNK         0.1400 
      6 C6          1.9916  -13.9707  -51.1665 C.3       23 UNK        -0.0398 
      7 S7          1.9072  -14.8331  -52.7757 S.3       23 UNK        -0.2404 
      8 C8          3.1725  -16.1298  -52.5879 C.3       23 UNK        -0.0205 
      9 C9          2.6780  -17.3093  -51.7630 C.ar      23 UNK        -0.0193 
     10 C10         1.9323  -18.3238  -52.3712 C.ar      23 UNK        -0.1150 
     11 C11         1.5001  -19.4307  -51.6338 C.ar      23 UNK        -0.0193 
     12 C12         1.8273  -19.5172  -50.2785 C.ar      23 UNK        -0.1150 
     13 C13         2.5701  -18.5104  -49.6553 C.ar      23 UNK        -0.0193 
     14 C14         2.9920  -17.4074  -50.4038 C.ar      23 UNK        -0.1150 
     15 C15         2.9231  -18.6100  -48.1781 C.3       23 UNK        -0.0205 
     16 S16         4.5368  -19.4120  -47.9277 S.3       23 UNK        -0.2404 
     17 C17         4.1014  -21.1860  -48.0085 C.3       23 UNK        -0.0398 
     18 CA          4.2140  -21.8768  -46.6269 C.3       11 UNK         0.1400 
     19 N           3.3046  -21.2772  -45.6461 N.am      11 UNK        -0.5000 
     20 C           3.6192  -20.9409  -44.3884 C.2       10 UNK         0.5000 
     21 O           4.7463  -21.0545  -43.9066 O.2       10 UNK        -0.5000 
     22 CA          2.4661  -20.4168  -43.5094 C.3       10 UNK         0.1400 
     23 CB          2.4701  -18.8812  -43.5076 C.3       10 UNK        -0.1800 
     24 N           1.1547  -20.9075  -43.9491 N.am      10 UNK        -0.5000 
     25 C           0.7634  -22.1908  -43.8655 C.2       9 UNK         0.5000 
     26 O           1.4499  -23.0714  -43.3478 O.2       9 UNK        -0.5000 
     27 CA         -0.5758  -22.5828  -44.5212 C.3       9 UNK         0.1400 
     28 CB         -1.6775  -22.7330  -43.4619 C.3       9 UNK        -0.1800 
     29 N          -0.9993  -21.6459  -45.5640 N.am      9 UNK        -0.5000 
     30 C          -0.3617  -21.4976  -46.7356 C.2       8 UNK         0.5000 
     31 O           0.6389  -22.1485  -47.0452 O.2       8 UNK        -0.5000 
     32 CA         -0.8628  -20.3957  -47.6913 C.3       8 UNK         0.1400 
     33 CB         -1.7301  -20.9780  -48.8142 C.3       8 UNK        -0.1800 
     34 N          -1.5597  -19.2893  -47.0282 N.am      8 UNK        -0.5000 
     35 C          -0.9651  -18.4777  -46.1413 C.2       7 UNK         0.5000 
     36 O           0.2077  -18.6207  -45.7972 O.2       7 UNK        -0.5000 
     37 CA         -1.7879  -17.3504  -45.4839 C.3       7 UNK         0.1400 
     38 CB         -3.2012  -17.1513  -46.0641 C.3       7 UNK        -0.1800 
     39 N          -1.8607  -17.5309  -44.0330 N.am      7 UNK        -0.5000 
     40 C          -2.2925  -18.6228  -43.3846 C.2       6 UNK         0.5000 
     41 O          -2.6852  -19.6438  -43.9473 O.2       6 UNK        -0.5000 
     42 CA         -2.2944  -18.5655  -41.8475 C.3       6 UNK         0.1400 
     43 CB         -0.9233  -18.9679  -41.2846 C.3       6 UNK        -0.1800 
     44 N          -2.6560  -17.2448  -41.3346 N.am      6 UNK        -0.5000 
     45 C          -3.8815  -16.7049  -41.4087 C.2       5 UNK         0.5000 
     46 O          -4.8621  -17.2939  -41.8641 O.2       5 UNK        -0.5000 
     47 CA         -4.0441  -15.2656  -40.8793 C.3       5 UNK         0.1400 
     48 CB         -4.6344  -15.2778  -39.4607 C.3       5 UNK        -0.1800 
     49 N          -2.7866  -14.5137  -40.8636 N.am      5 UNK        -0.5000 
     50 C          -2.1607  -14.0561  -41.9558 C.2       4 UNK         0.5000 
     51 O          -2.6241  -14.1610  -43.0941 O.2       4 UNK        -0.5000 
     52 CA         -0.7988  -13.3583  -41.7384 C.3       4 UNK         0.1400 
     53 CB         -0.0473  -13.8462  -40.4787 C.3       4 UNK        -0.1800 
     54 N           0.0696  -13.4509  -42.9152 N.am      4 UNK        -0.5000 
     55 C           0.5341  -14.5613  -43.5036 C.2       3 UNK         0.5000 
     56 O           0.2976  -15.7034  -43.1034 O.2       3 UNK        -0.5000 
     57 CA          1.3731  -14.3335  -44.7789 C.3       3 UNK         0.1400 
     58 CB          2.1163  -15.5956  -45.2450 C.3       3 UNK        -0.1800 
     59 N           0.5470  -13.8401  -45.8815 N.am      3 UNK        -0.5000 
     60 C           0.0952  -12.5859  -46.0136 C.2       2 UNK         0.5000 
     61 O           0.3456  -11.6901  -45.2036 O.2       2 UNK        -0.5000 
     62 CA         -0.7925  -12.2929  -47.2430 C.3       2 UNK         0.1400 
     63 CB         -0.8087  -10.7971  -47.6210 C.3       2 UNK        -0.1800 
     64 N          -0.4830  -13.1143  -48.4205 N.am      2 UNK        -0.5000 
     65 C           0.6696  -13.1761  -49.1032 C.2       1 UNK         0.5000 
     66 O           1.6975  -12.5872  -48.7648 O.2       1 UNK        -0.5000 
     67 C           3.9858  -23.4042  -46.7245 C.2       11 UNK         0.5000 
     68 O           4.4998  -24.0346  -47.6492 O.2       11 UNK        -0.5000 
     69 N           3.2343  -23.9732  -45.7672 N.am      12 UNK        -0.5000 
     70 CA          2.9090  -25.3923  -45.6016 C.3       12 UNK         0.1400 
     71 CB          4.1805  -26.2145  -45.3019 C.3       12 UNK        -0.1800 
     72 C           2.0605  -25.9862  -46.7460 C.2       12 UNK         0.5000 
     73 O           2.1616  -27.1841  -47.0212 O.2       12 UNK        -0.5000 
     74 N           1.2178  -25.1583  -47.3804 N.am      13 UNK        -0.5000 
     75 CA          0.2189  -25.6060  -48.3525 C.3       13 UNK         0.1400 
     76 CB         -0.2706  -24.3987  -49.1640 C.3       13 UNK        -0.1800 
     77 C          -0.9737  -26.2980  -47.6620 C.2       13 UNK         0.5000 
     78 O          -1.1406  -26.1923  -46.4432 O.2       13 UNK        -0.5000 
     79 N          -1.7981  -26.9795  -48.4664 N.am      14 UNK        -0.5000 
     80 CA         -3.0488  -27.6008  -48.0379 C.3       14 UNK         0.1400 
     81 CB         -3.5359  -28.5622  -49.1352 C.3       14 UNK        -0.1800 
     82 C          -4.1060  -26.5281  -47.7111 C.2       14 UNK         0.5000 
     83 O          -4.6570  -25.9206  -48.6316 O.2       14 UNK        -0.5000 
     84 N          -4.3476  -26.3287  -46.4079 N.am      15 UNK        -0.5000 
     85 CA         -5.2464  -25.3496  -45.7851 C.3       15 UNK         0.1400 
     86 CB         -6.6969  -25.5263  -46.2832 C.3       15 UNK        -0.1800 
     87 C          -4.7713  -23.8878  -45.9239 C.2       15 UNK         0.5000 
     88 O          -3.8521  -23.5774  -46.6854 O.2       15 UNK        -0.5000 
     89 N          -5.4213  -22.9984  -45.1631 N.am      16 UNK        -0.5000 
     90 CA         -5.1612  -21.5582  -45.1219 C.3       16 UNK         0.1400 
     91 CB         -5.6270  -21.0120  -43.7596 C.3       16 UNK        -0.1800 
     92 C          -5.8040  -20.8209  -46.3147 C.2       16 UNK         0.5000 
     93 O          -6.6270  -19.9228  -46.1265 O.2       16 UNK        -0.5000 
     94 N          -5.4380  -21.2434  -47.5294 N.am      17 UNK        -0.5000 
     95 CA         -5.8572  -20.6421  -48.7931 C.3       17 UNK         0.1400 
     96 CB         -5.5356  -21.6244  -49.9294 C.3       17 UNK        -0.1800 
     97 C          -5.1721  -19.2836  -49.0358 C.2       17 UNK         0.5000 
     98 O          -4.1360  -18.9990  -48.4328 O.2       17 UNK        -0.5000 
     99 N          -5.7550  -18.4818  -49.9316 N.am      18 UNK        -0.5000 
    100 CA        -5.2004  -17.2106  -50.3954 C.3       18 UNK         0.1400 
    101 CB        -6.3644  -16.2331  -50.6286 C.3       18 UNK        -0.1800 
    102 C         -4.4008  -17.4079  -51.6958 C.2       18 UNK         0.5000 
    103 O         -4.5109  -18.4546  -52.3397 O.2       18 UNK        -0.5000 
    104 N         -3.6587  -16.3646  -52.0947 N.am      19 UNK        -0.5000 
    105 CA        -2.8134  -16.3069  -53.2953 C.3       19 UNK         0.1400 
    106 CB        -2.1479  -14.9253  -53.3796 C.3       19 UNK        -0.1800 
    107 C         -3.5320  -16.6176  -54.6240 C.2       19 UNK         0.5000 
    108 O         -2.8756  -17.0312  -55.5787 O.2       19 UNK        -0.5000 
    109 N         -4.8615  -16.4516  -54.6588 N.am      20 UNK        -0.5000 
    110 CA        -5.7285  -16.8330  -55.7748 C.3       20 UNK         0.1400 
    111 CB        -7.1586  -16.3547  -55.4820 C.3       20 UNK        -0.1800 
    112 C         -5.7157  -18.3470  -56.0735 C.2       20 UNK         0.5000 
    113 O         -5.8571  -18.7312  -57.2348 O.2       20 UNK        -0.5000 
    114 N         -5.5202  -19.1766  -55.0375 N.am      21 UNK        -0.5000 
    115 CA        -5.3697  -20.6282  -55.1650 C.3       21 UNK         0.1400 
    116 CB        -5.7393  -21.2891  -53.8293 C.3       21 UNK        -0.1800 
    117 C         -3.9415  -21.0318  -55.5785 C.2       21 UNK         0.5000 
    118 O         -3.7575  -22.1006  -56.1620 O.2       21 UNK        -0.5000 
    119 N         -2.9625  -20.1755  -55.2645 N.am      22 UNK        -0.5000 
    120 CA        -1.5339  -20.3626  -55.5607 C.3       22 UNK         0.1400 
    121 C         -1.1423  -20.0702  -57.0392 C.2       22 UNK         0.5000 
    122 N         -2.0059  -19.4799  -57.8565 N.am      22 UNK        -0.7600 
    123 O         -0.0348  -20.3980  -57.4563 O.2       22 UNK        -0.5000 
    124 C124       -0.6413  -19.5545  -54.5833 C.3       23 UNK        -0.0398 
    125 S125       -0.9437  -19.9972  -52.8345 S.3       23 UNK        -0.2404 
    126 C126        0.7045  -20.5506  -52.2927 C.3       23 UNK        -0.0205 
    127 H127       -2.0524  -17.6273  -49.2380 H         1 UNK         0.0600 
    128 H128       -0.2972  -17.8225  -49.2033 H         1 UNK         0.0600 
    129 H129       -1.1636  -17.8427  -50.7454 H         1 UNK         0.0600 
    130 H130        1.0224  -16.1085  -50.1978 H         1 UNK         0.3000 
    131 H131       -0.1097  -13.6078  -51.0235 H         1 UNK         0.0600 
    132 H132        2.2495  -12.9309  -51.3750 H         1 UNK         0.0800 
    133 H133        2.8120  -14.3695  -50.5685 H         1 UNK         0.0800 
    134 H134        3.4561  -16.4817  -53.5809 H         1 UNK         0.0800 
    135 H135        4.0787  -15.7054  -52.1529 H         1 UNK         0.0800 
    136 H136        1.6939  -18.2511  -53.4222 H         1 UNK         0.1150 
    137 H137        1.5102  -20.3807  -49.7147 H         1 UNK         0.1150 
    138 H138        3.5811  -16.6348  -49.9298 H         1 UNK         0.1150 
    139 H139        2.9569  -17.6111  -47.7408 H         1 UNK         0.0800 
    140 H140        2.1538  -19.1501  -47.6264 H         1 UNK         0.0800 
    141 H141        3.0986  -21.3159  -48.4136 H         1 UNK         0.0800 
    142 H142        4.7800  -21.6487  -48.7270 H         1 UNK         0.0800 
    143 H143        5.2449  -21.7550  -46.2884 H         1 UNK         0.0600 
    144 H144        2.3435  -21.1798  -45.9469 H         1 UNK         0.3000 
    145 H145        2.6316  -20.7631  -42.4872 H         1 UNK         0.0600 
    146 H146        1.6071  -18.4726  -42.9846 H         1 UNK         0.0600 
    147 H147        2.4645  -18.4822  -44.5219 H         1 UNK         0.0600 
    148 H148        3.3636  -18.4963  -43.0152 H         1 UNK         0.0600 
    149 H149        0.5675  -20.2398  -44.4365 H         1 UNK         0.3000 
    150 H150       -0.4357  -23.5581  -44.9933 H         1 UNK         0.0600 
    151 H151       -1.4255  -23.5234  -42.7539 H         1 UNK         0.0600 
    152 H152       -2.6313  -22.9991  -43.9155 H         1 UNK         0.0600 
    153 H153       -1.8186  -21.8192  -42.8864 H         1 UNK         0.0600 
    154 H154       -1.7639  -21.0217  -45.3335 H         1 UNK         0.3000 
    155 H155        0.0204  -19.9643  -48.1554 H         1 UNK         0.0600 
    156 H156       -1.1640  -21.6884  -49.4146 H         1 UNK         0.0600 
    157 H157       -2.0678  -20.2022  -49.5006 H         1 UNK         0.0600 
    158 H158       -2.6063  -21.4921  -48.4190 H         1 UNK         0.0600 
    159 H159       -2.5276  -19.1323  -47.2981 H         1 UNK         0.3000 
    160 H160       -1.2302  -16.4283  -45.6506 H         1 UNK         0.0600 
    161 H161       -3.8270  -18.0354  -45.9364 H         1 UNK         0.0600 
    162 H162       -3.1591  -16.9130  -47.1270 H         1 UNK         0.0600 
    163 H163       -3.7068  -16.3200  -45.5724 H         1 UNK         0.0600 
    164 H164       -1.4591  -16.7778  -43.4859 H         1 UNK         0.3000 
    165 H165       -3.0332  -19.2878  -41.4936 H         1 UNK         0.0600 
    166 H166       -0.9611  -19.0770  -40.2007 H         1 UNK         0.0600 
    167 H167       -0.5907  -19.9219  -41.6955 H         1 UNK         0.0600 
    168 H168       -0.1623  -18.2232  -41.5178 H         1 UNK         0.0600 
    169 H169       -1.9085  -16.6852  -40.9526 H         1 UNK         0.3000 
    170 H170       -4.7472  -14.7504  -41.5374 H         1 UNK         0.0600 
    171 H171       -5.5887  -15.8059  -39.4393 H         1 UNK         0.0600 
    172 H172       -3.9696  -15.7729  -38.7517 H         1 UNK         0.0600 
    173 H173       -4.8173  -14.2653  -39.1004 H         1 UNK         0.0600 
    174 H174       -2.3547  -14.3754  -39.9613 H         1 UNK         0.3000 
    175 H175       -1.0179  -12.2979  -41.6072 H         1 UNK         0.0600 
    176 H176        0.1068  -14.9259  -40.4882 H         1 UNK         0.0600 
    177 H177        0.9325  -13.3745  -40.4022 H         1 UNK         0.0600 
    178 H178       -0.5886  -13.5943  -39.5664 H         1 UNK         0.0600 
    179 H179        0.2433  -12.5767  -43.4012 H         1 UNK         0.3000 
    180 H180        2.1285  -13.5814  -44.5415 H         1 UNK         0.0600 
    181 H181        2.7484  -15.9912  -44.4494 H         1 UNK         0.0600 
    182 H182        2.7621  -15.3818  -46.0968 H         1 UNK         0.0600 
    183 H183        1.4250  -16.3826  -45.5402 H         1 UNK         0.0600 
    184 H184        0.2932  -14.5105  -46.5904 H         1 UNK         0.3000 
    185 H185       -1.8062  -12.5651  -46.9458 H         1 UNK         0.0600 
    186 H186       -1.1786  -10.1868  -46.7962 H         1 UNK         0.0600 
    187 H187        0.1875  -10.4339  -47.8754 H         1 UNK         0.0600 
    188 H188       -1.4611  -10.6132  -48.4746 H         1 UNK         0.0600 
    189 H189       -1.2480  -13.6815  -48.7791 H         1 UNK         0.3000 
    190 H190        2.8547  -23.3680  -45.0505 H         1 UNK         0.3000 
    191 H191        2.2759  -25.4462  -44.7148 H         1 UNK         0.0600 
    192 H192        3.9284  -27.2360  -45.0150 H         1 UNK         0.0600 
    193 H193        4.7462  -25.7796  -44.4779 H         1 UNK         0.0600 
    194 H194        4.8396  -26.2727  -46.1685 H         1 UNK         0.0600 
    195 H195        1.1721  -24.1838  -47.1051 H         1 UNK         0.3000 
    196 H196        0.6913  -26.3155  -49.0352 H         1 UNK         0.0600 
    197 H197       -0.9331  -23.7756  -48.5645 H         1 UNK         0.0600 
    198 H198        0.5578  -23.7822  -49.5141 H         1 UNK         0.0600 
    199 H199       -0.8347  -24.7169  -50.0411 H         1 UNK         0.0600 
    200 H200       -1.6135  -26.9924  -49.4587 H         1 UNK         0.3000 
    201 H201       -2.8532  -28.1934  -47.1415 H         1 UNK         0.0600 
    202 H202       -4.4742  -29.0376  -48.8468 H         1 UNK         0.0600 
    203 H203       -2.8109  -29.3566  -49.3133 H         1 UNK         0.0600 
    204 H204       -3.7067  -28.0464  -50.0810 H         1 UNK         0.0600 
    205 H205       -3.7733  -26.8428  -45.7543 H         1 UNK         0.3000 
    206 H206       -5.2310  -25.5813  -44.7190 H         1 UNK         0.0600 
    207 H207       -7.0114  -26.5682  -46.2225 H         1 UNK         0.0600 
    208 H208       -7.3951  -24.9455  -45.6800 H         1 UNK         0.0600 
    209 H209       -6.8165  -25.1993  -47.3164 H         1 UNK         0.0600 
    210 H210       -6.1824  -23.3218  -44.5839 H         1 UNK         0.3000 
    211 H211       -4.0851  -21.3970  -45.1976 H         1 UNK         0.0600 
    212 H212       -6.6944  -21.1704  -43.6030 H         1 UNK         0.0600 
    213 H213       -5.4380  -19.9402  -43.6820 H         1 UNK         0.0600 
    214 H214       -5.0894  -21.4908  -42.9410 H         1 UNK         0.0600 
    215 H215       -4.7581  -21.9944  -47.5801 H         1 UNK         0.3000 
    216 H216       -6.9375  -20.4864  -48.7584 H         1 UNK         0.0600 
    217 H217       -5.9757  -22.6046  -49.7439 H         1 UNK         0.0600 
    218 H218       -4.4609  -21.7583  -50.0582 H         1 UNK         0.0600 
    219 H219       -5.9381  -21.2642  -50.8755 H         1 UNK         0.0600 
    220 H220       -6.5660  -18.8161  -50.4307 H         1 UNK         0.3000 
    221 H221       -4.5340  -16.7889  -49.6395 H         1 UNK         0.0600 
    222 H222       -6.9484  -16.0952  -49.7184 H         1 UNK         0.0600 
    223 H223       -6.0023  -15.2491  -50.9288 H         1 UNK         0.0600 
    224 H224       -7.0400  -16.5874  -51.4085 H         1 UNK         0.0600 
    225 H225       -3.6075  -15.5568  -51.4881 H         1 UNK         0.3000 
    226 H226       -2.0292  -17.0549  -53.1692 H         1 UNK         0.0600 
    227 H227       -1.5226  -14.7325  -52.5112 H         1 UNK         0.0600 
    228 H228       -1.5026  -14.8526  -54.2563 H         1 UNK         0.0600 
    229 H229       -2.8868  -14.1260  -53.4468 H         1 UNK         0.0600 
    230 H230       -5.3172  -16.1024  -53.8293 H         1 UNK         0.3000 
    231 H231       -5.3693  -16.3175  -56.6679 H         1 UNK         0.0600 
    232 H232       -7.8297  -16.6029  -56.3055 H         1 UNK         0.0600 
    233 H233       -7.1943  -15.2731  -55.3504 H         1 UNK         0.0600 
    234 H234       -7.5608  -16.8173  -54.5797 H         1 UNK         0.0600 
    235 H235       -5.3651  -18.7901  -54.1110 H         1 UNK         0.3000 
    236 H236       -6.0596  -20.9943  -55.9284 H         1 UNK         0.0600 
    237 H237       -5.0370  -21.0120  -53.0426 H         1 UNK         0.0600 
    238 H238       -6.7402  -21.0024  -53.5064 H         1 UNK         0.0600 
    239 H239       -5.7217  -22.3763  -53.9139 H         1 UNK         0.0600 
    240 H240       -3.2072  -19.3153  -54.7969 H         1 UNK         0.3000 
    241 H241       -1.3059  -21.4185  -55.4029 H         1 UNK         0.0600 
    242 H242       -2.9053  -19.1793  -57.5144 H         1 UNK         0.3800 
    243 H243       -1.7443  -19.2992  -58.8128 H         1 UNK         0.3800 
    244 H244       -0.8104  -18.4845  -54.7041 H         1 UNK         0.0800 
    245 H245        0.4111  -19.7139  -54.8211 H         1 UNK         0.0800 
    246 H246        1.2705  -20.9670  -53.1265 H         1 UNK         0.0800 
    247 H247        0.5632  -21.3746  -51.5916 H         1 UNK         0.0800 
@<TRIPOS>BOND
     1    1    2 1    
     2    1  127 1    
     3    1  128 1    
     4    1  129 1    
     5    2    3 2    
     6    2    4 am   BACKBONE|DICT|INTERRES
     7    4    5 1    
     8    4  130 1    
     9    5    6 1    
    10    5   65 1    
    11    5  131 1    
    12    6    7 1    
    13    6  132 1    
    14    6  133 1    
    15    7    8 1    
    16    8    9 1    
    17    8  134 1    
    18    8  135 1    
    19    9   10 ar   
    20    9   14 ar   
    21   10   11 ar   
    22   10  136 1    
    23   11   12 ar   
    24   11  126 1    
    25   12   13 ar   
    26   12  137 1    
    27   13   14 ar   
    28   13   15 1    
    29   14  138 1    
    30   15   16 1    
    31   15  139 1    
    32   15  140 1    
    33   16   17 1    
    34   17   18 1    
    35   17  141 1    
    36   17  142 1    
    37   18   19 1    
    38   18   67 1    
    39   18  143 1    
    40   19   20 am   BACKBONE|DICT|INTERRES
    41   19  144 1    
    42   20   21 2    
    43   20   22 1    
    44   22   23 1    
    45   22   24 1    
    46   22  145 1    
    47   23  146 1    
    48   23  147 1    
    49   23  148 1    
    50   24   25 am   BACKBONE|DICT|INTERRES
    51   24  149 1    
    52   25   26 2    
    53   25   27 1    
    54   27   28 1    
    55   27   29 1    
    56   27  150 1    
    57   28  151 1    
    58   28  152 1    
    59   28  153 1    
    60   29   30 am   BACKBONE|DICT|INTERRES
    61   29  154 1    
    62   30   31 2    
    63   30   32 1    
    64   32   33 1    
    65   32   34 1    
    66   32  155 1    
    67   33  156 1    
    68   33  157 1    
    69   33  158 1    
    70   34   35 am   BACKBONE|DICT|INTERRES
    71   34  159 1    
    72   35   36 2    
    73   35   37 1    
    74   37   38 1    
    75   37   39 1    
    76   37  160 1    
    77   38  161 1    
    78   38  162 1    
    79   38  163 1    
    80   39   40 am   BACKBONE|DICT|INTERRES
    81   39  164 1    
    82   40   41 2    
    83   40   42 1    
    84   42   43 1    
    85   42   44 1    
    86   42  165 1    
    87   43  166 1    
    88   43  167 1    
    89   43  168 1    
    90   44   45 am   BACKBONE|DICT|INTERRES
    91   44  169 1    
    92   45   46 2    
    93   45   47 1    
    94   47   48 1    
    95   47   49 1    
    96   47  170 1    
    97   48  171 1    
    98   48  172 1    
    99   48  173 1    
   100   49   50 am   BACKBONE|DICT|INTERRES
   101   49  174 1    
   102   50   51 2    
   103   50   52 1    
   104   52   53 1    
   105   52   54 1    
   106   52  175 1    
   107   53  176 1    
   108   53  177 1    
   109   53  178 1    
   110   54   55 am   BACKBONE|DICT|INTERRES
   111   54  179 1    
   112   55   56 2    
   113   55   57 1    
   114   57   58 1    
   115   57   59 1    
   116   57  180 1    
   117   58  181 1    
   118   58  182 1    
   119   58  183 1    
   120   59   60 am   BACKBONE|DICT|INTERRES
   121   59  184 1    
   122   60   61 2    
   123   60   62 1    
   124   62   63 1    
   125   62   64 1    
   126   62  185 1    
   127   63  186 1    
   128   63  187 1    
   129   63  188 1    
   130   64   65 am   BACKBONE|DICT|INTERRES
   131   64  189 1    
   132   65   66 2    
   133   67   68 2    
   134   67   69 am   BACKBONE|DICT|INTERRES
   135   69   70 1    
   136   69  190 1    
   137   70   71 1    
   138   70   72 1    
   139   70  191 1    
   140   71  192 1    
   141   71  193 1    
   142   71  194 1    
   143   72   73 2    
   144   72   74 am   BACKBONE|DICT|INTERRES
   145   74   75 1    
   146   74  195 1    
   147   75   76 1    
   148   75   77 1    
   149   75  196 1    
   150   76  197 1    
   151   76  198 1    
   152   76  199 1    
   153   77   78 2    
   154   77   79 am   BACKBONE|DICT|INTERRES
   155   79   80 1    
   156   79  200 1    
   157   80   81 1    
   158   80   82 1    
   159   80  201 1    
   160   81  202 1    
   161   81  203 1    
   162   81  204 1    
   163   82   83 2    
   164   82   84 am   BACKBONE|DICT|INTERRES
   165   84   85 1    
   166   84  205 1    
   167   85   86 1    
   168   85   87 1    
   169   85  206 1    
   170   86  207 1    
   171   86  208 1    
   172   86  209 1    
   173   87   88 2    
   174   87   89 am   BACKBONE|DICT|INTERRES
   175   89   90 1    
   176   89  210 1    
   177   90   91 1    
   178   90   92 1    
   179   90  211 1    
   180   91  212 1    
   181   91  213 1    
   182   91  214 1    
   183   92   93 2    
   184   92   94 am   BACKBONE|DICT|INTERRES
   185   94   95 1    
   186   94  215 1    
   187   95   96 1    
   188   95   97 1    
   189   95  216 1    
   190   96  217 1    
   191   96  218 1    
   192   96  219 1    
   193   97   98 2    
   194   97   99 am   BACKBONE|DICT|INTERRES
   195   99  100 1    
   196   99  220 1    
   197  100  101 1    
   198  100  102 1    
   199  100  221 1    
   200  101  222 1    
   201  101  223 1    
   202  101  224 1    
   203  102  103 2    
   204  102  104 am   BACKBONE|DICT|INTERRES
   205  104  105 1    
   206  104  225 1    
   207  105  106 1    
   208  105  107 1    
   209  105  226 1    
   210  106  227 1    
   211  106  228 1    
   212  106  229 1    
   213  107  108 2    
   214  107  109 am   BACKBONE|DICT|INTERRES
   215  109  110 1    
   216  109  230 1    
   217  110  111 1    
   218  110  112 1    
   219  110  231 1    
   220  111  232 1    
   221  111  233 1    
   222  111  234 1    
   223  112  113 2    
   224  112  114 am   BACKBONE|DICT|INTERRES
   225  114  115 1    
   226  114  235 1    
   227  115  116 1    
   228  115  117 1    
   229  115  236 1    
   230  116  237 1    
   231  116  238 1    
   232  116  239 1    
   233  117  118 2    
   234  117  119 am   BACKBONE|DICT|INTERRES
   235  119  120 1    
   236  119  240 1    
   237  120  121 1    
   238  120  124 1    
   239  120  241 1    
   240  121  122 am   BACKBONE|DICT|INTERRES
   241  121  123 2    
   242  122  242 1    
   243  122  243 1    
   244  124  125 1    
   245  124  244 1    
   246  124  245 1    
   247  125  126 1    
   248  126  246 1    
   249  126  247 1    
@<TRIPOS>SUBSTRUCTURE
     1 UNK         1 GROUP             0       ****    0 ROOT    
