@<TRIPOS>MOLECULE
3R540
247   249    1
SMALL
USER_CHARGES


@<TRIPOS>ATOM
      1 CA          2.4538  -12.3771  -47.3147 C.3       0 UNK        -0.1800 
      2 C           1.1230  -12.6752  -46.6413 C.2       0 UNK         0.5000 
      3 O           0.9687  -12.4078  -45.4506 O.2       0 UNK        -0.5000 
      4 N           0.1578  -13.2093  -47.4016 N.am      1 UNK        -0.5000 
      5 CA         -1.1663  -13.6541  -46.9373 C.3       1 UNK         0.1400 
      6 C6         -2.0090  -14.2767  -48.0795 C.3       23 UNK        -0.0398 
      7 S7         -1.1096  -15.5096  -49.0799 S.3       23 UNK        -0.2404 
      8 C8         -1.6798  -17.0691  -48.3448 C.3       23 UNK        -0.0205 
      9 C9         -1.2496  -18.2495  -49.1993 C.ar      23 UNK        -0.0193 
     10 C10        -2.1567  -18.8556  -50.0733 C.ar      23 UNK        -0.1150 
     11 C11        -1.7633  -19.9404  -50.8610 C.ar      23 UNK        -0.0193 
     12 C12        -0.4524  -20.4163  -50.7738 C.ar      23 UNK        -0.1150 
     13 C13         0.4639  -19.8173  -49.9053 C.ar      23 UNK        -0.0193 
     14 C14         0.0601  -18.7313  -49.1240 C.ar      23 UNK        -0.1150 
     15 C15         1.8838  -20.3526  -49.8092 C.3       23 UNK        -0.0205 
     16 S16         1.9160  -21.8961  -48.8559 S.3       23 UNK        -0.2404 
     17 C17         3.6704  -22.3729  -48.9596 C.3       23 UNK        -0.0398 
     18 CA          4.1581  -23.2374  -47.7698 C.3       11 UNK         0.1400 
     19 N           4.1683  -22.4880  -46.5049 N.am      11 UNK        -0.5000 
     20 C           5.0347  -22.7209  -45.5079 C.2       10 UNK         0.5000 
     21 O           5.9376  -23.5565  -45.5702 O.2       10 UNK        -0.5000 
     22 CA          4.8591  -21.9027  -44.2153 C.3       10 UNK         0.1400 
     23 CB          5.4618  -20.4982  -44.3721 C.3       10 UNK        -0.1800 
     24 N           3.4659  -21.7906  -43.7852 N.am      10 UNK        -0.5000 
     25 C           2.6929  -22.8128  -43.3907 C.2       9 UNK         0.5000 
     26 O           3.0731  -23.9822  -43.3399 O.2       9 UNK        -0.5000 
     27 CA          1.2349  -22.4759  -43.0235 C.3       9 UNK         0.1400 
     28 CB          1.1255  -22.0359  -41.5560 C.3       9 UNK        -0.1800 
     29 N           0.6655  -21.4461  -43.8940 N.am      9 UNK        -0.5000 
     30 C           0.4328  -21.6214  -45.2021 C.2       8 UNK         0.5000 
     31 O           0.6303  -22.6836  -45.7882 O.2       8 UNK        -0.5000 
     32 CA         -0.0592  -20.4017  -45.9936 C.3       8 UNK         0.1400 
     33 CB         -1.5883  -20.3057  -45.9546 C.3       8 UNK        -0.1800 
     34 N           0.5354  -19.1571  -45.5069 N.am      8 UNK        -0.5000 
     35 C           1.8007  -18.7856  -45.7573 C.2       7 UNK         0.5000 
     36 O           2.5814  -19.4367  -46.4509 O.2       7 UNK        -0.5000 
     37 CA          2.2908  -17.4863  -45.0881 C.3       7 UNK         0.1400 
     38 CB          1.8892  -16.2650  -45.9297 C.3       7 UNK        -0.1800 
     39 N           1.7824  -17.3198  -43.7258 N.am      7 UNK        -0.5000 
     40 C           2.0078  -18.1761  -42.7172 C.2       6 UNK         0.5000 
     41 O           2.7594  -19.1457  -42.8073 O.2       6 UNK        -0.5000 
     42 CA          1.2247  -17.9567  -41.4066 C.3       6 UNK         0.1400 
     43 CB          2.1053  -17.2388  -40.3729 C.3       6 UNK        -0.1800 
     44 N          -0.0224  -17.2063  -41.5706 N.am      6 UNK        -0.5000 
     45 C          -1.0456  -17.5208  -42.3808 C.2       5 UNK         0.5000 
     46 O          -1.0817  -18.5461  -43.0613 O.2       5 UNK        -0.5000 
     47 CA         -2.1934  -16.4932  -42.4878 C.3       5 UNK         0.1400 
     48 CB         -3.4406  -17.0009  -41.7480 C.3       5 UNK        -0.1800 
     49 N          -1.8349  -15.1657  -41.9723 N.am      5 UNK        -0.5000 
     50 C          -0.9308  -14.3468  -42.5291 C.2       4 UNK         0.5000 
     51 O          -0.3284  -14.6004  -43.5744 O.2       4 UNK        -0.5000 
     52 CA         -0.5716  -13.0953  -41.7202 C.3       4 UNK         0.1400 
     53 CB          0.5864  -13.4085  -40.7519 C.3       4 UNK        -0.1800 
     54 N          -0.2006  -12.0049  -42.6154 N.am      4 UNK        -0.5000 
     55 C          -0.1666  -10.7134  -42.2613 C.2       3 UNK         0.5000 
     56 O          -0.4228  -10.3072  -41.1268 O.2       3 UNK        -0.5000 
     57 CA          0.1799   -9.6968  -43.3596 C.3       3 UNK         0.1400 
     58 CB          1.6944   -9.6507  -43.6178 C.3       3 UNK        -0.1800 
     59 N          -0.5320  -10.0017  -44.5989 N.am      3 UNK        -0.5000 
     60 C          -1.7967   -9.6316  -44.8475 C.2       2 UNK         0.5000 
     61 O          -2.4685   -8.9438  -44.0776 O.2       2 UNK        -0.5000 
     62 CA         -2.4244  -10.0916  -46.1774 C.3       2 UNK         0.1400 
     63 CB         -2.3411   -8.9711  -47.2253 C.3       2 UNK        -0.1800 
     64 N          -1.7978  -11.2943  -46.7228 N.am      2 UNK        -0.5000 
     65 C          -1.9830  -12.5359  -46.2529 C.2       1 UNK         0.5000 
     66 O          -2.7489  -12.8115  -45.3290 O.2       1 UNK        -0.5000 
     67 C           3.3907  -24.5788  -47.6616 C.2       11 UNK         0.5000 
     68 O           3.5267  -25.4199  -48.5512 O.2       11 UNK        -0.5000 
     69 N           2.6107  -24.7466  -46.5827 N.am      12 UNK        -0.5000 
     70 CA          1.7175  -25.8646  -46.2699 C.3       12 UNK         0.1400 
     71 CB          2.5034  -27.1827  -46.1065 C.3       12 UNK        -0.1800 
     72 C           0.5344  -25.9648  -47.2558 C.2       12 UNK         0.5000 
     73 O           0.2433  -27.0462  -47.7716 O.2       12 UNK        -0.5000 
     74 N          -0.1289  -24.8268  -47.4888 N.am      13 UNK        -0.5000 
     75 CA         -1.3415  -24.6963  -48.2941 C.3       13 UNK         0.1400 
     76 CB         -1.1150  -23.6117  -49.3556 C.3       13 UNK        -0.1800 
     77 C          -2.5437  -24.3450  -47.3983 C.2       13 UNK         0.5000 
     78 O          -2.3754  -24.0218  -46.2202 O.2       13 UNK        -0.5000 
     79 N          -3.7491  -24.4311  -47.9742 N.am      14 UNK        -0.5000 
     80 CA         -5.0187  -24.2797  -47.2566 C.3       14 UNK         0.1400 
     81 CB         -6.0992  -25.0647  -48.0177 C.3       14 UNK        -0.1800 
     82 C          -5.4733  -22.8196  -47.0580 C.2       14 UNK         0.5000 
     83 O          -6.4056  -22.5927  -46.2863 O.2       14 UNK        -0.5000 
     84 N          -4.8567  -21.8722  -47.7832 N.am      15 UNK        -0.5000 
     85 CA         -5.2475  -20.4568  -47.9092 C.3       15 UNK         0.1400 
     86 CB         -5.1854  -19.7279  -46.5494 C.3       15 UNK        -0.1800 
     87 C          -6.6175  -20.2720  -48.6048 C.2       15 UNK         0.5000 
     88 O          -7.2990  -19.2718  -48.3744 O.2       15 UNK        -0.5000 
     89 N          -7.0071  -21.2514  -49.4325 N.am      16 UNK        -0.5000 
     90 CA         -8.3202  -21.3443  -50.0724 C.3       16 UNK         0.1400 
     91 CB         -8.5849  -22.8168  -50.4259 C.3       16 UNK        -0.1800 
     92 C          -8.4832  -20.4479  -51.3158 C.2       16 UNK         0.5000 
     93 O          -9.6081  -20.2875  -51.7916 O.2       16 UNK        -0.5000 
     94 N          -7.3819  -19.8899  -51.8297 N.am      17 UNK        -0.5000 
     95 CA         -7.3454  -19.0080  -52.9917 C.3       17 UNK         0.1400 
     96 CB         -7.2597  -19.8521  -54.2782 C.3       17 UNK        -0.1800 
     97 C          -6.1446  -18.0599  -52.8699 C.2       17 UNK         0.5000 
     98 O          -5.2964  -18.2516  -51.9958 O.2       17 UNK        -0.5000 
     99 N          -6.0899  -17.0603  -53.7587 N.am      18 UNK        -0.5000 
    100 CA        -4.9492  -16.1516  -53.9009 C.3       18 UNK         0.1400 
    101 CB        -5.4376  -14.8247  -54.5031 C.3       18 UNK        -0.1800 
    102 C         -3.8257  -16.7556  -54.7680 C.2       18 UNK         0.5000 
    103 O         -2.6639  -16.3835  -54.5987 O.2       18 UNK        -0.5000 
    104 N         -4.1876  -17.6654  -55.6844 N.am      19 UNK        -0.5000 
    105 CA        -3.2592  -18.4188  -56.5267 C.3       19 UNK         0.1400 
    106 CB        -4.0365  -19.0348  -57.7000 C.3       19 UNK        -0.1800 
    107 C         -2.5553  -19.5157  -55.7102 C.2       19 UNK         0.5000 
    108 O         -3.2028  -20.1543  -54.8801 O.2       19 UNK        -0.5000 
    109 N         -1.2564  -19.7142  -55.9679 N.am      20 UNK        -0.5000 
    110 CA        -0.3839  -20.6634  -55.2708 C.3       20 UNK         0.1400 
    111 CB         1.0503  -20.4847  -55.7946 C.3       20 UNK        -0.1800 
    112 C         -0.8241  -22.1369  -55.4017 C.2       20 UNK         0.5000 
    113 O         -1.5019  -22.4979  -56.3668 O.2       20 UNK        -0.5000 
    114 N         -0.3905  -22.9569  -54.4309 N.am      21 UNK        -0.5000 
    115 CA        -0.6887  -24.3888  -54.2795 C.3       21 UNK         0.1400 
    116 CB        -0.0852  -25.2103  -55.4388 C.3       21 UNK        -0.1800 
    117 C         -2.1920  -24.6620  -54.0528 C.2       21 UNK         0.5000 
    118 O         -2.7513  -25.6048  -54.6153 O.2       21 UNK        -0.5000 
    119 N         -2.8149  -23.8147  -53.2249 N.am      22 UNK        -0.5000 
    120 CA        -4.2448  -23.8447  -52.8800 C.3       22 UNK         0.1400 
    121 C         -4.6673  -24.9528  -51.8693 C.2       22 UNK         0.5000 
    122 N         -3.7483  -25.7012  -51.2689 N.am      22 UNK        -0.7600 
    123 O         -5.8563  -25.1469  -51.6375 O.2       22 UNK        -0.5000 
    124 C124       -4.7472  -22.4402  -52.4542 C.3       23 UNK        -0.0398 
    125 S125       -3.8678  -21.7436  -51.0117 S.3       23 UNK        -0.2404 
    126 C126       -2.7432  -20.5744  -51.8306 C.3       23 UNK        -0.0205 
    127 H127        2.4409  -12.6384  -48.3730 H         1 UNK         0.0600 
    128 H128        3.2498  -12.9447  -46.8332 H         1 UNK         0.0600 
    129 H129        2.6886  -11.3165  -47.2273 H         1 UNK         0.0600 
    130 H130        0.3537  -13.4118  -48.3719 H         1 UNK         0.3000 
    131 H131       -0.9929  -14.4284  -46.1879 H         1 UNK         0.0600 
    132 H132       -2.9173  -14.7296  -47.6780 H         1 UNK         0.0800 
    133 H133       -2.3445  -13.4994  -48.7689 H         1 UNK         0.0800 
    134 H134       -1.2709  -17.1673  -47.3381 H         1 UNK         0.0800 
    135 H135       -2.7661  -17.0572  -48.2430 H         1 UNK         0.0800 
    136 H136       -3.1679  -18.4805  -50.1504 H         1 UNK         0.1150 
    137 H137       -0.1423  -21.2587  -51.3748 H         1 UNK         0.1150 
    138 H138        0.7643  -18.2600  -48.4541 H         1 UNK         0.1150 
    139 H139        2.2795  -20.5304  -50.8101 H         1 UNK         0.0800 
    140 H140        2.5397  -19.6211  -49.3344 H         1 UNK         0.0800 
    141 H141        3.8232  -22.9047  -49.9002 H         1 UNK         0.0800 
    142 H142        4.2803  -21.4708  -49.0248 H         1 UNK         0.0800 
    143 H143        5.1899  -23.5092  -48.0038 H         1 UNK         0.0600 
    144 H144        3.4628  -21.7695  -46.3985 H         1 UNK         0.3000 
    145 H145        5.4071  -22.4169  -43.4230 H         1 UNK         0.0600 
    146 H146        5.4252  -19.9469  -43.4322 H         1 UNK         0.0600 
    147 H147        4.9309  -19.9127  -45.1231 H         1 UNK         0.0600 
    148 H148        6.5078  -20.5528  -44.6763 H         1 UNK         0.0600 
    149 H149        3.0883  -20.8499  -43.7221 H         1 UNK         0.3000 
    150 H150        0.6405  -23.3836  -43.1492 H         1 UNK         0.0600 
    151 H151        1.4361  -22.8405  -40.8886 H         1 UNK         0.0600 
    152 H152        0.1001  -21.7734  -41.2946 H         1 UNK         0.0600 
    153 H153        1.7602  -21.1764  -41.3422 H         1 UNK         0.0600 
    154 H154        0.4757  -20.5423  -43.4852 H         1 UNK         0.3000 
    155 H155        0.2316  -20.5422  -47.0330 H         1 UNK         0.0600 
    156 H156       -2.0412  -21.1979  -46.3887 H         1 UNK         0.0600 
    157 H157       -1.9443  -19.4514  -46.5286 H         1 UNK         0.0600 
    158 H158       -1.9647  -20.2105  -44.9361 H         1 UNK         0.0600 
    159 H159       -0.0227  -18.6162  -44.8569 H         1 UNK         0.3000 
    160 H160        3.3809  -17.5282  -45.0367 H         1 UNK         0.0600 
    161 H161        0.8055  -16.1566  -45.9910 H         1 UNK         0.0600 
    162 H162        2.2689  -16.3470  -46.9490 H         1 UNK         0.0600 
    163 H163        2.2914  -15.3453  -45.5047 H         1 UNK         0.0600 
    164 H164        1.1536  -16.5425  -43.5705 H         1 UNK         0.3000 
    165 H165        0.9621  -18.9400  -41.0122 H         1 UNK         0.0600 
    166 H166        1.5973  -17.1529  -39.4120 H         1 UNK         0.0600 
    167 H167        3.0326  -17.7879  -40.2001 H         1 UNK         0.0600 
    168 H168        2.3752  -16.2343  -40.7028 H         1 UNK         0.0600 
    169 H169       -0.0929  -16.3455  -41.0505 H         1 UNK         0.3000 
    170 H170       -2.4397  -16.3909  -43.5470 H         1 UNK         0.0600 
    171 H171       -3.7521  -17.9748  -42.1292 H         1 UNK         0.0600 
    172 H172       -3.2575  -17.1108  -40.6783 H         1 UNK         0.0600 
    173 H173       -4.2819  -16.3191  -41.8782 H         1 UNK         0.0600 
    174 H174       -2.2771  -14.8915  -41.1060 H         1 UNK         0.3000 
    175 H175       -1.4516  -12.7935  -41.1480 H         1 UNK         0.0600 
    176 H176        1.4917  -13.6909  -41.2911 H         1 UNK         0.0600 
    177 H177        0.8274  -12.5514  -40.1232 H         1 UNK         0.0600 
    178 H178        0.3307  -14.2312  -40.0835 H         1 UNK         0.0600 
    179 H179        0.0308  -12.2811  -43.5667 H         1 UNK         0.3000 
    180 H180       -0.1222   -8.7072  -43.0101 H         1 UNK         0.0600 
    181 H181        2.2304   -9.3511  -42.7164 H         1 UNK         0.0600 
    182 H182        1.9397   -8.9291  -44.3968 H         1 UNK         0.0600 
    183 H183        2.0895  -10.6196  -43.9219 H         1 UNK         0.0600 
    184 H184       -0.0682  -10.6380  -45.2363 H         1 UNK         0.3000 
    185 H185       -3.4788  -10.3045  -45.9888 H         1 UNK         0.0600 
    186 H186       -2.8268   -8.0631  -46.8655 H         1 UNK         0.0600 
    187 H187       -1.3072   -8.7178  -47.4631 H         1 UNK         0.0600 
    188 H188       -2.8388   -9.2587  -48.1516 H         1 UNK         0.0600 
    189 H189       -1.1459  -11.1628  -47.4826 H         1 UNK         0.3000 
    190 H190        2.5327  -23.9593  -45.9530 H         1 UNK         0.3000 
    191 H191        1.2788  -25.6292  -45.2991 H         1 UNK         0.0600 
    192 H192        1.8543  -27.9779  -45.7380 H         1 UNK         0.0600 
    193 H193        3.3161  -27.0689  -45.3891 H         1 UNK         0.0600 
    194 H194        2.9318  -27.5239  -47.0491 H         1 UNK         0.0600 
    195 H195        0.1381  -23.9978  -46.9591 H         1 UNK         0.3000 
    196 H196       -1.5632  -25.6369  -48.8021 H         1 UNK         0.0600 
    197 H197       -1.0419  -22.6193  -48.9084 H         1 UNK         0.0600 
    198 H198       -0.2013  -23.7961  -49.9205 H         1 UNK         0.0600 
    199 H199       -1.9319  -23.5950  -50.0737 H         1 UNK         0.0600 
    200 H200       -3.8129  -24.6862  -48.9499 H         1 UNK         0.3000 
    201 H201       -4.9179  -24.7247  -46.2643 H         1 UNK         0.0600 
    202 H202       -7.0519  -25.0379  -47.4872 H         1 UNK         0.0600 
    203 H203       -5.8227  -26.1130  -48.1314 H         1 UNK         0.0600 
    204 H204       -6.2688  -24.6521  -49.0122 H         1 UNK         0.0600 
    205 H205       -4.1038  -22.1674  -48.3894 H         1 UNK         0.3000 
    206 H206       -4.5054  -19.9957  -48.5617 H         1 UNK         0.0600 
    207 H207       -4.2760  -19.9680  -46.0042 H         1 UNK         0.0600 
    208 H208       -5.2077  -18.6463  -46.6878 H         1 UNK         0.0600 
    209 H209       -6.0289  -19.9901  -45.9100 H         1 UNK         0.0600 
    210 H210       -6.3765  -22.0247  -49.5817 H         1 UNK         0.3000 
    211 H211       -9.0779  -21.0315  -49.3506 H         1 UNK         0.0600 
    212 H212       -7.8560  -23.1992  -51.1406 H         1 UNK         0.0600 
    213 H213       -9.5739  -22.9427  -50.8684 H         1 UNK         0.0600 
    214 H214       -8.5471  -23.4486  -49.5382 H         1 UNK         0.0600 
    215 H215       -6.4964  -19.9912  -51.3501 H         1 UNK         0.3000 
    216 H216       -8.2508  -18.3976  -53.0131 H         1 UNK         0.0600 
    217 H217       -8.0833  -20.5635  -54.3425 H         1 UNK         0.0600 
    218 H218       -6.3273  -20.4149  -54.3285 H         1 UNK         0.0600 
    219 H219       -7.3100  -19.2237  -55.1678 H         1 UNK         0.0600 
    220 H220       -6.8431  -16.9468  -54.4219 H         1 UNK         0.3000 
    221 H221       -4.5306  -15.9410  -52.9140 H         1 UNK         0.0600 
    222 H222       -4.6156  -14.1138  -54.5987 H         1 UNK         0.0600 
    223 H223       -5.8669  -14.9652  -55.4958 H         1 UNK         0.0600 
    224 H224       -6.1953  -14.3605  -53.8713 H         1 UNK         0.0600 
    225 H225       -5.1551  -17.9447  -55.7256 H         1 UNK         0.3000 
    226 H226       -2.5111  -17.7307  -56.9268 H         1 UNK         0.0600 
    227 H227       -4.5211  -18.2649  -58.3008 H         1 UNK         0.0600 
    228 H228       -3.3695  -19.5911  -58.3601 H         1 UNK         0.0600 
    229 H229       -4.8063  -19.7263  -57.3541 H         1 UNK         0.0600 
    230 H230       -0.8197  -19.1670  -56.6948 H         1 UNK         0.3000 
    231 H231       -0.3997  -20.3974  -54.2119 H         1 UNK         0.0600 
    232 H232        1.7464  -21.1436  -55.2738 H         1 UNK         0.0600 
    233 H233        1.4018  -19.4634  -55.6448 H         1 UNK         0.0600 
    234 H234        1.1195  -20.7117  -56.8594 H         1 UNK         0.0600 
    235 H235        0.1971  -22.5659  -53.7084 H         1 UNK         0.3000 
    236 H236       -0.1870  -24.7077  -53.3646 H         1 UNK         0.0600 
    237 H237       -0.5800  -25.0023  -56.3877 H         1 UNK         0.0600 
    238 H238        0.9770  -24.9984  -55.5610 H         1 UNK         0.0600 
    239 H239       -0.1821  -26.2801  -55.2497 H         1 UNK         0.0600 
    240 H240       -2.2815  -23.0741  -52.7979 H         1 UNK         0.3000 
    241 H241       -4.7807  -24.0932  -53.7980 H         1 UNK         0.0600 
    242 H242       -4.0490  -26.4609  -50.6793 H         1 UNK         0.3800 
    243 H243       -2.7762  -25.6032  -51.5100 H         1 UNK         0.3800 
    244 H244       -4.6469  -21.7534  -53.2946 H         1 UNK         0.0800 
    245 H245       -5.8147  -22.4639  -52.2329 H         1 UNK         0.0800 
    246 H246       -3.3227  -19.7925  -52.3185 H         1 UNK         0.0800 
    247 H247       -2.1997  -21.0884  -52.6219 H         1 UNK         0.0800 
@<TRIPOS>BOND
     1    1    2 1    
     2    1  127 1    
     3    1  128 1    
     4    1  129 1    
     5    2    3 2    
     6    2    4 am   BACKBONE|DICT|INTERRES
     7    4    5 1    
     8    4  130 1    
     9    5    6 1    
    10    5   65 1    
    11    5  131 1    
    12    6    7 1    
    13    6  132 1    
    14    6  133 1    
    15    7    8 1    
    16    8    9 1    
    17    8  134 1    
    18    8  135 1    
    19    9   10 ar   
    20    9   14 ar   
    21   10   11 ar   
    22   10  136 1    
    23   11   12 ar   
    24   11  126 1    
    25   12   13 ar   
    26   12  137 1    
    27   13   14 ar   
    28   13   15 1    
    29   14  138 1    
    30   15   16 1    
    31   15  139 1    
    32   15  140 1    
    33   16   17 1    
    34   17   18 1    
    35   17  141 1    
    36   17  142 1    
    37   18   19 1    
    38   18   67 1    
    39   18  143 1    
    40   19   20 am   BACKBONE|DICT|INTERRES
    41   19  144 1    
    42   20   21 2    
    43   20   22 1    
    44   22   23 1    
    45   22   24 1    
    46   22  145 1    
    47   23  146 1    
    48   23  147 1    
    49   23  148 1    
    50   24   25 am   BACKBONE|DICT|INTERRES
    51   24  149 1    
    52   25   26 2    
    53   25   27 1    
    54   27   28 1    
    55   27   29 1    
    56   27  150 1    
    57   28  151 1    
    58   28  152 1    
    59   28  153 1    
    60   29   30 am   BACKBONE|DICT|INTERRES
    61   29  154 1    
    62   30   31 2    
    63   30   32 1    
    64   32   33 1    
    65   32   34 1    
    66   32  155 1    
    67   33  156 1    
    68   33  157 1    
    69   33  158 1    
    70   34   35 am   BACKBONE|DICT|INTERRES
    71   34  159 1    
    72   35   36 2    
    73   35   37 1    
    74   37   38 1    
    75   37   39 1    
    76   37  160 1    
    77   38  161 1    
    78   38  162 1    
    79   38  163 1    
    80   39   40 am   BACKBONE|DICT|INTERRES
    81   39  164 1    
    82   40   41 2    
    83   40   42 1    
    84   42   43 1    
    85   42   44 1    
    86   42  165 1    
    87   43  166 1    
    88   43  167 1    
    89   43  168 1    
    90   44   45 am   BACKBONE|DICT|INTERRES
    91   44  169 1    
    92   45   46 2    
    93   45   47 1    
    94   47   48 1    
    95   47   49 1    
    96   47  170 1    
    97   48  171 1    
    98   48  172 1    
    99   48  173 1    
   100   49   50 am   BACKBONE|DICT|INTERRES
   101   49  174 1    
   102   50   51 2    
   103   50   52 1    
   104   52   53 1    
   105   52   54 1    
   106   52  175 1    
   107   53  176 1    
   108   53  177 1    
   109   53  178 1    
   110   54   55 am   BACKBONE|DICT|INTERRES
   111   54  179 1    
   112   55   56 2    
   113   55   57 1    
   114   57   58 1    
   115   57   59 1    
   116   57  180 1    
   117   58  181 1    
   118   58  182 1    
   119   58  183 1    
   120   59   60 am   BACKBONE|DICT|INTERRES
   121   59  184 1    
   122   60   61 2    
   123   60   62 1    
   124   62   63 1    
   125   62   64 1    
   126   62  185 1    
   127   63  186 1    
   128   63  187 1    
   129   63  188 1    
   130   64   65 am   BACKBONE|DICT|INTERRES
   131   64  189 1    
   132   65   66 2    
   133   67   68 2    
   134   67   69 am   BACKBONE|DICT|INTERRES
   135   69   70 1    
   136   69  190 1    
   137   70   71 1    
   138   70   72 1    
   139   70  191 1    
   140   71  192 1    
   141   71  193 1    
   142   71  194 1    
   143   72   73 2    
   144   72   74 am   BACKBONE|DICT|INTERRES
   145   74   75 1    
   146   74  195 1    
   147   75   76 1    
   148   75   77 1    
   149   75  196 1    
   150   76  197 1    
   151   76  198 1    
   152   76  199 1    
   153   77   78 2    
   154   77   79 am   BACKBONE|DICT|INTERRES
   155   79   80 1    
   156   79  200 1    
   157   80   81 1    
   158   80   82 1    
   159   80  201 1    
   160   81  202 1    
   161   81  203 1    
   162   81  204 1    
   163   82   83 2    
   164   82   84 am   BACKBONE|DICT|INTERRES
   165   84   85 1    
   166   84  205 1    
   167   85   86 1    
   168   85   87 1    
   169   85  206 1    
   170   86  207 1    
   171   86  208 1    
   172   86  209 1    
   173   87   88 2    
   174   87   89 am   BACKBONE|DICT|INTERRES
   175   89   90 1    
   176   89  210 1    
   177   90   91 1    
   178   90   92 1    
   179   90  211 1    
   180   91  212 1    
   181   91  213 1    
   182   91  214 1    
   183   92   93 2    
   184   92   94 am   BACKBONE|DICT|INTERRES
   185   94   95 1    
   186   94  215 1    
   187   95   96 1    
   188   95   97 1    
   189   95  216 1    
   190   96  217 1    
   191   96  218 1    
   192   96  219 1    
   193   97   98 2    
   194   97   99 am   BACKBONE|DICT|INTERRES
   195   99  100 1    
   196   99  220 1    
   197  100  101 1    
   198  100  102 1    
   199  100  221 1    
   200  101  222 1    
   201  101  223 1    
   202  101  224 1    
   203  102  103 2    
   204  102  104 am   BACKBONE|DICT|INTERRES
   205  104  105 1    
   206  104  225 1    
   207  105  106 1    
   208  105  107 1    
   209  105  226 1    
   210  106  227 1    
   211  106  228 1    
   212  106  229 1    
   213  107  108 2    
   214  107  109 am   BACKBONE|DICT|INTERRES
   215  109  110 1    
   216  109  230 1    
   217  110  111 1    
   218  110  112 1    
   219  110  231 1    
   220  111  232 1    
   221  111  233 1    
   222  111  234 1    
   223  112  113 2    
   224  112  114 am   BACKBONE|DICT|INTERRES
   225  114  115 1    
   226  114  235 1    
   227  115  116 1    
   228  115  117 1    
   229  115  236 1    
   230  116  237 1    
   231  116  238 1    
   232  116  239 1    
   233  117  118 2    
   234  117  119 am   BACKBONE|DICT|INTERRES
   235  119  120 1    
   236  119  240 1    
   237  120  121 1    
   238  120  124 1    
   239  120  241 1    
   240  121  122 am   BACKBONE|DICT|INTERRES
   241  121  123 2    
   242  122  242 1    
   243  122  243 1    
   244  124  125 1    
   245  124  244 1    
   246  124  245 1    
   247  125  126 1    
   248  126  246 1    
   249  126  247 1    
@<TRIPOS>SUBSTRUCTURE
     1 UNK         1 GROUP             0       ****    0 ROOT    
