@<TRIPOS>MOLECULE
3R540
247   249    1
SMALL
USER_CHARGES


@<TRIPOS>ATOM
      1 CA          2.3628  -16.4235  -46.4929 C.3       0 UNK        -0.1800 
      2 C           3.4971  -15.7145  -45.7578 C.2       0 UNK         0.5000 
      3 O           3.6651  -15.9209  -44.5587 O.2       0 UNK        -0.5000 
      4 N           4.2985  -14.8697  -46.4190 N.am      1 UNK        -0.5000 
      5 CA          4.2345  -14.5149  -47.8442 C.3       1 UNK         0.1400 
      6 C6          5.5974  -14.7071  -48.5580 C.3       23 UNK        -0.0398 
      7 S7          6.2171  -16.4245  -48.4906 S.3       23 UNK        -0.2404 
      8 C8          5.7729  -17.0616  -50.1397 C.3       23 UNK        -0.0205 
      9 C9          4.3791  -17.6709  -50.1511 C.ar      23 UNK        -0.0193 
     10 C10         3.2565  -16.8770  -50.3969 C.ar      23 UNK        -0.1150 
     11 C11         1.9764  -17.4356  -50.3754 C.ar      23 UNK        -0.0193 
     12 C12         1.8284  -18.8085  -50.1501 C.ar      23 UNK        -0.1150 
     13 C13         2.9472  -19.6290  -49.9429 C.ar      23 UNK        -0.0193 
     14 C14         4.2152  -19.0404  -49.9262 C.ar      23 UNK        -0.1150 
     15 C15         2.8617  -21.1469  -49.7452 C.3       23 UNK        -0.0205 
     16 S16         1.2259  -21.9120  -50.0300 S.3       23 UNK        -0.2404 
     17 C17         0.3684  -21.4939  -48.4808 C.3       23 UNK        -0.0398 
     18 CA         -0.0939  -22.7362  -47.6776 C.3       11 UNK         0.1400 
     19 N           0.0834  -22.5157  -46.2401 N.am      11 UNK        -0.5000 
     20 C          -0.0150  -23.4480  -45.2826 C.2       10 UNK         0.5000 
     21 O          -0.3760  -24.6026  -45.5040 O.2       10 UNK        -0.5000 
     22 CA          0.3056  -23.0079  -43.8381 C.3       10 UNK         0.1400 
     23 CB          0.9371  -24.1388  -43.0011 C.3       10 UNK        -0.1800 
     24 N           1.1089  -21.7807  -43.7732 N.am      10 UNK        -0.5000 
     25 C           2.3590  -21.5885  -44.2281 C.2       9 UNK         0.5000 
     26 O           3.0666  -22.4879  -44.6819 O.2       9 UNK        -0.5000 
     27 CA          2.8952  -20.1420  -44.2255 C.3       9 UNK         0.1400 
     28 CB          3.3099  -19.7138  -45.6445 C.3       9 UNK        -0.1800 
     29 N           1.9064  -19.1876  -43.7182 N.am      9 UNK        -0.5000 
     30 C           1.7995  -18.7988  -42.4403 C.2       8 UNK         0.5000 
     31 O           2.5860  -19.1339  -41.5542 O.2       8 UNK        -0.5000 
     32 CA          0.5790  -17.9281  -42.0801 C.3       8 UNK         0.1400 
     33 CB          0.9527  -16.4385  -42.0966 C.3       8 UNK        -0.1800 
     34 N          -0.5714  -18.1593  -42.9620 N.am      8 UNK        -0.5000 
     35 C          -1.3024  -19.2863  -42.9662 C.2       7 UNK         0.5000 
     36 O          -1.0734  -20.2386  -42.2218 O.2       7 UNK        -0.5000 
     37 CA         -2.4446  -19.4124  -43.9959 C.3       7 UNK         0.1400 
     38 CB         -3.7975  -19.0686  -43.3567 C.3       7 UNK        -0.1800 
     39 N          -2.2609  -18.5855  -45.1859 N.am      7 UNK        -0.5000 
     40 C          -1.2741  -18.7253  -46.0797 C.2       6 UNK         0.5000 
     41 O          -0.4321  -19.6234  -46.0287 O.2       6 UNK        -0.5000 
     42 CA         -1.1965  -17.6556  -47.1864 C.3       6 UNK         0.1400 
     43 CB         -1.9137  -18.1425  -48.4558 C.3       6 UNK        -0.1800 
     44 N          -1.7450  -16.3476  -46.7991 N.am      6 UNK        -0.5000 
     45 C          -1.3203  -15.5904  -45.7746 C.2       5 UNK         0.5000 
     46 O          -0.4928  -15.9793  -44.9524 O.2       5 UNK        -0.5000 
     47 CA         -1.9067  -14.1735  -45.6515 C.3       5 UNK         0.1400 
     48 CB         -0.9589  -13.2058  -44.9182 C.3       5 UNK        -0.1800 
     49 N          -2.2106  -13.6464  -46.9761 N.am      5 UNK        -0.5000 
     50 C          -3.2315  -12.8488  -47.2962 C.2       4 UNK         0.5000 
     51 O          -4.0329  -12.3986  -46.4747 O.2       4 UNK        -0.5000 
     52 CA         -3.3613  -12.4998  -48.7952 C.3       4 UNK         0.1400 
     53 CB         -4.6101  -11.6546  -49.1052 C.3       4 UNK        -0.1800 
     54 N          -2.1835  -11.7987  -49.3066 N.am      4 UNK        -0.5000 
     55 C          -0.9863  -12.3434  -49.5587 C.2       3 UNK         0.5000 
     56 O          -0.7409  -13.5439  -49.4195 O.2       3 UNK        -0.5000 
     57 CA          0.1410  -11.3965  -50.0180 C.3       3 UNK         0.1400 
     58 CB         -0.3243   -9.9601  -50.3488 C.3       3 UNK        -0.1800 
     59 N           1.2403  -11.3693  -49.0505 N.am      3 UNK        -0.5000 
     60 C           1.1899  -11.0336  -47.7538 C.2       2 UNK         0.5000 
     61 O           0.1653  -10.6565  -47.1829 O.2       2 UNK        -0.5000 
     62 CA          2.5181  -11.1464  -46.9702 C.3       2 UNK         0.1400 
     63 CB          2.3809  -10.7045  -45.5016 C.3       2 UNK        -0.1800 
     64 N           3.0853  -12.4981  -46.9972 N.am      2 UNK        -0.5000 
     65 C           3.6946  -13.0811  -48.0398 C.2       1 UNK         0.5000 
     66 O           3.8287  -12.5259  -49.1316 O.2       1 UNK        -0.5000 
     67 C          -1.5494  -23.1110  -48.0234 C.2       11 UNK         0.5000 
     68 O          -1.7910  -23.9055  -48.9361 O.2       11 UNK        -0.5000 
     69 N          -2.4928  -22.5268  -47.2718 N.am      12 UNK        -0.5000 
     70 CA         -3.9202  -22.8205  -47.3416 C.3       12 UNK         0.1400 
     71 CB         -4.6938  -21.7471  -46.5601 C.3       12 UNK        -0.1800 
     72 C          -4.2331  -24.2312  -46.8118 C.2       12 UNK         0.5000 
     73 O          -4.9377  -24.9879  -47.4783 O.2       12 UNK        -0.5000 
     74 N          -3.6651  -24.5643  -45.6434 N.am      13 UNK        -0.5000 
     75 CA         -3.8360  -25.8453  -44.9527 C.3       13 UNK         0.1400 
     76 CB         -3.2693  -25.7297  -43.5291 C.3       13 UNK        -0.1800 
     77 C          -3.1905  -27.0264  -45.6996 C.2       13 UNK         0.5000 
     78 O          -3.7630  -28.1160  -45.7279 O.2       13 UNK        -0.5000 
     79 N          -2.0291  -26.7781  -46.3192 N.am      14 UNK        -0.5000 
     80 CA         -1.2994  -27.7262  -47.1639 C.3       14 UNK         0.1400 
     81 CB          0.1291  -27.1967  -47.3716 C.3       14 UNK        -0.1800 
     82 C          -1.9702  -27.9851  -48.5286 C.2       14 UNK         0.5000 
     83 O          -1.5488  -28.9003  -49.2365 O.2       14 UNK        -0.5000 
     84 N          -2.9705  -27.1633  -48.8841 N.am      15 UNK        -0.5000 
     85 CA         -3.7037  -27.1429  -50.1541 C.3       15 UNK         0.1400 
     86 CB         -4.4729  -28.4600  -50.3841 C.3       15 UNK        -0.1800 
     87 C          -2.8293  -26.7338  -51.3587 C.2       15 UNK         0.5000 
     88 O          -3.1743  -27.0409  -52.5005 O.2       15 UNK        -0.5000 
     89 N          -1.7238  -26.0286  -51.0845 N.am      16 UNK        -0.5000 
     90 CA         -0.8217  -25.4668  -52.0857 C.3       16 UNK         0.1400 
     91 CB          0.5637  -25.2564  -51.4573 C.3       16 UNK        -0.1800 
     92 C          -1.3996  -24.1615  -52.6553 C.2       16 UNK         0.5000 
     93 O          -1.4831  -24.0121  -53.8748 O.2       16 UNK        -0.5000 
     94 N          -1.8424  -23.2714  -51.7573 N.am      17 UNK        -0.5000 
     95 CA         -2.6543  -22.1022  -52.0948 C.3       17 UNK         0.1400 
     96 CB         -2.3662  -20.9644  -51.1042 C.3       17 UNK        -0.1800 
     97 C          -4.1516  -22.4502  -52.0696 C.2       17 UNK         0.5000 
     98 O          -4.9136  -21.9088  -52.8691 O.2       17 UNK        -0.5000 
     99 N          -4.5385  -23.3326  -51.1326 N.am      18 UNK        -0.5000 
    100 CA        -5.8973  -23.8266  -50.8575 C.3       18 UNK         0.1400 
    101 CB        -6.4555  -24.6027  -52.0672 C.3       18 UNK        -0.1800 
    102 C         -6.8909  -22.7657  -50.3319 C.2       18 UNK         0.5000 
    103 O         -8.0610  -23.0868  -50.1207 O.2       18 UNK        -0.5000 
    104 N         -6.4134  -21.5419  -50.0876 N.am      19 UNK        -0.5000 
    105 CA        -7.1463  -20.4159  -49.5290 C.3       19 UNK         0.1400 
    106 CB        -8.0426  -19.7733  -50.6025 C.3       19 UNK        -0.1800 
    107 C         -6.1151  -19.4077  -49.0136 C.2       19 UNK         0.5000 
    108 O         -5.0113  -19.3316  -49.5609 O.2       19 UNK        -0.5000 
    109 N         -6.4955  -18.6311  -47.9911 N.am      20 UNK        -0.5000 
    110 CA        -5.6517  -17.6105  -47.3589 C.3       20 UNK         0.1400 
    111 CB        -6.3492  -17.0848  -46.0965 C.3       20 UNK        -0.1800 
    112 C         -5.2738  -16.4433  -48.2926 C.2       20 UNK         0.5000 
    113 O         -4.2661  -15.7818  -48.0517 O.2       20 UNK        -0.5000 
    114 N         -6.0652  -16.2339  -49.3526 N.am      21 UNK        -0.5000 
    115 CA        -5.8746  -15.2089  -50.3790 C.3       21 UNK         0.1400 
    116 CB        -7.1534  -15.1319  -51.2282 C.3       21 UNK        -0.1800 
    117 C         -4.6397  -15.4141  -51.2836 C.2       21 UNK         0.5000 
    118 O         -4.2950  -14.4935  -52.0245 O.2       21 UNK        -0.5000 
    119 N         -4.0073  -16.5959  -51.2261 N.am      22 UNK        -0.5000 
    120 CA        -2.8734  -17.0037  -52.0773 C.3       22 UNK         0.1400 
    121 C         -3.2813  -17.3633  -53.5423 C.2       22 UNK         0.5000 
    122 N         -4.5535  -17.6166  -53.8269 N.am      22 UNK        -0.7600 
    123 O         -2.4430  -17.4373  -54.4357 O.2       22 UNK        -0.5000 
    124 C124       -1.6541  -16.0355  -51.9849 C.3       23 UNK        -0.0398 
    125 S125       -0.0509  -16.8930  -52.1780 S.3       23 UNK        -0.2404 
    126 C126        0.7501  -16.5581  -50.5804 C.3       23 UNK        -0.0205 
    127 H127        2.7534  -17.0690  -47.2802 H         1 UNK         0.0600 
    128 H128        1.7972  -17.0486  -45.8030 H         1 UNK         0.0600 
    129 H129        1.6735  -15.7027  -46.9329 H         1 UNK         0.0600 
    130 H130        5.0446  -14.4224  -45.9050 H         1 UNK         0.3000 
    131 H131        3.5155  -15.1477  -48.3573 H         1 UNK         0.0600 
    132 H132        6.3523  -14.0632  -48.1037 H         1 UNK         0.0800 
    133 H133        5.5381  -14.3999  -49.6033 H         1 UNK         0.0800 
    134 H134        5.8538  -16.2773  -50.8934 H         1 UNK         0.0800 
    135 H135        6.5050  -17.8192  -50.4233 H         1 UNK         0.0800 
    136 H136        3.3793  -15.8206  -50.5896 H         1 UNK         0.1150 
    137 H137        0.8334  -19.2252  -50.1605 H         1 UNK         0.1150 
    138 H138        5.0858  -19.6571  -49.7500 H         1 UNK         0.1150 
    139 H139        3.5618  -21.6191  -50.4361 H         1 UNK         0.0800 
    140 H140        3.2100  -21.3997  -48.7424 H         1 UNK         0.0800 
    141 H141        1.0473  -20.8857  -47.8824 H         1 UNK         0.0800 
    142 H142       -0.4650  -20.8332  -48.7111 H         1 UNK         0.0800 
    143 H143        0.5339  -23.5900  -47.9415 H         1 UNK         0.0600 
    144 H144        0.2998  -21.5648  -45.9639 H         1 UNK         0.3000 
    145 H145       -0.6545  -22.7634  -43.3823 H         1 UNK         0.0600 
    146 H146        1.1594  -23.8024  -41.9884 H         1 UNK         0.0600 
    147 H147        0.2594  -24.9890  -42.9175 H         1 UNK         0.0600 
    148 H148        1.8627  -24.5060  -43.4448 H         1 UNK         0.0600 
    149 H149        0.6281  -20.9821  -43.3792 H         1 UNK         0.3000 
    150 H150        3.7865  -20.1298  -43.5951 H         1 UNK         0.0600 
    151 H151        4.0019  -20.4280  -46.0926 H         1 UNK         0.0600 
    152 H152        3.8209  -18.7523  -45.6246 H         1 UNK         0.0600 
    153 H153        2.4508  -19.6271  -46.3104 H         1 UNK         0.0600 
    154 H154        1.2025  -18.8790  -44.3750 H         1 UNK         0.3000 
    155 H155        0.2788  -18.1870  -41.0624 H         1 UNK         0.0600 
    156 H156        0.0974  -15.8107  -41.8464 H         1 UNK         0.0600 
    157 H157        1.3237  -16.1274  -43.0734 H         1 UNK         0.0600 
    158 H158        1.7380  -16.2268  -41.3701 H         1 UNK         0.0600 
    159 H159       -0.7701  -17.4263  -43.6366 H         1 UNK         0.3000 
    160 H160       -2.4759  -20.4555  -44.3168 H         1 UNK         0.0600 
    161 H161       -3.8400  -18.0254  -43.0411 H         1 UNK         0.0600 
    162 H162       -3.9828  -19.6862  -42.4768 H         1 UNK         0.0600 
    163 H163       -4.6181  -19.2435  -44.0530 H         1 UNK         0.0600 
    164 H164       -2.8823  -17.7980  -45.2899 H         1 UNK         0.3000 
    165 H165       -0.1432  -17.5034  -47.4253 H         1 UNK         0.0600 
    166 H166       -2.8374  -18.6720  -48.2284 H         1 UNK         0.0600 
    167 H167       -2.1617  -17.3167  -49.1212 H         1 UNK         0.0600 
    168 H168       -1.2839  -18.8218  -49.0249 H         1 UNK         0.0600 
    169 H169       -2.5005  -15.9856  -47.3767 H         1 UNK         0.3000 
    170 H170       -2.8294  -14.2679  -45.0758 H         1 UNK         0.0600 
    171 H171       -0.7601  -13.5424  -43.9000 H         1 UNK         0.0600 
    172 H172       -0.0009  -13.1246  -45.4329 H         1 UNK         0.0600 
    173 H173       -1.3870  -12.2054  -44.8518 H         1 UNK         0.0600 
    174 H174       -1.5859  -13.9287  -47.7271 H         1 UNK         0.3000 
    175 H175       -3.4554  -13.4442  -49.3334 H         1 UNK         0.0600 
    176 H176       -4.7340  -11.5167  -50.1796 H         1 UNK         0.0600 
    177 H177       -5.5151  -12.1372  -48.7345 H         1 UNK         0.0600 
    178 H178       -4.5531  -10.6684  -48.6431 H         1 UNK         0.0600 
    179 H179       -2.2714  -10.7973  -49.3975 H         1 UNK         0.3000 
    180 H180        0.5455  -11.8309  -50.9332 H         1 UNK         0.0600 
    181 H181        0.5037   -9.3654  -50.7347 H         1 UNK         0.0600 
    182 H182       -1.0981   -9.9634  -51.1176 H         1 UNK         0.0600 
    183 H183       -0.7207   -9.4400  -49.4761 H         1 UNK         0.0600 
    184 H184        2.1336  -11.7159  -49.3902 H         1 UNK         0.3000 
    185 H185        3.2262  -10.4679  -47.4507 H         1 UNK         0.0600 
    186 H186        2.0026   -9.6837  -45.4330 H         1 UNK         0.0600 
    187 H187        1.6952  -11.3470  -44.9483 H         1 UNK         0.0600 
    188 H188        3.3443  -10.7251  -44.9919 H         1 UNK         0.0600 
    189 H189        3.0042  -13.0311  -46.1435 H         1 UNK         0.3000 
    190 H190       -2.1929  -21.8764  -46.5613 H         1 UNK         0.3000 
    191 H191       -4.2296  -22.7693  -48.3860 H         1 UNK         0.0600 
    192 H192       -5.7700  -21.8841  -46.6727 H         1 UNK         0.0600 
    193 H193       -4.4520  -20.7476  -46.9208 H         1 UNK         0.0600 
    194 H194       -4.4688  -21.7758  -45.4934 H         1 UNK         0.0600 
    195 H195       -3.0646  -23.8925  -45.1921 H         1 UNK         0.3000 
    196 H196       -4.9068  -26.0465  -44.8784 H         1 UNK         0.0600 
    197 H197       -3.4073  -26.6607  -42.9778 H         1 UNK         0.0600 
    198 H198       -3.7716  -24.9426  -42.9665 H         1 UNK         0.0600 
    199 H199       -2.2014  -25.5089  -43.5364 H         1 UNK         0.0600 
    200 H200       -1.5800  -25.8780  -46.1672 H         1 UNK         0.3000 
    201 H201       -1.2410  -28.6821  -46.6398 H         1 UNK         0.0600 
    202 H202        0.6447  -27.0697  -46.4195 H         1 UNK         0.0600 
    203 H203        0.1289  -26.2331  -47.8831 H         1 UNK         0.0600 
    204 H204        0.7232  -27.8874  -47.9713 H         1 UNK         0.0600 
    205 H205       -3.2437  -26.4516  -48.2192 H         1 UNK         0.3000 
    206 H206       -4.4469  -26.3555  -50.0468 H         1 UNK         0.0600 
    207 H207       -5.0735  -28.7225  -49.5133 H         1 UNK         0.0600 
    208 H208       -5.1540  -28.3708  -51.2312 H         1 UNK         0.0600 
    209 H209       -3.8015  -29.2929  -50.5938 H         1 UNK         0.0600 
    210 H210       -1.5488  -25.7705  -50.1221 H         1 UNK         0.3000 
    211 H211       -0.7130  -26.1746  -52.9104 H         1 UNK         0.0600 
    212 H212        0.5046  -24.6766  -50.5370 H         1 UNK         0.0600 
    213 H213        1.2323  -24.7307  -52.1401 H         1 UNK         0.0600 
    214 H214        1.0297  -26.2113  -51.2140 H         1 UNK         0.0600 
    215 H215       -1.7160  -23.4785  -50.7714 H         1 UNK         0.3000 
    216 H216       -2.4049  -21.7484  -53.0975 H         1 UNK         0.0600 
    217 H217       -3.0074  -20.1092  -51.3123 H         1 UNK         0.0600 
    218 H218       -1.3333  -20.6251  -51.1791 H         1 UNK         0.0600 
    219 H219       -2.5569  -21.2594  -50.0731 H         1 UNK         0.0600 
    220 H220       -3.8182  -23.6991  -50.5274 H         1 UNK         0.3000 
    221 H221       -5.7950  -24.5366  -50.0378 H         1 UNK         0.0600 
    222 H222       -6.6566  -23.9455  -52.9134 H         1 UNK         0.0600 
    223 H223       -5.7582  -25.3726  -52.3981 H         1 UNK         0.0600 
    224 H224       -7.3914  -25.1023  -51.8147 H         1 UNK         0.0600 
    225 H225       -5.4436  -21.3355  -50.2882 H         1 UNK         0.3000 
    226 H226       -7.7549  -20.7626  -48.6914 H         1 UNK         0.0600 
    227 H227       -8.5784  -18.9112  -50.2038 H         1 UNK         0.0600 
    228 H228       -7.4595  -19.4328  -51.4593 H         1 UNK         0.0600 
    229 H229       -8.7911  -20.4763  -50.9680 H         1 UNK         0.0600 
    230 H230       -7.4215  -18.7469  -47.6044 H         1 UNK         0.3000 
    231 H231       -4.7241  -18.0922  -47.0478 H         1 UNK         0.0600 
    232 H232       -5.7307  -16.3442  -45.5871 H         1 UNK         0.0600 
    233 H233       -6.5395  -17.8897  -45.3863 H         1 UNK         0.0600 
    234 H234       -7.3027  -16.6103  -46.3316 H         1 UNK         0.0600 
    235 H235       -6.8690  -16.8332  -49.4636 H         1 UNK         0.3000 
    236 H236       -5.7473  -14.2517  -49.8729 H         1 UNK         0.0600 
    237 H237       -7.3507  -16.0722  -51.7444 H         1 UNK         0.0600 
    238 H238       -8.0223  -14.8971  -50.6131 H         1 UNK         0.0600 
    239 H239       -7.0761  -14.3512  -51.9862 H         1 UNK         0.0600 
    240 H240       -4.3636  -17.3054  -50.5983 H         1 UNK         0.3000 
    241 H241       -2.5546  -17.9489  -51.6429 H         1 UNK         0.0600 
    242 H242       -4.8091  -17.8566  -54.7717 H         1 UNK         0.3800 
    243 H243       -5.2596  -17.5779  -53.1110 H         1 UNK         0.3800 
    244 H244       -1.6554  -15.5277  -51.0200 H         1 UNK         0.0800 
    245 H245       -1.7259  -15.2424  -52.7307 H         1 UNK         0.0800 
    246 H246        0.0489  -16.7316  -49.7674 H         1 UNK         0.0800 
    247 H247        1.0151  -15.5007  -50.5308 H         1 UNK         0.0800 
@<TRIPOS>BOND
     1    1    2 1    
     2    1  127 1    
     3    1  128 1    
     4    1  129 1    
     5    2    3 2    
     6    2    4 am   BACKBONE|DICT|INTERRES
     7    4    5 1    
     8    4  130 1    
     9    5    6 1    
    10    5   65 1    
    11    5  131 1    
    12    6    7 1    
    13    6  132 1    
    14    6  133 1    
    15    7    8 1    
    16    8    9 1    
    17    8  134 1    
    18    8  135 1    
    19    9   10 ar   
    20    9   14 ar   
    21   10   11 ar   
    22   10  136 1    
    23   11   12 ar   
    24   11  126 1    
    25   12   13 ar   
    26   12  137 1    
    27   13   14 ar   
    28   13   15 1    
    29   14  138 1    
    30   15   16 1    
    31   15  139 1    
    32   15  140 1    
    33   16   17 1    
    34   17   18 1    
    35   17  141 1    
    36   17  142 1    
    37   18   19 1    
    38   18   67 1    
    39   18  143 1    
    40   19   20 am   BACKBONE|DICT|INTERRES
    41   19  144 1    
    42   20   21 2    
    43   20   22 1    
    44   22   23 1    
    45   22   24 1    
    46   22  145 1    
    47   23  146 1    
    48   23  147 1    
    49   23  148 1    
    50   24   25 am   BACKBONE|DICT|INTERRES
    51   24  149 1    
    52   25   26 2    
    53   25   27 1    
    54   27   28 1    
    55   27   29 1    
    56   27  150 1    
    57   28  151 1    
    58   28  152 1    
    59   28  153 1    
    60   29   30 am   BACKBONE|DICT|INTERRES
    61   29  154 1    
    62   30   31 2    
    63   30   32 1    
    64   32   33 1    
    65   32   34 1    
    66   32  155 1    
    67   33  156 1    
    68   33  157 1    
    69   33  158 1    
    70   34   35 am   BACKBONE|DICT|INTERRES
    71   34  159 1    
    72   35   36 2    
    73   35   37 1    
    74   37   38 1    
    75   37   39 1    
    76   37  160 1    
    77   38  161 1    
    78   38  162 1    
    79   38  163 1    
    80   39   40 am   BACKBONE|DICT|INTERRES
    81   39  164 1    
    82   40   41 2    
    83   40   42 1    
    84   42   43 1    
    85   42   44 1    
    86   42  165 1    
    87   43  166 1    
    88   43  167 1    
    89   43  168 1    
    90   44   45 am   BACKBONE|DICT|INTERRES
    91   44  169 1    
    92   45   46 2    
    93   45   47 1    
    94   47   48 1    
    95   47   49 1    
    96   47  170 1    
    97   48  171 1    
    98   48  172 1    
    99   48  173 1    
   100   49   50 am   BACKBONE|DICT|INTERRES
   101   49  174 1    
   102   50   51 2    
   103   50   52 1    
   104   52   53 1    
   105   52   54 1    
   106   52  175 1    
   107   53  176 1    
   108   53  177 1    
   109   53  178 1    
   110   54   55 am   BACKBONE|DICT|INTERRES
   111   54  179 1    
   112   55   56 2    
   113   55   57 1    
   114   57   58 1    
   115   57   59 1    
   116   57  180 1    
   117   58  181 1    
   118   58  182 1    
   119   58  183 1    
   120   59   60 am   BACKBONE|DICT|INTERRES
   121   59  184 1    
   122   60   61 2    
   123   60   62 1    
   124   62   63 1    
   125   62   64 1    
   126   62  185 1    
   127   63  186 1    
   128   63  187 1    
   129   63  188 1    
   130   64   65 am   BACKBONE|DICT|INTERRES
   131   64  189 1    
   132   65   66 2    
   133   67   68 2    
   134   67   69 am   BACKBONE|DICT|INTERRES
   135   69   70 1    
   136   69  190 1    
   137   70   71 1    
   138   70   72 1    
   139   70  191 1    
   140   71  192 1    
   141   71  193 1    
   142   71  194 1    
   143   72   73 2    
   144   72   74 am   BACKBONE|DICT|INTERRES
   145   74   75 1    
   146   74  195 1    
   147   75   76 1    
   148   75   77 1    
   149   75  196 1    
   150   76  197 1    
   151   76  198 1    
   152   76  199 1    
   153   77   78 2    
   154   77   79 am   BACKBONE|DICT|INTERRES
   155   79   80 1    
   156   79  200 1    
   157   80   81 1    
   158   80   82 1    
   159   80  201 1    
   160   81  202 1    
   161   81  203 1    
   162   81  204 1    
   163   82   83 2    
   164   82   84 am   BACKBONE|DICT|INTERRES
   165   84   85 1    
   166   84  205 1    
   167   85   86 1    
   168   85   87 1    
   169   85  206 1    
   170   86  207 1    
   171   86  208 1    
   172   86  209 1    
   173   87   88 2    
   174   87   89 am   BACKBONE|DICT|INTERRES
   175   89   90 1    
   176   89  210 1    
   177   90   91 1    
   178   90   92 1    
   179   90  211 1    
   180   91  212 1    
   181   91  213 1    
   182   91  214 1    
   183   92   93 2    
   184   92   94 am   BACKBONE|DICT|INTERRES
   185   94   95 1    
   186   94  215 1    
   187   95   96 1    
   188   95   97 1    
   189   95  216 1    
   190   96  217 1    
   191   96  218 1    
   192   96  219 1    
   193   97   98 2    
   194   97   99 am   BACKBONE|DICT|INTERRES
   195   99  100 1    
   196   99  220 1    
   197  100  101 1    
   198  100  102 1    
   199  100  221 1    
   200  101  222 1    
   201  101  223 1    
   202  101  224 1    
   203  102  103 2    
   204  102  104 am   BACKBONE|DICT|INTERRES
   205  104  105 1    
   206  104  225 1    
   207  105  106 1    
   208  105  107 1    
   209  105  226 1    
   210  106  227 1    
   211  106  228 1    
   212  106  229 1    
   213  107  108 2    
   214  107  109 am   BACKBONE|DICT|INTERRES
   215  109  110 1    
   216  109  230 1    
   217  110  111 1    
   218  110  112 1    
   219  110  231 1    
   220  111  232 1    
   221  111  233 1    
   222  111  234 1    
   223  112  113 2    
   224  112  114 am   BACKBONE|DICT|INTERRES
   225  114  115 1    
   226  114  235 1    
   227  115  116 1    
   228  115  117 1    
   229  115  236 1    
   230  116  237 1    
   231  116  238 1    
   232  116  239 1    
   233  117  118 2    
   234  117  119 am   BACKBONE|DICT|INTERRES
   235  119  120 1    
   236  119  240 1    
   237  120  121 1    
   238  120  124 1    
   239  120  241 1    
   240  121  122 am   BACKBONE|DICT|INTERRES
   241  121  123 2    
   242  122  242 1    
   243  122  243 1    
   244  124  125 1    
   245  124  244 1    
   246  124  245 1    
   247  125  126 1    
   248  126  246 1    
   249  126  247 1    
@<TRIPOS>SUBSTRUCTURE
     1 UNK         1 GROUP             0       ****    0 ROOT    
