@<TRIPOS>MOLECULE
3R540
247   249    1
SMALL
USER_CHARGES


@<TRIPOS>ATOM
      1 CA          5.1868   -8.8286  -47.8956 C.3       0 UNK        -0.1800 
      2 C           4.3402  -10.0703  -47.6521 C.2       0 UNK         0.5000 
      3 O           3.6022  -10.1248  -46.6678 O.2       0 UNK        -0.5000 
      4 N           4.4506  -11.0681  -48.5378 N.am      1 UNK        -0.5000 
      5 CA          3.6641  -12.3043  -48.5061 C.3       1 UNK         0.1400 
      6 C6          4.3199  -13.4045  -49.3767 C.3       23 UNK        -0.0398 
      7 S7          3.7619  -15.0933  -48.9592 S.3       23 UNK        -0.2404 
      8 C8          4.7938  -16.0404  -50.1177 C.3       23 UNK        -0.0205 
      9 C9          4.3268  -17.4802  -50.2639 C.ar      23 UNK        -0.0193 
     10 C10         3.2643  -17.7828  -51.1221 C.ar      23 UNK        -0.1150 
     11 C11         2.8776  -19.1095  -51.3277 C.ar      23 UNK        -0.0193 
     12 C12         3.5720  -20.1335  -50.6840 C.ar      23 UNK        -0.1150 
     13 C13         4.5993  -19.8455  -49.7825 C.ar      23 UNK        -0.0193 
     14 C14         4.9766  -18.5137  -49.5789 C.ar      23 UNK        -0.1150 
     15 C15         5.3019  -20.9777  -49.0439 C.3       23 UNK        -0.0205 
     16 S16         4.5024  -21.3636  -47.4500 S.3       23 UNK        -0.2404 
     17 C17         2.8690  -21.9966  -47.9738 C.3       23 UNK        -0.0398 
     18 CA          2.3944  -23.2649  -47.2219 C.3       11 UNK         0.1400 
     19 N           2.4149  -23.0757  -45.7712 N.am      11 UNK        -0.5000 
     20 C           2.5179  -24.0534  -44.8636 C.2       10 UNK         0.5000 
     21 O           2.7426  -25.2306  -45.1540 O.2       10 UNK        -0.5000 
     22 CA          2.3082  -23.6447  -43.3908 C.3       10 UNK         0.1400 
     23 CB          2.8771  -24.6660  -42.3834 C.3       10 UNK        -0.1800 
     24 N           2.7738  -22.2866  -43.0943 N.am      10 UNK        -0.5000 
     25 C           4.0339  -21.8251  -43.1161 C.2       9 UNK         0.5000 
     26 O           5.0139  -22.5272  -43.3689 O.2       9 UNK        -0.5000 
     27 CA          4.2513  -20.3277  -42.8009 C.3       9 UNK         0.1400 
     28 CB          4.8530  -19.5967  -44.0122 C.3       9 UNK        -0.1800 
     29 N           3.0323  -19.6276  -42.3895 N.am      9 UNK        -0.5000 
     30 C           2.4480  -19.7218  -41.1879 C.2       8 UNK         0.5000 
     31 O           2.9212  -20.3583  -40.2461 O.2       8 UNK        -0.5000 
     32 CA          1.0799  -19.0280  -41.0280 C.3       8 UNK         0.1400 
     33 CB          1.2560  -17.5717  -40.5730 C.3       8 UNK        -0.1800 
     34 N           0.2686  -19.0676  -42.2493 N.am      8 UNK        -0.5000 
     35 C          -0.2040  -20.1904  -42.8114 C.2       7 UNK         0.5000 
     36 O          -0.0388  -21.3126  -42.3341 O.2       7 UNK        -0.5000 
     37 CA         -0.9317  -20.0484  -44.1595 C.3       7 UNK         0.1400 
     38 CB         -2.3901  -19.6149  -43.9543 C.3       7 UNK        -0.1800 
     39 N          -0.2520  -19.1255  -45.0684 N.am      7 UNK        -0.5000 
     40 C           0.9645  -19.3448  -45.5886 C.2       6 UNK         0.5000 
     41 O           1.6065  -20.3744  -45.3871 O.2       6 UNK        -0.5000 
     42 CA          1.5935  -18.2123  -46.4227 C.3       6 UNK         0.1400 
     43 CB          1.0798  -18.2124  -47.8696 C.3       6 UNK        -0.1800 
     44 N           1.3575  -16.8968  -45.8356 N.am      6 UNK        -0.5000 
     45 C           1.8170  -16.4934  -44.6448 C.2       5 UNK         0.5000 
     46 O           2.5425  -17.1750  -43.9226 O.2       5 UNK        -0.5000 
     47 CA          1.3399  -15.1149  -44.1595 C.3       5 UNK         0.1400 
     48 CB          2.1571  -13.9897  -44.8128 C.3       5 UNK        -0.1800 
     49 N          -0.0858  -14.9094  -44.4212 N.am      5 UNK        -0.5000 
     50 C          -1.0710  -15.5595  -43.7856 C.2       4 UNK         0.5000 
     51 O          -0.8793  -16.3896  -42.8970 O.2       4 UNK        -0.5000 
     52 CA         -2.5102  -15.2517  -44.2412 C.3       4 UNK         0.1400 
     53 CB         -3.0211  -13.9587  -43.5883 C.3       4 UNK        -0.1800 
     54 N          -2.6368  -15.1440  -45.6961 N.am      4 UNK        -0.5000 
     55 C          -2.4632  -16.1685  -46.5432 C.2       3 UNK         0.5000 
     56 O          -2.1949  -17.3106  -46.1789 O.2       3 UNK        -0.5000 
     57 CA         -2.5412  -15.8502  -48.0495 C.3       3 UNK         0.1400 
     58 CB         -4.0010  -15.8648  -48.5286 C.3       3 UNK        -0.1800 
     59 N          -1.9124  -14.5736  -48.4139 N.am      3 UNK        -0.5000 
     60 C          -0.6363  -14.2595  -48.1539 C.2       2 UNK         0.5000 
     61 O           0.1364  -15.0049  -47.5443 O.2       2 UNK        -0.5000 
     62 CA         -0.1429  -12.8766  -48.6044 C.3       2 UNK         0.1400 
     63 CB         -0.8212  -11.7508  -47.8018 C.3       2 UNK        -0.1800 
     64 N           1.2946  -12.8517  -48.3749 N.am      2 UNK        -0.5000 
     65 C           2.1982  -12.0382  -48.9194 C.2       1 UNK         0.5000 
     66 O           1.9238  -11.1393  -49.7193 O.2       1 UNK        -0.5000 
     67 C           0.9759  -23.6870  -47.6836 C.2       11 UNK         0.5000 
     68 O           0.0735  -23.8412  -46.8569 O.2       11 UNK        -0.5000 
     69 N           0.7838  -23.8392  -49.0043 N.am      12 UNK        -0.5000 
     70 CA         -0.4605  -24.2716  -49.6597 C.3       12 UNK         0.1400 
     71 CB         -0.2658  -24.2197  -51.1824 C.3       12 UNK        -0.1800 
     72 C          -1.7309  -23.4920  -49.2604 C.2       12 UNK         0.5000 
     73 O          -2.8115  -24.0820  -49.2088 O.2       12 UNK        -0.5000 
     74 N          -1.5771  -22.2044  -48.9211 N.am      13 UNK        -0.5000 
     75 CA         -2.6353  -21.3399  -48.3927 C.3       13 UNK         0.1400 
     76 CB         -2.0922  -19.9207  -48.2155 C.3       13 UNK        -0.1800 
     77 C          -3.2540  -21.8283  -47.0675 C.2       13 UNK         0.5000 
     78 O          -4.3850  -21.4521  -46.7695 O.2       13 UNK        -0.5000 
     79 N          -2.5486  -22.6816  -46.3083 N.am      14 UNK        -0.5000 
     80 CA         -3.0829  -23.3333  -45.1092 C.3       14 UNK         0.1400 
     81 CB         -1.9463  -24.0451  -44.3592 C.3       14 UNK        -0.1800 
     82 C          -4.2265  -24.3214  -45.4210 C.2       14 UNK         0.5000 
     83 O          -5.0742  -24.5498  -44.5573 O.2       14 UNK        -0.5000 
     84 N          -4.2373  -24.8734  -46.6426 N.am      15 UNK        -0.5000 
     85 CA         -5.2902  -25.7467  -47.1543 C.3       15 UNK         0.1400 
     86 CB         -4.6463  -26.9356  -47.8856 C.3       15 UNK        -0.1800 
     87 C          -6.2365  -24.9819  -48.0949 C.2       15 UNK         0.5000 
     88 O          -7.4529  -25.1429  -47.9903 O.2       15 UNK        -0.5000 
     89 N          -5.6687  -24.1771  -49.0045 N.am      16 UNK        -0.5000 
     90 CA         -6.4037  -23.4708  -50.0566 C.3       16 UNK         0.1400 
     91 CB         -5.4186  -23.0763  -51.1688 C.3       16 UNK        -0.1800 
     92 C          -7.1856  -22.2359  -49.5680 C.2       16 UNK         0.5000 
     93 O          -8.1499  -21.8442  -50.2260 O.2       16 UNK        -0.5000 
     94 N          -6.7606  -21.6403  -48.4433 N.am      17 UNK        -0.5000 
     95 CA         -7.1946  -20.3393  -47.9247 C.3       17 UNK         0.1400 
     96 CB         -8.6874  -20.3598  -47.5217 C.3       17 UNK        -0.1800 
     97 C          -6.8083  -19.2071  -48.9015 C.2       17 UNK         0.5000 
     98 O          -5.7427  -19.2753  -49.5165 O.2       17 UNK        -0.5000 
     99 N          -7.6637  -18.1868  -49.0333 N.am      18 UNK        -0.5000 
    100 CA        -7.4956  -17.0914  -49.9921 C.3       18 UNK         0.1400 
    101 CB        -8.2225  -15.8507  -49.4488 C.3       18 UNK        -0.1800 
    102 C         -8.0009  -17.4461  -51.4075 C.2       18 UNK         0.5000 
    103 O         -7.7675  -16.6751  -52.3395 O.2       18 UNK        -0.5000 
    104 N         -8.7050  -18.5775  -51.5451 N.am      19 UNK        -0.5000 
    105 CA        -9.2258  -19.0914  -52.8092 C.3       19 UNK         0.1400 
    106 CB       -10.4088  -20.0254  -52.5065 C.3       19 UNK        -0.1800 
    107 C         -8.1407  -19.8328  -53.6118 C.2       19 UNK         0.5000 
    108 O         -7.1520  -20.2945  -53.0384 O.2       19 UNK        -0.5000 
    109 N         -8.3789  -19.9609  -54.9255 N.am      20 UNK        -0.5000 
    110 CA        -7.5275  -20.6345  -55.9130 C.3       20 UNK         0.1400 
    111 CB        -7.5293  -22.1618  -55.6690 C.3       20 UNK        -0.1800 
    112 C         -6.1149  -20.0111  -55.9931 C.2       20 UNK         0.5000 
    113 O         -5.9839  -18.7890  -55.8857 O.2       20 UNK        -0.5000 
    114 N         -5.0892  -20.8444  -56.2017 N.am      21 UNK        -0.5000 
    115 CA        -3.6848  -20.4551  -56.1220 C.3       21 UNK         0.1400 
    116 CB        -2.8436  -21.4351  -56.9543 C.3       21 UNK        -0.1800 
    117 C         -3.2287  -20.4630  -54.6538 C.2       21 UNK         0.5000 
    118 O         -3.5865  -21.3820  -53.9121 O.2       21 UNK        -0.5000 
    119 N         -2.4296  -19.4595  -54.2727 N.am      22 UNK        -0.5000 
    120 CA        -1.8464  -19.2494  -52.9352 C.3       22 UNK         0.1400 
    121 C         -2.8772  -18.8711  -51.8311 C.2       22 UNK         0.5000 
    122 N         -3.9552  -19.6228  -51.6669 N.am      22 UNK        -0.7600 
    123 O         -2.6976  -17.8782  -51.1329 O.2       22 UNK        -0.5000 
    124 C124       -0.9303  -20.4284  -52.5047 C.3       23 UNK        -0.0398 
    125 S125        0.2782  -19.9754  -51.2197 S.3       23 UNK        -0.2404 
    126 C126        1.7020  -19.4556  -52.2251 C.3       23 UNK        -0.0205 
    127 H127        5.7983   -8.9238  -48.7932 H         1 UNK         0.0600 
    128 H128        5.8508   -8.6549  -47.0488 H         1 UNK         0.0600 
    129 H129        4.5456   -7.9549  -48.0124 H         1 UNK         0.0600 
    130 H130        5.0481  -10.9470  -49.3430 H         1 UNK         0.3000 
    131 H131        3.6651  -12.6519  -47.4702 H         1 UNK         0.0600 
    132 H132        4.1505  -13.2160  -50.4387 H         1 UNK         0.0800 
    133 H133        5.4019  -13.3861  -49.2362 H         1 UNK         0.0800 
    134 H134        5.8314  -16.0085  -49.7816 H         1 UNK         0.0800 
    135 H135        4.7755  -15.5610  -51.0977 H         1 UNK         0.0800 
    136 H136        2.7434  -16.9844  -51.6317 H         1 UNK         0.1150 
    137 H137        3.2856  -21.1567  -50.8752 H         1 UNK         0.1150 
    138 H138        5.7851  -18.2838  -48.8993 H         1 UNK         0.1150 
    139 H139        5.3334  -21.8749  -49.6639 H         1 UNK         0.0800 
    140 H140        6.3412  -20.7041  -48.8564 H         1 UNK         0.0800 
    141 H141        2.9214  -22.2242  -49.0351 H         1 UNK         0.0800 
    142 H142        2.1459  -21.1896  -47.8676 H         1 UNK         0.0800 
    143 H143        3.0741  -24.0808  -47.4757 H         1 UNK         0.0600 
    144 H144        2.2051  -22.1310  -45.4563 H         1 UNK         0.3000 
    145 H145        1.2275  -23.6220  -43.2466 H         1 UNK         0.0600 
    146 H146        2.7044  -24.3443  -41.3564 H         1 UNK         0.0600 
    147 H147        2.3982  -25.6385  -42.5023 H         1 UNK         0.0600 
    148 H148        3.9492  -24.8138  -42.5144 H         1 UNK         0.0600 
    149 H149        2.0368  -21.6238  -42.8871 H         1 UNK         0.3000 
    150 H150        4.9718  -20.2736  -41.9826 H         1 UNK         0.0600 
    151 H151        5.7864  -20.0620  -44.3312 H         1 UNK         0.0600 
    152 H152        5.0731  -18.5556  -43.7760 H         1 UNK         0.0600 
    153 H153        4.1743  -19.6093  -44.8647 H         1 UNK         0.0600 
    154 H154        2.6106  -19.0184  -43.0834 H         1 UNK         0.3000 
    155 H155        0.5310  -19.5610  -40.2489 H         1 UNK         0.0600 
    156 H156        1.8326  -17.5180  -39.6488 H         1 UNK         0.0600 
    157 H157        0.2922  -17.0991  -40.3829 H         1 UNK         0.0600 
    158 H158        1.7785  -16.9756  -41.3211 H         1 UNK         0.0600 
    159 H159        0.0530  -18.1741  -42.6804 H         1 UNK         0.3000 
    160 H160       -0.9370  -21.0299  -44.6354 H         1 UNK         0.0600 
    161 H161       -2.4572  -18.6126  -43.5306 H         1 UNK         0.0600 
    162 H162       -2.9089  -20.2948  -43.2777 H         1 UNK         0.0600 
    163 H163       -2.9373  -19.6166  -44.8969 H         1 UNK         0.0600 
    164 H164       -0.7611  -18.2852  -45.3279 H         1 UNK         0.3000 
    165 H165        2.6719  -18.3820  -46.4494 H         1 UNK         0.0600 
    166 H166        1.6400  -17.5052  -48.4816 H         1 UNK         0.0600 
    167 H167        1.1847  -19.1911  -48.3349 H         1 UNK         0.0600 
    168 H168        0.0289  -17.9304  -47.9235 H         1 UNK         0.0600 
    169 H169        0.7930  -16.2522  -46.3850 H         1 UNK         0.3000 
    170 H170        1.4981  -15.0654  -43.0801 H         1 UNK         0.0600 
    171 H171        3.2159  -14.0893  -44.5709 H         1 UNK         0.0600 
    172 H172        2.0699  -14.0053  -45.8980 H         1 UNK         0.0600 
    173 H173        1.8341  -13.0091  -44.4628 H         1 UNK         0.0600 
    174 H174       -0.3250  -14.2940  -45.1837 H         1 UNK         0.3000 
    175 H175       -3.1456  -16.0748  -43.9073 H         1 UNK         0.0600 
    176 H176       -2.9520  -14.0173  -42.5012 H         1 UNK         0.0600 
    177 H177       -2.4451  -13.0892  -43.9077 H         1 UNK         0.0600 
    178 H178       -4.0671  -13.7785  -43.8369 H         1 UNK         0.0600 
    179 H179       -2.8453  -14.2323  -46.0747 H         1 UNK         0.3000 
    180 H180       -2.0056  -16.6414  -48.5785 H         1 UNK         0.0600 
    181 H181       -4.4778  -16.8169  -48.2897 H         1 UNK         0.0600 
    182 H182       -4.5904  -15.0739  -48.0636 H         1 UNK         0.0600 
    183 H183       -4.0608  -15.7408  -49.6101 H         1 UNK         0.0600 
    184 H184       -2.4906  -13.9131  -48.9125 H         1 UNK         0.3000 
    185 H185       -0.3459  -12.7603  -49.6707 H         1 UNK         0.0600 
    186 H186       -1.9002  -11.7463  -47.9592 H         1 UNK         0.0600 
    187 H187       -0.6437  -11.8587  -46.7309 H         1 UNK         0.0600 
    188 H188       -0.4498  -10.7711  -48.1028 H         1 UNK         0.0600 
    189 H189        1.6059  -13.6350  -47.8118 H         1 UNK         0.3000 
    190 H190        1.5688  -23.7053  -49.6242 H         1 UNK         0.3000 
    191 H191       -0.6272  -25.3119  -49.3734 H         1 UNK         0.0600 
    192 H192       -0.0114  -23.2148  -51.5207 H         1 UNK         0.0600 
    193 H193       -1.1740  -24.5225  -51.7059 H         1 UNK         0.0600 
    194 H194        0.5301  -24.8925  -51.5020 H         1 UNK         0.0600 
    195 H195       -0.6575  -21.7968  -48.9974 H         1 UNK         0.3000 
    196 H196       -3.4357  -21.3029  -49.1332 H         1 UNK         0.0600 
    197 H197       -2.8834  -19.2431  -47.8929 H         1 UNK         0.0600 
    198 H198       -1.6929  -19.5219  -49.1452 H         1 UNK         0.0600 
    199 H199       -1.3035  -19.8920  -47.4671 H         1 UNK         0.0600 
    200 H200       -1.6229  -22.9773  -46.6085 H         1 UNK         0.3000 
    201 H201       -3.4859  -22.5566  -44.4562 H         1 UNK         0.0600 
    202 H202       -1.1345  -23.3591  -44.1200 H         1 UNK         0.0600 
    203 H203       -1.5296  -24.8649  -44.9455 H         1 UNK         0.0600 
    204 H204       -2.3039  -24.4650  -43.4183 H         1 UNK         0.0600 
    205 H205       -3.5159  -24.6060  -47.3016 H         1 UNK         0.3000 
    206 H206       -5.8872  -26.1459  -46.3316 H         1 UNK         0.0600 
    207 H207       -4.0189  -27.5178  -47.2105 H         1 UNK         0.0600 
    208 H208       -5.4076  -27.6080  -48.2831 H         1 UNK         0.0600 
    209 H209       -4.0252  -26.6109  -48.7214 H         1 UNK         0.0600 
    210 H210       -4.6542  -24.1242  -49.0522 H         1 UNK         0.3000 
    211 H211       -7.1306  -24.1629  -50.4870 H         1 UNK         0.0600 
    212 H212       -5.9350  -22.5843  -51.9942 H         1 UNK         0.0600 
    213 H213       -4.9114  -23.9498  -51.5784 H         1 UNK         0.0600 
    214 H214       -4.6561  -22.3874  -50.8069 H         1 UNK         0.0600 
    215 H215       -5.9377  -22.0122  -47.9839 H         1 UNK         0.3000 
    216 H216       -6.6189  -20.1611  -47.0165 H         1 UNK         0.0600 
    217 H217       -8.9540  -19.4701  -46.9504 H         1 UNK         0.0600 
    218 H218       -8.9064  -21.2194  -46.8880 H         1 UNK         0.0600 
    219 H219       -9.3503  -20.4100  -48.3858 H         1 UNK         0.0600 
    220 H220       -8.5174  -18.1902  -48.4941 H         1 UNK         0.3000 
    221 H221       -6.4347  -16.8482  -50.0802 H         1 UNK         0.0600 
    222 H222       -9.2939  -16.0252  -49.3439 H         1 UNK         0.0600 
    223 H223       -7.8308  -15.5607  -48.4736 H         1 UNK         0.0600 
    224 H224       -8.0923  -14.9971  -50.1154 H         1 UNK         0.0600 
    225 H225       -8.7726  -19.1990  -50.7525 H         1 UNK         0.3000 
    226 H226       -9.5904  -18.2540  -53.4080 H         1 UNK         0.0600 
    227 H227      -11.1907  -19.5057  -51.9525 H         1 UNK         0.0600 
    228 H228      -10.8589  -20.4014  -53.4260 H         1 UNK         0.0600 
    229 H229      -10.0983  -20.8894  -51.9177 H         1 UNK         0.0600 
    230 H230       -9.2077  -19.5240  -55.3032 H         1 UNK         0.3000 
    231 H231       -7.9901  -20.4559  -56.8846 H         1 UNK         0.0600 
    232 H232       -8.5473  -22.5412  -55.5792 H         1 UNK         0.0600 
    233 H233       -6.9963  -22.4292  -54.7554 H         1 UNK         0.0600 
    234 H234       -7.0649  -22.6985  -56.4969 H         1 UNK         0.0600 
    235 H235       -5.2740  -21.8364  -56.2280 H         1 UNK         0.3000 
    236 H236       -3.5588  -19.4531  -56.5381 H         1 UNK         0.0600 
    237 H237       -3.1544  -21.4327  -57.9992 H         1 UNK         0.0600 
    238 H238       -1.7879  -21.1618  -56.9284 H         1 UNK         0.0600 
    239 H239       -2.9271  -22.4569  -56.5815 H         1 UNK         0.0600 
    240 H240       -2.2137  -18.7396  -54.9475 H         1 UNK         0.3000 
    241 H241       -1.2057  -18.3753  -53.0610 H         1 UNK         0.0600 
    242 H242       -4.1198  -20.4032  -52.2929 H         1 UNK         0.3800 
    243 H243       -4.6246  -19.4039  -50.9315 H         1 UNK         0.3800 
    244 H244       -1.5270  -21.2643  -52.1356 H         1 UNK         0.0800 
    245 H245       -0.3831  -20.8152  -53.3653 H         1 UNK         0.0800 
    246 H246        1.9873  -20.2585  -52.9064 H         1 UNK         0.0800 
    247 H247        1.4208  -18.6013  -52.8426 H         1 UNK         0.0800 
@<TRIPOS>BOND
     1    1    2 1    
     2    1  127 1    
     3    1  128 1    
     4    1  129 1    
     5    2    3 2    
     6    2    4 am   BACKBONE|DICT|INTERRES
     7    4    5 1    
     8    4  130 1    
     9    5    6 1    
    10    5   65 1    
    11    5  131 1    
    12    6    7 1    
    13    6  132 1    
    14    6  133 1    
    15    7    8 1    
    16    8    9 1    
    17    8  134 1    
    18    8  135 1    
    19    9   10 ar   
    20    9   14 ar   
    21   10   11 ar   
    22   10  136 1    
    23   11   12 ar   
    24   11  126 1    
    25   12   13 ar   
    26   12  137 1    
    27   13   14 ar   
    28   13   15 1    
    29   14  138 1    
    30   15   16 1    
    31   15  139 1    
    32   15  140 1    
    33   16   17 1    
    34   17   18 1    
    35   17  141 1    
    36   17  142 1    
    37   18   19 1    
    38   18   67 1    
    39   18  143 1    
    40   19   20 am   BACKBONE|DICT|INTERRES
    41   19  144 1    
    42   20   21 2    
    43   20   22 1    
    44   22   23 1    
    45   22   24 1    
    46   22  145 1    
    47   23  146 1    
    48   23  147 1    
    49   23  148 1    
    50   24   25 am   BACKBONE|DICT|INTERRES
    51   24  149 1    
    52   25   26 2    
    53   25   27 1    
    54   27   28 1    
    55   27   29 1    
    56   27  150 1    
    57   28  151 1    
    58   28  152 1    
    59   28  153 1    
    60   29   30 am   BACKBONE|DICT|INTERRES
    61   29  154 1    
    62   30   31 2    
    63   30   32 1    
    64   32   33 1    
    65   32   34 1    
    66   32  155 1    
    67   33  156 1    
    68   33  157 1    
    69   33  158 1    
    70   34   35 am   BACKBONE|DICT|INTERRES
    71   34  159 1    
    72   35   36 2    
    73   35   37 1    
    74   37   38 1    
    75   37   39 1    
    76   37  160 1    
    77   38  161 1    
    78   38  162 1    
    79   38  163 1    
    80   39   40 am   BACKBONE|DICT|INTERRES
    81   39  164 1    
    82   40   41 2    
    83   40   42 1    
    84   42   43 1    
    85   42   44 1    
    86   42  165 1    
    87   43  166 1    
    88   43  167 1    
    89   43  168 1    
    90   44   45 am   BACKBONE|DICT|INTERRES
    91   44  169 1    
    92   45   46 2    
    93   45   47 1    
    94   47   48 1    
    95   47   49 1    
    96   47  170 1    
    97   48  171 1    
    98   48  172 1    
    99   48  173 1    
   100   49   50 am   BACKBONE|DICT|INTERRES
   101   49  174 1    
   102   50   51 2    
   103   50   52 1    
   104   52   53 1    
   105   52   54 1    
   106   52  175 1    
   107   53  176 1    
   108   53  177 1    
   109   53  178 1    
   110   54   55 am   BACKBONE|DICT|INTERRES
   111   54  179 1    
   112   55   56 2    
   113   55   57 1    
   114   57   58 1    
   115   57   59 1    
   116   57  180 1    
   117   58  181 1    
   118   58  182 1    
   119   58  183 1    
   120   59   60 am   BACKBONE|DICT|INTERRES
   121   59  184 1    
   122   60   61 2    
   123   60   62 1    
   124   62   63 1    
   125   62   64 1    
   126   62  185 1    
   127   63  186 1    
   128   63  187 1    
   129   63  188 1    
   130   64   65 am   BACKBONE|DICT|INTERRES
   131   64  189 1    
   132   65   66 2    
   133   67   68 2    
   134   67   69 am   BACKBONE|DICT|INTERRES
   135   69   70 1    
   136   69  190 1    
   137   70   71 1    
   138   70   72 1    
   139   70  191 1    
   140   71  192 1    
   141   71  193 1    
   142   71  194 1    
   143   72   73 2    
   144   72   74 am   BACKBONE|DICT|INTERRES
   145   74   75 1    
   146   74  195 1    
   147   75   76 1    
   148   75   77 1    
   149   75  196 1    
   150   76  197 1    
   151   76  198 1    
   152   76  199 1    
   153   77   78 2    
   154   77   79 am   BACKBONE|DICT|INTERRES
   155   79   80 1    
   156   79  200 1    
   157   80   81 1    
   158   80   82 1    
   159   80  201 1    
   160   81  202 1    
   161   81  203 1    
   162   81  204 1    
   163   82   83 2    
   164   82   84 am   BACKBONE|DICT|INTERRES
   165   84   85 1    
   166   84  205 1    
   167   85   86 1    
   168   85   87 1    
   169   85  206 1    
   170   86  207 1    
   171   86  208 1    
   172   86  209 1    
   173   87   88 2    
   174   87   89 am   BACKBONE|DICT|INTERRES
   175   89   90 1    
   176   89  210 1    
   177   90   91 1    
   178   90   92 1    
   179   90  211 1    
   180   91  212 1    
   181   91  213 1    
   182   91  214 1    
   183   92   93 2    
   184   92   94 am   BACKBONE|DICT|INTERRES
   185   94   95 1    
   186   94  215 1    
   187   95   96 1    
   188   95   97 1    
   189   95  216 1    
   190   96  217 1    
   191   96  218 1    
   192   96  219 1    
   193   97   98 2    
   194   97   99 am   BACKBONE|DICT|INTERRES
   195   99  100 1    
   196   99  220 1    
   197  100  101 1    
   198  100  102 1    
   199  100  221 1    
   200  101  222 1    
   201  101  223 1    
   202  101  224 1    
   203  102  103 2    
   204  102  104 am   BACKBONE|DICT|INTERRES
   205  104  105 1    
   206  104  225 1    
   207  105  106 1    
   208  105  107 1    
   209  105  226 1    
   210  106  227 1    
   211  106  228 1    
   212  106  229 1    
   213  107  108 2    
   214  107  109 am   BACKBONE|DICT|INTERRES
   215  109  110 1    
   216  109  230 1    
   217  110  111 1    
   218  110  112 1    
   219  110  231 1    
   220  111  232 1    
   221  111  233 1    
   222  111  234 1    
   223  112  113 2    
   224  112  114 am   BACKBONE|DICT|INTERRES
   225  114  115 1    
   226  114  235 1    
   227  115  116 1    
   228  115  117 1    
   229  115  236 1    
   230  116  237 1    
   231  116  238 1    
   232  116  239 1    
   233  117  118 2    
   234  117  119 am   BACKBONE|DICT|INTERRES
   235  119  120 1    
   236  119  240 1    
   237  120  121 1    
   238  120  124 1    
   239  120  241 1    
   240  121  122 am   BACKBONE|DICT|INTERRES
   241  121  123 2    
   242  122  242 1    
   243  122  243 1    
   244  124  125 1    
   245  124  244 1    
   246  124  245 1    
   247  125  126 1    
   248  126  246 1    
   249  126  247 1    
@<TRIPOS>SUBSTRUCTURE
     1 UNK         1 GROUP             0       ****    0 ROOT    
