@<TRIPOS>MOLECULE
3R540
247   249    1
SMALL
USER_CHARGES


@<TRIPOS>ATOM
      1 CA          3.7046  -10.0219  -50.9418 C.3       0 UNK        -0.1800 
      2 C           3.1333  -11.1516  -50.0967 C.2       0 UNK         0.5000 
      3 O           2.8649  -10.9548  -48.9122 O.2       0 UNK        -0.5000 
      4 N           2.9443  -12.3309  -50.7019 N.am      1 UNK        -0.5000 
      5 CA          2.4114  -13.5356  -50.0503 C.3       1 UNK         0.1400 
      6 C6          2.7483  -14.8153  -50.8487 C.3       23 UNK        -0.0398 
      7 S7          4.5379  -15.1806  -50.8527 S.3       23 UNK        -0.2404 
      8 C8          4.6158  -16.7086  -51.8499 C.3       23 UNK        -0.0205 
      9 C9          3.5589  -17.7246  -51.4395 C.ar      23 UNK        -0.0193 
     10 C10         2.4986  -18.0165  -52.3024 C.ar      23 UNK        -0.1150 
     11 C11         1.4804  -18.8838  -51.9018 C.ar      23 UNK        -0.0193 
     12 C12         1.5279  -19.4575  -50.6295 C.ar      23 UNK        -0.1150 
     13 C13         2.5853  -19.1833  -49.7578 C.ar      23 UNK        -0.0193 
     14 C14         3.6063  -18.3243  -50.1768 C.ar      23 UNK        -0.1150 
     15 C15         2.5961  -19.7451  -48.3414 C.3       23 UNK        -0.0205 
     16 S16         2.4160  -21.5588  -48.2687 S.3       23 UNK        -0.2404 
     17 C17         0.6020  -21.7768  -48.1962 C.3       23 UNK        -0.0398 
     18 CA          0.1934  -22.8587  -47.1713 C.3       11 UNK         0.1400 
     19 N           0.4724  -22.4794  -45.7820 N.am      11 UNK        -0.5000 
     20 C           0.4673  -23.3488  -44.7613 C.2       10 UNK         0.5000 
     21 O           0.2793  -24.5573  -44.8981 O.2       10 UNK        -0.5000 
     22 CA          0.6451  -22.7731  -43.3457 C.3       10 UNK         0.1400 
     23 CB          2.1267  -22.5119  -43.0366 C.3       10 UNK        -0.1800 
     24 N          -0.1388  -21.5550  -43.1361 N.am      10 UNK        -0.5000 
     25 C          -1.4792  -21.5128  -43.1467 C.2       9 UNK         0.5000 
     26 O          -2.1877  -22.5102  -43.2820 O.2       9 UNK        -0.5000 
     27 CA         -2.1432  -20.1272  -43.0276 C.3       9 UNK         0.1400 
     28 CB         -2.2420  -19.6969  -41.5574 C.3       9 UNK        -0.1800 
     29 N          -1.4549  -19.0922  -43.8012 N.am      9 UNK        -0.5000 
     30 C          -1.3253  -19.1020  -45.1359 C.2       8 UNK         0.5000 
     31 O          -1.8108  -19.9649  -45.8645 O.2       8 UNK        -0.5000 
     32 CA         -0.4483  -18.0045  -45.7613 C.3       8 UNK         0.1400 
     33 CB         -1.2365  -16.7050  -45.9683 C.3       8 UNK        -0.1800 
     34 N           0.7630  -17.7462  -44.9811 N.am      8 UNK        -0.5000 
     35 C           1.7246  -18.6572  -44.7727 C.2       7 UNK         0.5000 
     36 O           1.7071  -19.7925  -45.2472 O.2       7 UNK        -0.5000 
     37 CA          2.8577  -18.2524  -43.8189 C.3       7 UNK         0.1400 
     38 CB          3.8587  -17.3136  -44.5100 C.3       7 UNK        -0.1800 
     39 N           2.3282  -17.6321  -42.6035 N.am      7 UNK        -0.5000 
     40 C           1.6650  -18.3143  -41.6576 C.2       6 UNK         0.5000 
     41 O           1.4735  -19.5286  -41.7058 O.2       6 UNK        -0.5000 
     42 CA          1.0957  -17.5205  -40.4682 C.3       6 UNK         0.1400 
     43 CB          2.1137  -17.4747  -39.3191 C.3       6 UNK        -0.1800 
     44 N           0.6880  -16.1567  -40.8001 N.am      6 UNK        -0.5000 
     45 C          -0.2745  -15.8164  -41.6680 C.2       5 UNK         0.5000 
     46 O          -0.9204  -16.6331  -42.3271 O.2       5 UNK        -0.5000 
     47 CA         -0.5585  -14.3074  -41.8389 C.3       5 UNK         0.1400 
     48 CB          0.2314  -13.4067  -40.8633 C.3       5 UNK        -0.1800 
     49 N          -0.3564  -13.8178  -43.2052 N.am      5 UNK        -0.5000 
     50 C           0.6732  -14.0457  -44.0309 C.2       4 UNK         0.5000 
     51 O           1.5637  -14.8674  -43.8050 O.2       4 UNK        -0.5000 
     52 CA          0.7121  -13.1960  -45.3222 C.3       4 UNK         0.1400 
     53 CB          1.9579  -13.4891  -46.1753 C.3       4 UNK        -0.1800 
     54 N          -0.4809  -13.3336  -46.1637 N.am      4 UNK        -0.5000 
     55 C          -1.7030  -12.8512  -45.8935 C.2       3 UNK         0.5000 
     56 O          -1.9694  -12.2208  -44.8678 O.2       3 UNK        -0.5000 
     57 CA         -2.8077  -13.1328  -46.9358 C.3       3 UNK         0.1400 
     58 CB         -4.0498  -12.2354  -46.7598 C.3       3 UNK        -0.1800 
     59 N          -2.3302  -13.0842  -48.3202 N.am      3 UNK        -0.5000 
     60 C          -1.7397  -12.0527  -48.9396 C.2       2 UNK         0.5000 
     61 O          -1.5415  -10.9490  -48.4274 O.2       2 UNK        -0.5000 
     62 CA         -1.2560  -12.3246  -50.3755 C.3       2 UNK         0.1400 
     63 CB         -1.6437  -11.1824  -51.3288 C.3       2 UNK        -0.1800 
     64 N           0.1891  -12.5371  -50.4512 N.am      2 UNK        -0.5000 
     65 C           0.8907  -13.4661  -49.7850 C.2       1 UNK         0.5000 
     66 O           0.3907  -14.2667  -48.9931 O.2       1 UNK        -0.5000 
     67 C          -1.2749  -23.2926  -47.3701 C.2       11 UNK         0.5000 
     68 O          -1.5168  -24.2343  -48.1209 O.2       11 UNK        -0.5000 
     69 N          -2.2237  -22.6482  -46.6742 N.am      12 UNK        -0.5000 
     70 CA         -3.6422  -23.0176  -46.6701 C.3       12 UNK         0.1400 
     71 CB         -4.4666  -21.9400  -45.9506 C.3       12 UNK        -0.1800 
     72 C          -3.9074  -24.4054  -46.0568 C.2       12 UNK         0.5000 
     73 O          -4.7962  -25.1137  -46.5292 O.2       12 UNK        -0.5000 
     74 N          -3.1275  -24.7708  -45.0309 N.am      13 UNK        -0.5000 
     75 CA         -3.1629  -26.0837  -44.3863 C.3       13 UNK         0.1400 
     76 CB         -2.4966  -25.9778  -43.0058 C.3       13 UNK        -0.1800 
     77 C          -2.4969  -27.1934  -45.2261 C.2       13 UNK         0.5000 
     78 O          -2.8328  -28.3655  -45.0477 O.2       13 UNK        -0.5000 
     79 N          -1.5619  -26.8178  -46.1084 N.am      14 UNK        -0.5000 
     80 CA         -0.8530  -27.7161  -47.0189 C.3       14 UNK         0.1400 
     81 CB          0.4446  -27.0303  -47.4806 C.3       14 UNK        -0.1800 
     82 C          -1.7180  -28.1332  -48.2260 C.2       14 UNK         0.5000 
     83 O          -2.7968  -27.5784  -48.4544 O.2       14 UNK        -0.5000 
     84 N          -1.2135  -29.1115  -48.9910 N.am      15 UNK        -0.5000 
     85 CA         -1.8276  -29.6310  -50.2150 C.3       15 UNK         0.1400 
     86 CB         -0.9597  -30.7709  -50.7697 C.3       15 UNK        -0.1800 
     87 C          -2.0313  -28.5360  -51.2807 C.2       15 UNK         0.5000 
     88 O          -1.1370  -27.7141  -51.4889 O.2       15 UNK        -0.5000 
     89 N          -3.2155  -28.5475  -51.9081 N.am      16 UNK        -0.5000 
     90 CA         -3.7412  -27.5791  -52.8833 C.3       16 UNK         0.1400 
     91 CB         -2.8098  -27.4324  -54.1046 C.3       16 UNK        -0.1800 
     92 C          -4.1364  -26.2079  -52.2873 C.2       16 UNK         0.5000 
     93 O          -4.6871  -25.3821  -53.0176 O.2       16 UNK        -0.5000 
     94 N          -3.9064  -26.0055  -50.9811 N.am      17 UNK        -0.5000 
     95 CA         -4.2351  -24.8216  -50.1843 C.3       17 UNK         0.1400 
     96 CB         -5.7669  -24.7055  -50.0127 C.3       17 UNK        -0.1800 
     97 C          -3.5706  -23.5197  -50.6939 C.2       17 UNK         0.5000 
     98 O          -2.5305  -23.5663  -51.3547 O.2       17 UNK        -0.5000 
     99 N          -4.1746  -22.3772  -50.3489 N.am      18 UNK        -0.5000 
    100 CA        -3.7471  -21.0344  -50.7185 C.3       18 UNK         0.1400 
    101 CB        -3.2187  -20.3086  -49.4662 C.3       18 UNK        -0.1800 
    102 C         -4.9635  -20.3336  -51.3361 C.2       18 UNK         0.5000 
    103 O         -5.7115  -19.6562  -50.6274 O.2       18 UNK        -0.5000 
    104 N         -5.1837  -20.5735  -52.6356 N.am      19 UNK        -0.5000 
    105 CA        -6.2993  -20.0367  -53.4190 C.3       19 UNK         0.1400 
    106 CB        -6.2127  -20.5735  -54.8557 C.3       19 UNK        -0.1800 
    107 C         -6.3165  -18.4973  -53.4090 C.2       19 UNK         0.5000 
    108 O         -5.3064  -17.8798  -53.7523 O.2       19 UNK        -0.5000 
    109 N         -7.4396  -17.9161  -52.9605 N.am      20 UNK        -0.5000 
    110 CA        -7.6590  -16.4782  -52.7374 C.3       20 UNK         0.1400 
    111 CB        -7.7238  -15.7280  -54.0842 C.3       20 UNK        -0.1800 
    112 C         -6.6397  -15.8527  -51.7561 C.2       20 UNK         0.5000 
    113 O         -6.2592  -14.6905  -51.9147 O.2       20 UNK        -0.5000 
    114 N         -6.1650  -16.6655  -50.7968 N.am      21 UNK        -0.5000 
    115 CA        -5.0828  -16.3878  -49.8438 C.3       21 UNK         0.1400 
    116 CB        -5.5106  -15.2993  -48.8390 C.3       21 UNK        -0.1800 
    117 C         -3.7315  -16.0668  -50.5224 C.2       21 UNK         0.5000 
    118 O         -2.8760  -15.4350  -49.9003 O.2       21 UNK        -0.5000 
    119 N         -3.5792  -16.4884  -51.7866 N.am      22 UNK        -0.5000 
    120 CA        -2.4590  -16.1916  -52.6923 C.3       22 UNK         0.1400 
    121 C         -2.3457  -14.6907  -53.0962 C.2       22 UNK         0.5000 
    122 N         -3.4017  -13.8927  -52.9690 N.am      22 UNK        -0.7600 
    123 O         -1.3007  -14.2432  -53.5598 O.2       22 UNK        -0.5000 
    124 C124       -1.1193  -16.8241  -52.2273 C.3       23 UNK        -0.0398 
    125 S125       -1.2664  -18.6420  -52.1293 S.3       23 UNK        -0.2404 
    126 C126        0.3176  -19.1946  -52.8307 C.3       23 UNK        -0.0205 
    127 H127        3.0077   -9.1842  -50.9686 H         1 UNK         0.0600 
    128 H128        3.8956  -10.3386  -51.9674 H         1 UNK         0.0600 
    129 H129        4.6439   -9.6718  -50.5139 H         1 UNK         0.0600 
    130 H130        3.2043  -12.4369  -51.6724 H         1 UNK         0.3000 
    131 H131        2.8885  -13.6244  -49.0723 H         1 UNK         0.0600 
    132 H132        2.2374  -15.6713  -50.4038 H         1 UNK         0.0800 
    133 H133        2.3900  -14.7426  -51.8771 H         1 UNK         0.0800 
    134 H134        4.5091  -16.4455  -52.9034 H         1 UNK         0.0800 
    135 H135        5.6060  -17.1538  -51.7441 H         1 UNK         0.0800 
    136 H136        2.4543  -17.5515  -53.2773 H         1 UNK         0.1150 
    137 H137        0.7207  -20.1015  -50.3183 H         1 UNK         0.1150 
    138 H138        4.4179  -18.0817  -49.5051 H         1 UNK         0.1150 
    139 H139        3.5276  -19.4837  -47.8374 H         1 UNK         0.0800 
    140 H140        1.8029  -19.2621  -47.7742 H         1 UNK         0.0800 
    141 H141        0.2712  -22.0616  -49.1969 H         1 UNK         0.0800 
    142 H142        0.1103  -20.8309  -47.9635 H         1 UNK         0.0800 
    143 H143        0.7975  -23.7436  -47.3850 H         1 UNK         0.0600 
    144 H144        0.6893  -21.5039  -45.6006 H         1 UNK         0.3000 
    145 H145        0.2849  -23.5235  -42.6387 H         1 UNK         0.0600 
    146 H146        2.2619  -22.1872  -42.0049 H         1 UNK         0.0600 
    147 H147        2.7182  -23.4182  -43.1719 H         1 UNK         0.0600 
    148 H148        2.5491  -21.7457  -43.6862 H         1 UNK         0.0600 
    149 H149        0.3832  -20.7018  -42.9672 H         1 UNK         0.3000 
    150 H150       -3.1575  -20.2098  -43.4223 H         1 UNK         0.0600 
    151 H151       -2.8193  -20.4192  -40.9791 H         1 UNK         0.0600 
    152 H152       -2.7368  -18.7304  -41.4596 H         1 UNK         0.0600 
    153 H153       -1.2586  -19.6200  -41.0954 H         1 UNK         0.0600 
    154 H154       -1.0677  -18.3104  -43.2798 H         1 UNK         0.3000 
    155 H155       -0.1415  -18.3616  -46.7461 H         1 UNK         0.0600 
    156 H156       -0.6600  -16.0034  -46.5694 H         1 UNK         0.0600 
    157 H157       -1.4861  -16.2240  -45.0221 H         1 UNK         0.0600 
    158 H158       -2.1695  -16.8921  -46.5017 H         1 UNK         0.0600 
    159 H159        0.8411  -16.8474  -44.5209 H         1 UNK         0.3000 
    160 H160        3.3949  -19.1597  -43.5338 H         1 UNK         0.0600 
    161 H161        3.3878  -16.3947  -44.8584 H         1 UNK         0.0600 
    162 H162        4.3050  -17.7983  -45.3792 H         1 UNK         0.0600 
    163 H163        4.6715  -17.0398  -43.8373 H         1 UNK         0.0600 
    164 H164        2.3789  -16.6230  -42.5430 H         1 UNK         0.3000 
    165 H165        0.2100  -18.0497  -40.1129 H         1 UNK         0.0600 
    166 H166        1.6908  -16.9973  -38.4350 H         1 UNK         0.0600 
    167 H167        2.4196  -18.4807  -39.0282 H         1 UNK         0.0600 
    168 H168        3.0137  -16.9264  -39.6003 H         1 UNK         0.0600 
    169 H169        1.1779  -15.4150  -40.3218 H         1 UNK         0.3000 
    170 H170       -1.6196  -14.1784  -41.6213 H         1 UNK         0.0600 
    171 H171        0.0478  -13.6844  -39.8244 H         1 UNK         0.0600 
    172 H172        1.3063  -13.4533  -41.0434 H         1 UNK         0.0600 
    173 H173       -0.0714  -12.3647  -40.9682 H         1 UNK         0.0600 
    174 H174       -1.0605  -13.1666  -43.5443 H         1 UNK         0.3000 
    175 H175        0.7777  -12.1538  -45.0035 H         1 UNK         0.0600 
    176 H176        1.9366  -14.4990  -46.5873 H         1 UNK         0.0600 
    177 H177        2.0324  -12.7844  -47.0022 H         1 UNK         0.0600 
    178 H178        2.8728  -13.3897  -45.5897 H         1 UNK         0.0600 
    179 H179       -0.3443  -13.8102  -47.0490 H         1 UNK         0.3000 
    180 H180       -3.1178  -14.1629  -46.7595 H         1 UNK         0.0600 
    181 H181       -4.8175  -12.4761  -47.4951 H         1 UNK         0.0600 
    182 H182       -3.8034  -11.1786  -46.8663 H         1 UNK         0.0600 
    183 H183       -4.4945  -12.3703  -45.7732 H         1 UNK         0.0600 
    184 H184       -2.4133  -13.9574  -48.8395 H         1 UNK         0.3000 
    185 H185       -1.7371  -13.2343  -50.7309 H         1 UNK         0.0600 
    186 H186       -1.3827  -11.4243  -52.3592 H         1 UNK         0.0600 
    187 H187       -2.7188  -11.0006  -51.3002 H         1 UNK         0.0600 
    188 H188       -1.1445  -10.2489  -51.0660 H         1 UNK         0.0600 
    189 H189        0.6990  -11.9133  -51.0581 H         1 UNK         0.3000 
    190 H190       -1.9685  -21.8236  -46.1367 H         1 UNK         0.3000 
    191 H191       -3.9758  -23.0490  -47.7060 H         1 UNK         0.0600 
    192 H192       -5.5323  -22.1645  -46.0075 H         1 UNK         0.0600 
    193 H193       -4.3181  -20.9579  -46.3982 H         1 UNK         0.0600 
    194 H194       -4.2051  -21.8694  -44.8957 H         1 UNK         0.0600 
    195 H195       -2.4706  -24.0954  -44.6560 H         1 UNK         0.3000 
    196 H196       -4.2070  -26.3664  -44.2368 H         1 UNK         0.0600 
    197 H197       -1.4479  -25.6904  -43.0862 H         1 UNK         0.0600 
    198 H198       -2.9983  -25.2379  -42.3817 H         1 UNK         0.0600 
    199 H199       -2.5368  -26.9311  -42.4774 H         1 UNK         0.0600 
    200 H200       -1.3614  -25.8318  -46.2040 H         1 UNK         0.3000 
    201 H201       -0.5848  -28.6197  -46.4676 H         1 UNK         0.0600 
    202 H202        0.2424  -26.1729  -48.1219 H         1 UNK         0.0600 
    203 H203        1.0735  -27.7167  -48.0481 H         1 UNK         0.0600 
    204 H204        1.0335  -26.6827  -46.6314 H         1 UNK         0.0600 
    205 H205       -0.3112  -29.4956  -48.7526 H         1 UNK         0.3000 
    206 H206       -2.8014  -30.0424  -49.9409 H         1 UNK         0.0600 
    207 H207       -0.8583  -31.5797  -50.0458 H         1 UNK         0.0600 
    208 H208       -1.4032  -31.1964  -51.6708 H         1 UNK         0.0600 
    209 H209        0.0413  -30.4238  -51.0294 H         1 UNK         0.0600 
    210 H210       -3.8741  -29.2679  -51.6443 H         1 UNK         0.3000 
    211 H211       -4.6728  -28.0167  -53.2451 H         1 UNK         0.0600 
    212 H212       -3.2975  -26.8651  -54.8982 H         1 UNK         0.0600 
    213 H213       -2.5430  -28.4046  -54.5189 H         1 UNK         0.0600 
    214 H214       -1.8882  -26.9064  -53.8550 H         1 UNK         0.0600 
    215 H215       -3.4208  -26.7303  -50.4678 H         1 UNK         0.3000 
    216 H216       -3.8097  -25.0151  -49.1999 H         1 UNK         0.0600 
    217 H217       -6.0302  -23.9859  -49.2370 H         1 UNK         0.0600 
    218 H218       -6.2571  -24.3975  -50.9372 H         1 UNK         0.0600 
    219 H219       -6.1983  -25.6597  -49.7097 H         1 UNK         0.0600 
    220 H220       -5.0548  -22.4256  -49.8555 H         1 UNK         0.3000 
    221 H221       -2.9521  -21.0644  -51.4660 H         1 UNK         0.0600 
    222 H222       -2.3284  -20.7996  -49.0746 H         1 UNK         0.0600 
    223 H223       -3.9612  -20.2802  -48.6689 H         1 UNK         0.0600 
    224 H224       -2.9471  -19.2778  -49.6951 H         1 UNK         0.0600 
    225 H225       -4.5256  -21.1511  -53.1380 H         1 UNK         0.3000 
    226 H226       -7.2243  -20.4062  -52.9717 H         1 UNK         0.0600 
    227 H227       -5.2869  -20.2670  -55.3446 H         1 UNK         0.0600 
    228 H228       -6.2579  -21.6626  -54.8742 H         1 UNK         0.0600 
    229 H229       -7.0413  -20.2037  -55.4610 H         1 UNK         0.0600 
    230 H230       -8.2054  -18.5141  -52.6816 H         1 UNK         0.3000 
    231 H231       -8.6348  -16.3846  -52.2590 H         1 UNK         0.0600 
    232 H232       -6.7589  -15.7235  -54.5922 H         1 UNK         0.0600 
    233 H233       -8.0217  -14.6888  -53.9400 H         1 UNK         0.0600 
    234 H234       -8.4534  -16.1826  -54.7542 H         1 UNK         0.0600 
    235 H235       -6.4897  -17.6260  -50.7884 H         1 UNK         0.3000 
    236 H236       -4.9270  -17.3115  -49.2848 H         1 UNK         0.0600 
    237 H237       -4.8030  -15.2350  -48.0134 H         1 UNK         0.0600 
    238 H238       -5.5628  -14.3148  -49.3050 H         1 UNK         0.0600 
    239 H239       -6.4870  -15.5201  -48.4079 H         1 UNK         0.0600 
    240 H240       -4.3426  -16.9911  -52.2259 H         1 UNK         0.3000 
    241 H241       -2.7240  -16.6816  -53.6298 H         1 UNK         0.0600 
    242 H242       -3.3310  -12.9319  -53.2610 H         1 UNK         0.3800 
    243 H243       -4.2799  -14.2417  -52.6036 H         1 UNK         0.3800 
    244 H244       -0.8120  -16.4337  -51.2560 H         1 UNK         0.0800 
    245 H245       -0.3167  -16.5760  -52.9232 H         1 UNK         0.0800 
    246 H246        0.2736  -20.2727  -52.9910 H         1 UNK         0.0800 
    247 H247        0.4607  -18.7429  -53.8135 H         1 UNK         0.0800 
@<TRIPOS>BOND
     1    1    2 1    
     2    1  127 1    
     3    1  128 1    
     4    1  129 1    
     5    2    3 2    
     6    2    4 am   BACKBONE|DICT|INTERRES
     7    4    5 1    
     8    4  130 1    
     9    5    6 1    
    10    5   65 1    
    11    5  131 1    
    12    6    7 1    
    13    6  132 1    
    14    6  133 1    
    15    7    8 1    
    16    8    9 1    
    17    8  134 1    
    18    8  135 1    
    19    9   10 ar   
    20    9   14 ar   
    21   10   11 ar   
    22   10  136 1    
    23   11   12 ar   
    24   11  126 1    
    25   12   13 ar   
    26   12  137 1    
    27   13   14 ar   
    28   13   15 1    
    29   14  138 1    
    30   15   16 1    
    31   15  139 1    
    32   15  140 1    
    33   16   17 1    
    34   17   18 1    
    35   17  141 1    
    36   17  142 1    
    37   18   19 1    
    38   18   67 1    
    39   18  143 1    
    40   19   20 am   BACKBONE|DICT|INTERRES
    41   19  144 1    
    42   20   21 2    
    43   20   22 1    
    44   22   23 1    
    45   22   24 1    
    46   22  145 1    
    47   23  146 1    
    48   23  147 1    
    49   23  148 1    
    50   24   25 am   BACKBONE|DICT|INTERRES
    51   24  149 1    
    52   25   26 2    
    53   25   27 1    
    54   27   28 1    
    55   27   29 1    
    56   27  150 1    
    57   28  151 1    
    58   28  152 1    
    59   28  153 1    
    60   29   30 am   BACKBONE|DICT|INTERRES
    61   29  154 1    
    62   30   31 2    
    63   30   32 1    
    64   32   33 1    
    65   32   34 1    
    66   32  155 1    
    67   33  156 1    
    68   33  157 1    
    69   33  158 1    
    70   34   35 am   BACKBONE|DICT|INTERRES
    71   34  159 1    
    72   35   36 2    
    73   35   37 1    
    74   37   38 1    
    75   37   39 1    
    76   37  160 1    
    77   38  161 1    
    78   38  162 1    
    79   38  163 1    
    80   39   40 am   BACKBONE|DICT|INTERRES
    81   39  164 1    
    82   40   41 2    
    83   40   42 1    
    84   42   43 1    
    85   42   44 1    
    86   42  165 1    
    87   43  166 1    
    88   43  167 1    
    89   43  168 1    
    90   44   45 am   BACKBONE|DICT|INTERRES
    91   44  169 1    
    92   45   46 2    
    93   45   47 1    
    94   47   48 1    
    95   47   49 1    
    96   47  170 1    
    97   48  171 1    
    98   48  172 1    
    99   48  173 1    
   100   49   50 am   BACKBONE|DICT|INTERRES
   101   49  174 1    
   102   50   51 2    
   103   50   52 1    
   104   52   53 1    
   105   52   54 1    
   106   52  175 1    
   107   53  176 1    
   108   53  177 1    
   109   53  178 1    
   110   54   55 am   BACKBONE|DICT|INTERRES
   111   54  179 1    
   112   55   56 2    
   113   55   57 1    
   114   57   58 1    
   115   57   59 1    
   116   57  180 1    
   117   58  181 1    
   118   58  182 1    
   119   58  183 1    
   120   59   60 am   BACKBONE|DICT|INTERRES
   121   59  184 1    
   122   60   61 2    
   123   60   62 1    
   124   62   63 1    
   125   62   64 1    
   126   62  185 1    
   127   63  186 1    
   128   63  187 1    
   129   63  188 1    
   130   64   65 am   BACKBONE|DICT|INTERRES
   131   64  189 1    
   132   65   66 2    
   133   67   68 2    
   134   67   69 am   BACKBONE|DICT|INTERRES
   135   69   70 1    
   136   69  190 1    
   137   70   71 1    
   138   70   72 1    
   139   70  191 1    
   140   71  192 1    
   141   71  193 1    
   142   71  194 1    
   143   72   73 2    
   144   72   74 am   BACKBONE|DICT|INTERRES
   145   74   75 1    
   146   74  195 1    
   147   75   76 1    
   148   75   77 1    
   149   75  196 1    
   150   76  197 1    
   151   76  198 1    
   152   76  199 1    
   153   77   78 2    
   154   77   79 am   BACKBONE|DICT|INTERRES
   155   79   80 1    
   156   79  200 1    
   157   80   81 1    
   158   80   82 1    
   159   80  201 1    
   160   81  202 1    
   161   81  203 1    
   162   81  204 1    
   163   82   83 2    
   164   82   84 am   BACKBONE|DICT|INTERRES
   165   84   85 1    
   166   84  205 1    
   167   85   86 1    
   168   85   87 1    
   169   85  206 1    
   170   86  207 1    
   171   86  208 1    
   172   86  209 1    
   173   87   88 2    
   174   87   89 am   BACKBONE|DICT|INTERRES
   175   89   90 1    
   176   89  210 1    
   177   90   91 1    
   178   90   92 1    
   179   90  211 1    
   180   91  212 1    
   181   91  213 1    
   182   91  214 1    
   183   92   93 2    
   184   92   94 am   BACKBONE|DICT|INTERRES
   185   94   95 1    
   186   94  215 1    
   187   95   96 1    
   188   95   97 1    
   189   95  216 1    
   190   96  217 1    
   191   96  218 1    
   192   96  219 1    
   193   97   98 2    
   194   97   99 am   BACKBONE|DICT|INTERRES
   195   99  100 1    
   196   99  220 1    
   197  100  101 1    
   198  100  102 1    
   199  100  221 1    
   200  101  222 1    
   201  101  223 1    
   202  101  224 1    
   203  102  103 2    
   204  102  104 am   BACKBONE|DICT|INTERRES
   205  104  105 1    
   206  104  225 1    
   207  105  106 1    
   208  105  107 1    
   209  105  226 1    
   210  106  227 1    
   211  106  228 1    
   212  106  229 1    
   213  107  108 2    
   214  107  109 am   BACKBONE|DICT|INTERRES
   215  109  110 1    
   216  109  230 1    
   217  110  111 1    
   218  110  112 1    
   219  110  231 1    
   220  111  232 1    
   221  111  233 1    
   222  111  234 1    
   223  112  113 2    
   224  112  114 am   BACKBONE|DICT|INTERRES
   225  114  115 1    
   226  114  235 1    
   227  115  116 1    
   228  115  117 1    
   229  115  236 1    
   230  116  237 1    
   231  116  238 1    
   232  116  239 1    
   233  117  118 2    
   234  117  119 am   BACKBONE|DICT|INTERRES
   235  119  120 1    
   236  119  240 1    
   237  120  121 1    
   238  120  124 1    
   239  120  241 1    
   240  121  122 am   BACKBONE|DICT|INTERRES
   241  121  123 2    
   242  122  242 1    
   243  122  243 1    
   244  124  125 1    
   245  124  244 1    
   246  124  245 1    
   247  125  126 1    
   248  126  246 1    
   249  126  247 1    
@<TRIPOS>SUBSTRUCTURE
     1 UNK         1 GROUP             0       ****    0 ROOT    
