@<TRIPOS>MOLECULE
3R540
247   249    1
SMALL
USER_CHARGES


@<TRIPOS>ATOM
      1 CA          4.0026  -10.7806  -48.6570 C.3       0 UNK        -0.1800 
      2 C           3.0003  -11.4773  -47.7497 C.2       0 UNK         0.5000 
      3 O           3.1603  -11.4502  -46.5280 O.2       0 UNK        -0.5000 
      4 N           1.9580  -12.0822  -48.3346 N.am      1 UNK        -0.5000 
      5 CA          0.8955  -12.8617  -47.6770 C.3       1 UNK         0.1400 
      6 C6          0.1768  -13.7963  -48.6841 C.3       23 UNK        -0.0398 
      7 S7          1.3165  -15.0168  -49.4155 S.3       23 UNK        -0.2404 
      8 C8          0.1368  -16.2378  -50.0631 C.3       23 UNK        -0.0205 
      9 C9          0.8622  -17.3335  -50.8260 C.ar      23 UNK        -0.0193 
     10 C10         1.1400  -17.1767  -52.1872 C.ar      23 UNK        -0.1150 
     11 C11         1.8281  -18.1691  -52.8909 C.ar      23 UNK        -0.0193 
     12 C12         2.2208  -19.3348  -52.2254 C.ar      23 UNK        -0.1150 
     13 C13         1.9505  -19.5026  -50.8632 C.ar      23 UNK        -0.0193 
     14 C14         1.2754  -18.4950  -50.1681 C.ar      23 UNK        -0.1150 
     15 C15         2.4208  -20.7557  -50.1390 C.3       23 UNK        -0.0205 
     16 S16         1.0506  -21.9104  -49.8190 S.3       23 UNK        -0.2404 
     17 C17         0.3969  -21.2948  -48.2329 C.3       23 UNK        -0.0398 
     18 CA         -0.2255  -22.4266  -47.3768 C.3       11 UNK         0.1400 
     19 N          -0.0303  -22.1966  -45.9394 N.am      11 UNK        -0.5000 
     20 C          -0.3573  -23.0568  -44.9635 C.2       10 UNK         0.5000 
     21 O          -0.8803  -24.1522  -45.1637 O.2       10 UNK        -0.5000 
     22 CA         -0.1201  -22.5904  -43.5170 C.3       10 UNK         0.1400 
     23 CB          1.3711  -22.6343  -43.1518 C.3       10 UNK        -0.1800 
     24 N          -0.6579  -21.2500  -43.2893 N.am      10 UNK        -0.5000 
     25 C          -1.9662  -20.9576  -43.3150 C.2       9 UNK         0.5000 
     26 O          -2.8508  -21.8061  -43.4309 O.2       9 UNK        -0.5000 
     27 CA         -2.3557  -19.4706  -43.2304 C.3       9 UNK         0.1400 
     28 CB         -2.4663  -19.0254  -41.7648 C.3       9 UNK        -0.1800 
     29 N          -1.4299  -18.5883  -43.9437 N.am      9 UNK        -0.5000 
     30 C          -1.2169  -18.6075  -45.2677 C.2       8 UNK         0.5000 
     31 O          -1.7972  -19.3650  -46.0439 O.2       8 UNK        -0.5000 
     32 CA         -0.1273  -17.6646  -45.8103 C.3       8 UNK         0.1400 
     33 CB         -0.6340  -16.2184  -45.8919 C.3       8 UNK        -0.1800 
     34 N           1.0961  -17.7098  -45.0111 N.am      8 UNK        -0.5000 
     35 C           1.8500  -18.8047  -44.8393 C.2       7 UNK         0.5000 
     36 O           1.6188  -19.8877  -45.3751 O.2       7 UNK        -0.5000 
     37 CA          3.0263  -18.6832  -43.8588 C.3       7 UNK         0.1400 
     38 CB          4.2358  -18.0226  -44.5358 C.3       7 UNK        -0.1800 
     39 N           2.6499  -17.9323  -42.6610 N.am      7 UNK        -0.5000 
     40 C           1.8058  -18.3882  -41.7239 C.2       6 UNK         0.5000 
     41 O           1.2915  -19.5062  -41.7526 O.2       6 UNK        -0.5000 
     42 CA          1.4451  -17.4153  -40.5864 C.3       6 UNK         0.1400 
     43 CB          2.5199  -17.4398  -39.4896 C.3       6 UNK        -0.1800 
     44 N           1.2615  -16.0414  -41.0573 N.am      6 UNK        -0.5000 
     45 C           0.2705  -15.6475  -41.8695 C.2       5 UNK         0.5000 
     46 O          -0.6096  -16.3984  -42.2860 O.2       5 UNK        -0.5000 
     47 CA          0.2892  -14.1794  -42.3303 C.3       5 UNK         0.1400 
     48 CB         -0.4466  -13.2899  -41.3183 C.3       5 UNK        -0.1800 
     49 N           1.6381  -13.6534  -42.5518 N.am      5 UNK        -0.5000 
     50 C           2.5138  -14.1301  -43.4472 C.2       4 UNK         0.5000 
     51 O           2.2796  -15.1017  -44.1691 O.2       4 UNK        -0.5000 
     52 CA          3.8566  -13.3804  -43.5519 C.3       4 UNK         0.1400 
     53 CB          4.7469  -13.9133  -44.6884 C.3       4 UNK        -0.1800 
     54 N           3.6226  -11.9548  -43.7701 N.am      4 UNK        -0.5000 
     55 C           3.4880  -11.0258  -42.8142 C.2       3 UNK         0.5000 
     56 O           3.5892  -11.2642  -41.6107 O.2       3 UNK        -0.5000 
     57 CA          3.1061   -9.6129  -43.2897 C.3       3 UNK         0.1400 
     58 CB          4.3096   -8.9034  -43.9296 C.3       3 UNK        -0.1800 
     59 N           2.0079   -9.6746  -44.2538 N.am      3 UNK        -0.5000 
     60 C           0.7276   -9.9138  -43.9288 C.2       2 UNK         0.5000 
     61 O           0.3092   -9.9463  -42.7722 O.2       2 UNK        -0.5000 
     62 CA         -0.2260  -10.2314  -45.0891 C.3       2 UNK         0.1400 
     63 CB         -0.6923   -8.9527  -45.8059 C.3       2 UNK        -0.1800 
     64 N           0.4526  -11.1270  -46.0179 N.am      2 UNK        -0.5000 
     65 C          -0.0984  -11.9708  -46.8900 C.2       1 UNK         0.5000 
     66 O          -1.3128  -12.0586  -47.0777 O.2       1 UNK        -0.5000 
     67 C          -1.7073  -22.6515  -47.7468 C.2       11 UNK         0.5000 
     68 O          -2.0104  -23.5079  -48.5806 O.2       11 UNK        -0.5000 
     69 N          -2.6080  -21.9096  -47.0859 N.am      12 UNK        -0.5000 
     70 CA         -4.0604  -22.0157  -47.2229 C.3       12 UNK         0.1400 
     71 CB         -4.7416  -20.9429  -46.3622 C.3       12 UNK        -0.1800 
     72 C          -4.6179  -23.4148  -46.9086 C.2       12 UNK         0.5000 
     73 O          -5.6032  -23.8154  -47.5283 O.2       12 UNK        -0.5000 
     74 N          -3.9611  -24.1347  -45.9909 N.am      13 UNK        -0.5000 
     75 CA         -4.2663  -25.5204  -45.6540 C.3       13 UNK         0.1400 
     76 CB         -4.0312  -25.7362  -44.1502 C.3       13 UNK        -0.1800 
     77 C          -3.4198  -26.4991  -46.4862 C.2       13 UNK         0.5000 
     78 O          -3.9745  -27.4191  -47.0870 O.2       13 UNK        -0.5000 
     79 N          -2.0943  -26.2989  -46.4918 N.am      14 UNK        -0.5000 
     80 CA         -1.1093  -27.2410  -47.0273 C.3       14 UNK         0.1400 
     81 CB          0.2917  -26.8434  -46.5368 C.3       14 UNK        -0.1800 
     82 C          -1.1210  -27.3670  -48.5593 C.2       14 UNK         0.5000 
     83 O          -0.9932  -28.4796  -49.0723 O.2       14 UNK        -0.5000 
     84 N          -1.2656  -26.2350  -49.2575 N.am      15 UNK        -0.5000 
     85 CA         -1.2796  -26.1563  -50.7206 C.3       15 UNK         0.1400 
     86 CB         -0.2964  -25.0610  -51.1599 C.3       15 UNK        -0.1800 
     87 C          -2.6882  -25.8619  -51.2661 C.2       15 UNK         0.5000 
     88 O          -2.8481  -25.7469  -52.4812 O.2       15 UNK        -0.5000 
     89 N          -3.6725  -25.7261  -50.3645 N.am      16 UNK        -0.5000 
     90 CA         -5.0600  -25.3332  -50.6188 C.3       16 UNK         0.1400 
     91 CB         -5.7919  -26.3788  -51.4863 C.3       16 UNK        -0.1800 
     92 C          -5.1810  -23.9001  -51.1778 C.2       16 UNK         0.5000 
     93 O          -6.1057  -23.6178  -51.9421 O.2       16 UNK        -0.5000 
     94 N          -4.2760  -22.9977  -50.7623 N.am      17 UNK        -0.5000 
     95 CA         -4.2081  -21.5951  -51.2034 C.3       17 UNK         0.1400 
     96 CB         -2.8634  -20.9832  -50.7732 C.3       17 UNK        -0.1800 
     97 C          -5.3983  -20.7112  -50.7553 C.2       17 UNK         0.5000 
     98 O          -5.4277  -19.5236  -51.0761 O.2       17 UNK        -0.5000 
     99 N          -6.3619  -21.2912  -50.0261 N.am      18 UNK        -0.5000 
    100 CA        -7.6804  -20.7105  -49.7797 C.3       18 UNK         0.1400 
    101 CB        -8.3349  -21.4448  -48.5993 C.3       18 UNK        -0.1800 
    102 C         -8.5914  -20.7904  -51.0230 C.2       18 UNK         0.5000 
    103 O         -9.4701  -19.9414  -51.1780 O.2       18 UNK        -0.5000 
    104 N         -8.3761  -21.8065  -51.8712 N.am      19 UNK        -0.5000 
    105 CA        -9.1258  -22.0555  -53.1019 C.3       19 UNK         0.1400 
    106 CB        -9.6542  -23.4991  -53.0841 C.3       19 UNK        -0.1800 
    107 C         -8.2454  -21.8171  -54.3390 C.2       19 UNK         0.5000 
    108 O         -8.6974  -21.1795  -55.2914 O.2       19 UNK        -0.5000 
    109 N         -7.0045  -22.3204  -54.3033 N.am      20 UNK        -0.5000 
    110 CA        -5.9803  -22.0906  -55.3212 C.3       20 UNK         0.1400 
    111 CB        -4.8931  -23.1671  -55.1714 C.3       20 UNK        -0.1800 
    112 C         -5.3721  -20.6814  -55.1915 C.2       20 UNK         0.5000 
    113 O         -5.4798  -20.0596  -54.1340 O.2       20 UNK        -0.5000 
    114 N         -4.7206  -20.2042  -56.2598 N.am      21 UNK        -0.5000 
    115 CA        -4.0317  -18.9086  -56.2790 C.3       21 UNK         0.1400 
    116 CB        -3.6636  -18.5499  -57.7272 C.3       21 UNK        -0.1800 
    117 C         -2.7804  -18.8822  -55.3782 C.2       21 UNK         0.5000 
    118 O         -2.5159  -17.8678  -54.7328 O.2       21 UNK        -0.5000 
    119 N         -2.0590  -20.0068  -55.3488 N.am      22 UNK        -0.5000 
    120 CA        -0.8674  -20.2747  -54.5365 C.3       22 UNK         0.1400 
    121 C         -0.8843  -21.7550  -54.0777 C.2       22 UNK         0.5000 
    122 N         -0.1896  -22.0800  -52.9987 N.am      22 UNK        -0.7600 
    123 O         -1.4858  -22.6202  -54.7107 O.2       22 UNK        -0.5000 
    124 C124        0.4460  -19.9677  -55.3058 C.3       23 UNK        -0.0398 
    125 S125        0.7753  -18.1823  -55.4761 S.3       23 UNK        -0.2404 
    126 C126        2.1921  -17.9559  -54.3546 C.3       23 UNK        -0.0205 
    127 H127        3.7345  -10.8790  -49.7091 H         1 UNK         0.0600 
    128 H128        4.9943  -11.2101  -48.5161 H         1 UNK         0.0600 
    129 H129        4.0519   -9.7192  -48.4147 H         1 UNK         0.0600 
    130 H130        1.8876  -12.0455  -49.3414 H         1 UNK         0.3000 
    131 H131        1.3754  -13.4982  -46.9297 H         1 UNK         0.0600 
    132 H132       -0.2827  -13.2179  -49.4874 H         1 UNK         0.0800 
    133 H133       -0.6340  -14.3393  -48.1966 H         1 UNK         0.0800 
    134 H134       -0.5817  -15.7415  -50.7175 H         1 UNK         0.0800 
    135 H135       -0.4360  -16.6670  -49.2394 H         1 UNK         0.0800 
    136 H136        0.8374  -16.2724  -52.6965 H         1 UNK         0.1150 
    137 H137        2.7607  -20.1019  -52.7628 H         1 UNK         0.1150 
    138 H138        1.0810  -18.6087  -49.1116 H         1 UNK         0.1150 
    139 H139        3.1695  -21.2748  -50.7392 H         1 UNK         0.0800 
    140 H140        2.9228  -20.4850  -49.2092 H         1 UNK         0.0800 
    141 H141       -0.3084  -20.4811  -48.4130 H         1 UNK         0.0800 
    142 H142        1.2328  -20.8475  -47.6974 H         1 UNK         0.0800 
    143 H143        0.3002  -23.3582  -47.5969 H         1 UNK         0.0600 
    144 H144        0.4135  -21.3186  -45.6806 H         1 UNK         0.3000 
    145 H145       -0.6459  -23.2817  -42.8549 H         1 UNK         0.0600 
    146 H146        1.5275  -22.3628  -42.1076 H         1 UNK         0.0600 
    147 H147        1.7760  -23.6374  -43.2914 H         1 UNK         0.0600 
    148 H148        1.9627  -21.9546  -43.7641 H         1 UNK         0.0600 
    149 H149        0.0113  -20.5061  -43.1277 H         1 UNK         0.3000 
    150 H150       -3.3384  -19.3614  -43.6935 H         1 UNK         0.0600 
    151 H151       -3.1587  -19.6622  -41.2129 H         1 UNK         0.0600 
    152 H152       -2.8366  -18.0027  -41.6909 H         1 UNK         0.0600 
    153 H153       -1.5019  -19.0697  -41.2578 H         1 UNK         0.0600 
    154 H154       -0.9441  -17.8958  -43.3790 H         1 UNK         0.3000 
    155 H155        0.1271  -17.9924  -46.8203 H         1 UNK         0.0600 
    156 H156       -1.4793  -16.1402  -46.5764 H         1 UNK         0.0600 
    157 H157        0.1485  -15.5528  -46.2536 H         1 UNK         0.0600 
    158 H158       -0.9625  -15.8472  -44.9215 H         1 UNK         0.0600 
    159 H159        1.3854  -16.8457  -44.5631 H         1 UNK         0.3000 
    160 H160        3.3170  -19.6905  -43.5529 H         1 UNK         0.0600 
    161 H161        3.9917  -17.0341  -44.9240 H         1 UNK         0.0600 
    162 H162        4.5835  -18.6239  -45.3767 H         1 UNK         0.0600 
    163 H163        5.0709  -17.9177  -43.8431 H         1 UNK         0.0600 
    164 H164        2.9844  -16.9827  -42.5950 H         1 UNK         0.3000 
    165 H165        0.5031  -17.7519  -40.1481 H         1 UNK         0.0600 
    166 H166        2.2343  -16.8139  -38.6440 H         1 UNK         0.0600 
    167 H167        2.6651  -18.4518  -39.1089 H         1 UNK         0.0600 
    168 H168        3.4834  -17.0866  -39.8592 H         1 UNK         0.0600 
    169 H169        1.9432  -15.3586  -40.7613 H         1 UNK         0.3000 
    170 H170       -0.2450  -14.1259  -43.2809 H         1 UNK         0.0600 
    171 H171       -1.4571  -13.6582  -41.1361 H         1 UNK         0.0600 
    172 H172        0.0701  -13.2578  -40.3584 H         1 UNK         0.0600 
    173 H173       -0.5380  -12.2679  -41.6845 H         1 UNK         0.0600 
    174 H174        1.9116  -12.8513  -41.9993 H         1 UNK         0.3000 
    175 H175        4.3910  -13.5274  -42.6112 H         1 UNK         0.0600 
    176 H176        4.2389  -13.8748  -45.6530 H         1 UNK         0.0600 
    177 H177        5.6668  -13.3346  -44.7726 H         1 UNK         0.0600 
    178 H178        5.0338  -14.9487  -44.5060 H         1 UNK         0.0600 
    179 H179        3.4973  -11.6803  -44.7417 H         1 UNK         0.3000 
    180 H180        2.7876   -9.0324  -42.4210 H         1 UNK         0.0600 
    181 H181        4.6627   -9.4252  -44.8202 H         1 UNK         0.0600 
    182 H182        5.1444   -8.8448  -43.2300 H         1 UNK         0.0600 
    183 H183        4.0560   -7.8833  -44.2184 H         1 UNK         0.0600 
    184 H184        2.2712   -9.6381  -45.2279 H         1 UNK         0.3000 
    185 H185       -1.0959  -10.7460  -44.6754 H         1 UNK         0.0600 
    186 H186       -1.1723   -8.2672  -45.1064 H         1 UNK         0.0600 
    187 H187        0.1412   -8.4230  -46.2684 H         1 UNK         0.0600 
    188 H188       -1.4180   -9.1801  -46.5868 H         1 UNK         0.0600 
    189 H189        1.4664  -11.1586  -45.9511 H         1 UNK         0.3000 
    190 H190       -2.2687  -21.1734  -46.4722 H         1 UNK         0.3000 
    191 H191       -4.3018  -21.8053  -48.2608 H         1 UNK         0.0600 
    192 H192       -4.5075  -21.0649  -45.3059 H         1 UNK         0.0600 
    193 H193       -5.8254  -20.9893  -46.4603 H         1 UNK         0.0600 
    194 H194       -4.4327  -19.9416  -46.6625 H         1 UNK         0.0600 
    195 H195       -3.1446  -23.7291  -45.5517 H         1 UNK         0.3000 
    196 H196       -5.3190  -25.7287  -45.8580 H         1 UNK         0.0600 
    197 H197       -4.2427  -26.7675  -43.8654 H         1 UNK         0.0600 
    198 H198       -4.6824  -25.0944  -43.5565 H         1 UNK         0.0600 
    199 H199       -3.0014  -25.5195  -43.8633 H         1 UNK         0.0600 
    200 H200       -1.7138  -25.5036  -45.9812 H         1 UNK         0.3000 
    201 H201       -1.3388  -28.2265  -46.6167 H         1 UNK         0.0600 
    202 H202        0.3389  -26.8293  -45.4477 H         1 UNK         0.0600 
    203 H203        0.5783  -25.8544  -46.8963 H         1 UNK         0.0600 
    204 H204        1.0447  -27.5511  -46.8858 H         1 UNK         0.0600 
    205 H205       -1.3970  -25.3545  -48.7678 H         1 UNK         0.3000 
    206 H206       -0.9525  -27.0998  -51.1618 H         1 UNK         0.0600 
    207 H207        0.6941  -25.2192  -50.7330 H         1 UNK         0.0600 
    208 H208       -0.1856  -25.0501  -52.2447 H         1 UNK         0.0600 
    209 H209       -0.6430  -24.0749  -50.8517 H         1 UNK         0.0600 
    210 H210       -3.4243  -25.8532  -49.3937 H         1 UNK         0.3000 
    211 H211       -5.5534  -25.3245  -49.6475 H         1 UNK         0.0600 
    212 H212       -5.4224  -26.3888  -52.5120 H         1 UNK         0.0600 
    213 H213       -6.8612  -26.1684  -51.5300 H         1 UNK         0.0600 
    214 H214       -5.6764  -27.3822  -51.0766 H         1 UNK         0.0600 
    215 H215       -3.5461  -23.3051  -50.1297 H         1 UNK         0.3000 
    216 H216       -4.2220  -21.6088  -52.2941 H         1 UNK         0.0600 
    217 H217       -2.6625  -20.0671  -51.3298 H         1 UNK         0.0600 
    218 H218       -2.0342  -21.6644  -50.9614 H         1 UNK         0.0600 
    219 H219       -2.8496  -20.7233  -49.7159 H         1 UNK         0.0600 
    220 H220       -6.2462  -22.2620  -49.7749 H         1 UNK         0.3000 
    221 H221       -7.5624  -19.6587  -49.5109 H         1 UNK         0.0600 
    222 H222       -8.4583  -22.5090  -48.8047 H         1 UNK         0.0600 
    223 H223       -7.7409  -21.3476  -47.6922 H         1 UNK         0.0600 
    224 H224       -9.3225  -21.0350  -48.3838 H         1 UNK         0.0600 
    225 H225       -7.5988  -22.4344  -51.6937 H         1 UNK         0.3000 
    226 H226       -9.9839  -21.3839  -53.1719 H         1 UNK         0.0600 
    227 H227      -10.3304  -23.6583  -52.2441 H         1 UNK         0.0600 
    228 H228      -10.2090  -23.7236  -53.9959 H         1 UNK         0.0600 
    229 H229       -8.8446  -24.2259  -53.0030 H         1 UNK         0.0600 
    230 H230       -6.6988  -22.8177  -53.4710 H         1 UNK         0.3000 
    231 H231       -6.4357  -22.1857  -56.3090 H         1 UNK         0.0600 
    232 H232       -5.3156  -24.1690  -55.2498 H         1 UNK         0.0600 
    233 H233       -4.3820  -23.0975  -54.2105 H         1 UNK         0.0600 
    234 H234       -4.1351  -23.0737  -55.9497 H         1 UNK         0.0600 
    235 H235       -4.6712  -20.7596  -57.1018 H         1 UNK         0.3000 
    236 H236       -4.7234  -18.1489  -55.9082 H         1 UNK         0.0600 
    237 H237       -3.1645  -17.5810  -57.7732 H         1 UNK         0.0600 
    238 H238       -2.9900  -19.2864  -58.1671 H         1 UNK         0.0600 
    239 H239       -4.5516  -18.4872  -58.3565 H         1 UNK         0.0600 
    240 H240       -2.3938  -20.8114  -55.8609 H         1 UNK         0.3000 
    241 H241       -0.9100  -19.6626  -53.6328 H         1 UNK         0.0600 
    242 H242       -0.1790  -23.0435  -52.7093 H         1 UNK         0.3800 
    243 H243        0.3091  -21.3942  -52.4534 H         1 UNK         0.3800 
    244 H244        1.3046  -20.4297  -54.8163 H         1 UNK         0.0800 
    245 H245        0.4099  -20.4069  -56.3040 H         1 UNK         0.0800 
    246 H246        2.5770  -16.9430  -54.4812 H         1 UNK         0.0800 
    247 H247        3.0019  -18.6232  -54.6537 H         1 UNK         0.0800 
@<TRIPOS>BOND
     1    1    2 1    
     2    1  127 1    
     3    1  128 1    
     4    1  129 1    
     5    2    3 2    
     6    2    4 am   BACKBONE|DICT|INTERRES
     7    4    5 1    
     8    4  130 1    
     9    5    6 1    
    10    5   65 1    
    11    5  131 1    
    12    6    7 1    
    13    6  132 1    
    14    6  133 1    
    15    7    8 1    
    16    8    9 1    
    17    8  134 1    
    18    8  135 1    
    19    9   10 ar   
    20    9   14 ar   
    21   10   11 ar   
    22   10  136 1    
    23   11   12 ar   
    24   11  126 1    
    25   12   13 ar   
    26   12  137 1    
    27   13   14 ar   
    28   13   15 1    
    29   14  138 1    
    30   15   16 1    
    31   15  139 1    
    32   15  140 1    
    33   16   17 1    
    34   17   18 1    
    35   17  141 1    
    36   17  142 1    
    37   18   19 1    
    38   18   67 1    
    39   18  143 1    
    40   19   20 am   BACKBONE|DICT|INTERRES
    41   19  144 1    
    42   20   21 2    
    43   20   22 1    
    44   22   23 1    
    45   22   24 1    
    46   22  145 1    
    47   23  146 1    
    48   23  147 1    
    49   23  148 1    
    50   24   25 am   BACKBONE|DICT|INTERRES
    51   24  149 1    
    52   25   26 2    
    53   25   27 1    
    54   27   28 1    
    55   27   29 1    
    56   27  150 1    
    57   28  151 1    
    58   28  152 1    
    59   28  153 1    
    60   29   30 am   BACKBONE|DICT|INTERRES
    61   29  154 1    
    62   30   31 2    
    63   30   32 1    
    64   32   33 1    
    65   32   34 1    
    66   32  155 1    
    67   33  156 1    
    68   33  157 1    
    69   33  158 1    
    70   34   35 am   BACKBONE|DICT|INTERRES
    71   34  159 1    
    72   35   36 2    
    73   35   37 1    
    74   37   38 1    
    75   37   39 1    
    76   37  160 1    
    77   38  161 1    
    78   38  162 1    
    79   38  163 1    
    80   39   40 am   BACKBONE|DICT|INTERRES
    81   39  164 1    
    82   40   41 2    
    83   40   42 1    
    84   42   43 1    
    85   42   44 1    
    86   42  165 1    
    87   43  166 1    
    88   43  167 1    
    89   43  168 1    
    90   44   45 am   BACKBONE|DICT|INTERRES
    91   44  169 1    
    92   45   46 2    
    93   45   47 1    
    94   47   48 1    
    95   47   49 1    
    96   47  170 1    
    97   48  171 1    
    98   48  172 1    
    99   48  173 1    
   100   49   50 am   BACKBONE|DICT|INTERRES
   101   49  174 1    
   102   50   51 2    
   103   50   52 1    
   104   52   53 1    
   105   52   54 1    
   106   52  175 1    
   107   53  176 1    
   108   53  177 1    
   109   53  178 1    
   110   54   55 am   BACKBONE|DICT|INTERRES
   111   54  179 1    
   112   55   56 2    
   113   55   57 1    
   114   57   58 1    
   115   57   59 1    
   116   57  180 1    
   117   58  181 1    
   118   58  182 1    
   119   58  183 1    
   120   59   60 am   BACKBONE|DICT|INTERRES
   121   59  184 1    
   122   60   61 2    
   123   60   62 1    
   124   62   63 1    
   125   62   64 1    
   126   62  185 1    
   127   63  186 1    
   128   63  187 1    
   129   63  188 1    
   130   64   65 am   BACKBONE|DICT|INTERRES
   131   64  189 1    
   132   65   66 2    
   133   67   68 2    
   134   67   69 am   BACKBONE|DICT|INTERRES
   135   69   70 1    
   136   69  190 1    
   137   70   71 1    
   138   70   72 1    
   139   70  191 1    
   140   71  192 1    
   141   71  193 1    
   142   71  194 1    
   143   72   73 2    
   144   72   74 am   BACKBONE|DICT|INTERRES
   145   74   75 1    
   146   74  195 1    
   147   75   76 1    
   148   75   77 1    
   149   75  196 1    
   150   76  197 1    
   151   76  198 1    
   152   76  199 1    
   153   77   78 2    
   154   77   79 am   BACKBONE|DICT|INTERRES
   155   79   80 1    
   156   79  200 1    
   157   80   81 1    
   158   80   82 1    
   159   80  201 1    
   160   81  202 1    
   161   81  203 1    
   162   81  204 1    
   163   82   83 2    
   164   82   84 am   BACKBONE|DICT|INTERRES
   165   84   85 1    
   166   84  205 1    
   167   85   86 1    
   168   85   87 1    
   169   85  206 1    
   170   86  207 1    
   171   86  208 1    
   172   86  209 1    
   173   87   88 2    
   174   87   89 am   BACKBONE|DICT|INTERRES
   175   89   90 1    
   176   89  210 1    
   177   90   91 1    
   178   90   92 1    
   179   90  211 1    
   180   91  212 1    
   181   91  213 1    
   182   91  214 1    
   183   92   93 2    
   184   92   94 am   BACKBONE|DICT|INTERRES
   185   94   95 1    
   186   94  215 1    
   187   95   96 1    
   188   95   97 1    
   189   95  216 1    
   190   96  217 1    
   191   96  218 1    
   192   96  219 1    
   193   97   98 2    
   194   97   99 am   BACKBONE|DICT|INTERRES
   195   99  100 1    
   196   99  220 1    
   197  100  101 1    
   198  100  102 1    
   199  100  221 1    
   200  101  222 1    
   201  101  223 1    
   202  101  224 1    
   203  102  103 2    
   204  102  104 am   BACKBONE|DICT|INTERRES
   205  104  105 1    
   206  104  225 1    
   207  105  106 1    
   208  105  107 1    
   209  105  226 1    
   210  106  227 1    
   211  106  228 1    
   212  106  229 1    
   213  107  108 2    
   214  107  109 am   BACKBONE|DICT|INTERRES
   215  109  110 1    
   216  109  230 1    
   217  110  111 1    
   218  110  112 1    
   219  110  231 1    
   220  111  232 1    
   221  111  233 1    
   222  111  234 1    
   223  112  113 2    
   224  112  114 am   BACKBONE|DICT|INTERRES
   225  114  115 1    
   226  114  235 1    
   227  115  116 1    
   228  115  117 1    
   229  115  236 1    
   230  116  237 1    
   231  116  238 1    
   232  116  239 1    
   233  117  118 2    
   234  117  119 am   BACKBONE|DICT|INTERRES
   235  119  120 1    
   236  119  240 1    
   237  120  121 1    
   238  120  124 1    
   239  120  241 1    
   240  121  122 am   BACKBONE|DICT|INTERRES
   241  121  123 2    
   242  122  242 1    
   243  122  243 1    
   244  124  125 1    
   245  124  244 1    
   246  124  245 1    
   247  125  126 1    
   248  126  246 1    
   249  126  247 1    
@<TRIPOS>SUBSTRUCTURE
     1 UNK         1 GROUP             0       ****    0 ROOT    
