@<TRIPOS>MOLECULE
3R540
247   249    1
SMALL
USER_CHARGES


@<TRIPOS>ATOM
      1 CA          3.9748  -17.0221  -44.6982 C.3       0 UNK        -0.1800 
      2 C           3.5869  -15.7427  -45.4249 C.2       0 UNK         0.5000 
      3 O           3.6483  -14.6650  -44.8328 O.2       0 UNK        -0.5000 
      4 N           3.1790  -15.8573  -46.6974 N.am      1 UNK        -0.5000 
      5 CA          2.7590  -14.7517  -47.5673 C.3       1 UNK         0.1400 
      6 C6          2.2872  -15.2673  -48.9495 C.3       23 UNK        -0.0398 
      7 S7          1.5533  -13.9658  -50.0028 S.3       23 UNK        -0.2404 
      8 C8         -0.2336  -14.1668  -49.6860 C.3       23 UNK        -0.0205 
      9 C9         -0.8462  -15.4550  -50.2343 C.ar      23 UNK        -0.0193 
     10 C10        -0.3994  -16.0392  -51.4275 C.ar      23 UNK        -0.1150 
     11 C11        -0.9789  -17.2132  -51.9198 C.ar      23 UNK        -0.0193 
     12 C12        -2.0450  -17.7835  -51.2151 C.ar      23 UNK        -0.1150 
     13 C13        -2.5010  -17.2169  -50.0233 C.ar      23 UNK        -0.0193 
     14 C14        -1.9006  -16.0537  -49.5385 C.ar      23 UNK        -0.1150 
     15 C15        -3.6276  -17.8882  -49.2545 C.3       23 UNK        -0.0205 
     16 S16        -3.0238  -19.0051  -47.9454 S.3       23 UNK        -0.2404 
     17 C17        -1.6437  -19.8845  -48.7562 C.3       23 UNK        -0.0398 
     18 CA         -1.0834  -21.0970  -47.9817 C.3       11 UNK         0.1400 
     19 N          -0.5515  -20.7602  -46.6564 N.am      11 UNK        -0.5000 
     20 C           0.2987  -21.5533  -45.9873 C.2       10 UNK         0.5000 
     21 O           0.7052  -22.6289  -46.4241 O.2       10 UNK        -0.5000 
     22 CA          0.7302  -21.1136  -44.5788 C.3       10 UNK         0.1400 
     23 CB          1.7779  -19.9925  -44.6427 C.3       10 UNK        -0.1800 
     24 N          -0.3971  -20.6992  -43.7478 N.am      10 UNK        -0.5000 
     25 C          -1.4204  -21.4899  -43.3943 C.2       9 UNK         0.5000 
     26 O          -1.5255  -22.6686  -43.7338 O.2       9 UNK        -0.5000 
     27 CA         -2.5245  -20.8436  -42.5428 C.3       9 UNK         0.1400 
     28 CB         -2.1488  -20.8596  -41.0531 C.3       9 UNK        -0.1800 
     29 N          -2.7802  -19.4695  -42.9710 N.am      9 UNK        -0.5000 
     30 C          -3.5379  -19.1455  -44.0273 C.2       8 UNK         0.5000 
     31 O          -4.1668  -19.9695  -44.6908 O.2       8 UNK        -0.5000 
     32 CA         -3.5946  -17.6550  -44.4158 C.3       8 UNK         0.1400 
     33 CB         -4.7361  -16.9489  -43.6691 C.3       8 UNK        -0.1800 
     34 N          -2.3446  -16.9326  -44.1702 N.am      8 UNK        -0.5000 
     35 C          -1.1807  -17.1800  -44.7879 C.2       7 UNK         0.5000 
     36 O          -1.0133  -18.0672  -45.6221 O.2       7 UNK        -0.5000 
     37 CA          0.0209  -16.3196  -44.3607 C.3       7 UNK         0.1400 
     38 CB         -0.0508  -14.9484  -45.0487 C.3       7 UNK        -0.1800 
     39 N           0.1575  -16.1220  -42.9146 N.am      7 UNK        -0.5000 
     40 C           0.0672  -17.0572  -41.9557 C.2       6 UNK         0.5000 
     41 O          -0.1628  -18.2441  -42.1881 O.2       6 UNK        -0.5000 
     42 CA          0.2613  -16.6135  -40.4892 C.3       6 UNK         0.1400 
     43 CB          1.3841  -17.4263  -39.8235 C.3       6 UNK        -0.1800 
     44 N           0.5621  -15.1903  -40.3230 N.am      6 UNK        -0.5000 
     45 C          -0.2887  -14.1674  -40.4875 C.2       5 UNK         0.5000 
     46 O          -1.4787  -14.3111  -40.7674 O.2       5 UNK        -0.5000 
     47 CA          0.2991  -12.7457  -40.3468 C.3       5 UNK         0.1400 
     48 CB         -0.1451  -12.1087  -39.0211 C.3       5 UNK        -0.1800 
     49 N           1.7653  -12.7118  -40.4224 N.am      5 UNK        -0.5000 
     50 C           2.4821  -12.9645  -41.5259 C.2       4 UNK         0.5000 
     51 O           1.9793  -13.1877  -42.6287 O.2       4 UNK        -0.5000 
     52 CA          4.0028  -13.0457  -41.3326 C.3       4 UNK         0.1400 
     53 CB          4.3836  -14.3371  -40.5813 C.3       4 UNK        -0.1800 
     54 N           4.6860  -13.0202  -42.6228 N.am      4 UNK        -0.5000 
     55 C           5.9540  -12.6276  -42.8029 C.2       3 UNK         0.5000 
     56 O           6.6663  -12.1990  -41.8935 O.2       3 UNK        -0.5000 
     57 CA          6.5385  -12.7190  -44.2217 C.3       3 UNK         0.1400 
     58 CB          7.1450  -14.1104  -44.4633 C.3       3 UNK        -0.1800 
     59 N           5.5277  -12.4513  -45.2441 N.am      3 UNK        -0.5000 
     60 C           5.5397  -11.4029  -46.0789 C.2       2 UNK         0.5000 
     61 O           6.4156  -10.5360  -46.0627 O.2       2 UNK        -0.5000 
     62 CA          4.3765  -11.2712  -47.0888 C.3       2 UNK         0.1400 
     63 CB          4.8541  -10.8024  -48.4795 C.3       2 UNK        -0.1800 
     64 N           3.5269  -12.4627  -47.1983 N.am      2 UNK        -0.5000 
     65 C           3.8584  -13.6718  -47.6758 C.2       1 UNK         0.5000 
     66 O           4.9620  -13.9664  -48.1394 O.2       1 UNK        -0.5000 
     67 C          -2.0706  -22.2799  -47.9505 C.2       11 UNK         0.5000 
     68 O          -2.0892  -23.0628  -48.8994 O.2       11 UNK        -0.5000 
     69 N          -2.8334  -22.4319  -46.8589 N.am      12 UNK        -0.5000 
     70 CA         -3.7119  -23.5831  -46.6396 C.3       12 UNK         0.1400 
     71 CB         -4.6231  -23.3201  -45.4327 C.3       12 UNK        -0.1800 
     72 C          -2.9328  -24.9009  -46.4745 C.2       12 UNK         0.5000 
     73 O          -3.4122  -25.9439  -46.9156 O.2       12 UNK        -0.5000 
     74 N          -1.7359  -24.8311  -45.8786 N.am      13 UNK        -0.5000 
     75 CA         -0.8064  -25.9522  -45.7832 C.3       13 UNK         0.1400 
     76 CB          0.1908  -25.6951  -44.6420 C.3       13 UNK        -0.1800 
     77 C          -0.0751  -26.2074  -47.1147 C.2       13 UNK         0.5000 
     78 O          -0.0533  -27.3446  -47.5865 O.2       13 UNK        -0.5000 
     79 N           0.5266  -25.1541  -47.6842 N.am      14 UNK        -0.5000 
     80 CA          1.4298  -25.2418  -48.8320 C.3       14 UNK         0.1400 
     81 CB          2.2941  -23.9728  -48.8982 C.3       14 UNK        -0.1800 
     82 C           0.7209  -25.4742  -50.1766 C.2       14 UNK         0.5000 
     83 O           1.1828  -26.3026  -50.9625 O.2       14 UNK        -0.5000 
     84 N          -0.3633  -24.7307  -50.4324 N.am      15 UNK        -0.5000 
     85 CA         -1.0833  -24.7343  -51.7097 C.3       15 UNK         0.1400 
     86 CB         -1.3989  -23.2819  -52.1093 C.3       15 UNK        -0.1800 
     87 C          -2.3660  -25.5845  -51.6601 C.2       15 UNK         0.5000 
     88 O          -3.0314  -25.7218  -52.6872 O.2       15 UNK        -0.5000 
     89 N          -2.6994  -26.1277  -50.4793 N.am      16 UNK        -0.5000 
     90 CA         -3.8395  -26.9911  -50.1417 C.3       16 UNK         0.1400 
     91 CB         -3.8320  -28.2919  -50.9682 C.3       16 UNK        -0.1800 
     92 C          -5.2071  -26.2852  -50.2152 C.2       16 UNK         0.5000 
     93 O          -5.9518  -26.2980  -49.2351 O.2       16 UNK        -0.5000 
     94 N          -5.5106  -25.6746  -51.3658 N.am      17 UNK        -0.5000 
     95 CA         -6.7478  -24.9374  -51.6307 C.3       17 UNK         0.1400 
     96 CB         -7.1755  -25.1916  -53.0847 C.3       17 UNK        -0.1800 
     97 C          -6.6112  -23.4291  -51.3380 C.2       17 UNK         0.5000 
     98 O          -7.5789  -22.6913  -51.5303 O.2       17 UNK        -0.5000 
     99 N          -5.4269  -22.9931  -50.8793 N.am      18 UNK        -0.5000 
    100 CA        -5.0850  -21.6258  -50.4804 C.3       18 UNK         0.1400 
    101 CB        -5.8251  -21.2568  -49.1727 C.3       18 UNK        -0.1800 
    102 C         -5.3042  -20.6224  -51.6316 C.2       18 UNK         0.5000 
    103 O         -4.6691  -20.7502  -52.6800 O.2       18 UNK        -0.5000 
    104 N         -6.2100  -19.6562  -51.4351 N.am      19 UNK        -0.5000 
    105 CA        -6.5596  -18.6214  -52.4069 C.3       19 UNK         0.1400 
    106 CB        -7.4996  -17.6057  -51.7421 C.3       19 UNK        -0.1800 
    107 C         -7.1836  -19.1741  -53.7020 C.2       19 UNK         0.5000 
    108 O         -7.0253  -18.5530  -54.7518 O.2       19 UNK        -0.5000 
    109 N         -7.8430  -20.3397  -53.6293 N.am      20 UNK        -0.5000 
    110 CA        -8.4071  -21.0215  -54.7958 C.3       20 UNK         0.1400 
    111 CB        -9.4725  -22.0286  -54.3404 C.3       20 UNK        -0.1800 
    112 C         -7.3354  -21.6969  -55.6753 C.2       20 UNK         0.5000 
    113 O         -7.5939  -21.9241  -56.8578 O.2       20 UNK        -0.5000 
    114 N         -6.1548  -21.9845  -55.1063 N.am      21 UNK        -0.5000 
    115 CA        -4.9837  -22.4442  -55.8521 C.3       21 UNK         0.1400 
    116 CB        -4.0809  -23.3033  -54.9518 C.3       21 UNK        -0.1800 
    117 C         -4.2045  -21.2552  -56.4381 C.2       21 UNK         0.5000 
    118 O         -3.8408  -21.2924  -57.6145 O.2       21 UNK        -0.5000 
    119 N         -3.9629  -20.2278  -55.6125 N.am      22 UNK        -0.5000 
    120 CA        -3.2188  -19.0175  -56.0019 C.3       22 UNK         0.1400 
    121 C         -3.9837  -18.0587  -56.9584 C.2       22 UNK         0.5000 
    122 N         -5.3079  -17.9963  -56.9293 N.am      22 UNK        -0.7600 
    123 O         -3.3591  -17.3620  -57.7537 O.2       22 UNK        -0.5000 
    124 C124       -2.6778  -18.2558  -54.7682 C.3       23 UNK        -0.0398 
    125 S125       -1.3626  -19.2006  -53.9291 S.3       23 UNK        -0.2404 
    126 C126       -0.3838  -17.8514  -53.1777 C.3       23 UNK        -0.0205 
    127 H127        3.8815  -17.8976  -45.3408 H         1 UNK         0.0600 
    128 H128        5.0070  -16.9615  -44.3545 H         1 UNK         0.0600 
    129 H129        3.3340  -17.1664  -43.8281 H         1 UNK         0.0600 
    130 H130        3.1882  -16.7693  -47.1300 H         1 UNK         0.3000 
    131 H131        1.8927  -14.2976  -47.0852 H         1 UNK         0.0600 
    132 H132        1.5556  -16.0660  -48.8190 H         1 UNK         0.0800 
    133 H133        3.1217  -15.7140  -49.4928 H         1 UNK         0.0800 
    134 H134       -0.7587  -13.3241  -50.1371 H         1 UNK         0.0800 
    135 H135       -0.4027  -14.0934  -48.6105 H         1 UNK         0.0800 
    136 H136        0.4162  -15.5879  -51.9742 H         1 UNK         0.1150 
    137 H137       -2.5114  -18.6923  -51.5651 H         1 UNK         0.1150 
    138 H138       -2.2545  -15.6194  -48.6138 H         1 UNK         0.1150 
    139 H139       -4.2717  -17.1319  -48.8040 H         1 UNK         0.0800 
    140 H140       -4.2587  -18.4494  -49.9401 H         1 UNK         0.0800 
    141 H141       -0.8363  -19.1669  -48.9092 H         1 UNK         0.0800 
    142 H142       -1.9591  -20.1985  -49.7523 H         1 UNK         0.0800 
    143 H143       -0.2330  -21.4482  -48.5707 H         1 UNK         0.0600 
    144 H144       -0.8411  -19.8712  -46.2530 H         1 UNK         0.3000 
    145 H145        1.1914  -21.9749  -44.0910 H         1 UNK         0.0600 
    146 H146        2.0868  -19.6806  -43.6446 H         1 UNK         0.0600 
    147 H147        2.6711  -20.3276  -45.1711 H         1 UNK         0.0600 
    148 H148        1.4010  -19.1153  -45.1664 H         1 UNK         0.0600 
    149 H149       -0.3749  -19.7499  -43.3877 H         1 UNK         0.3000 
    150 H150       -3.4353  -21.4336  -42.6656 H         1 UNK         0.0600 
    151 H151       -1.9903  -21.8809  -40.7045 H         1 UNK         0.0600 
    152 H152       -2.9415  -20.4271  -40.4426 H         1 UNK         0.0600 
    153 H153       -1.2326  -20.3020  -40.8569 H         1 UNK         0.0600 
    154 H154       -2.2301  -18.7473  -42.5241 H         1 UNK         0.3000 
    155 H155       -3.8063  -17.5994  -45.4847 H         1 UNK         0.0600 
    156 H156       -4.5678  -16.9404  -42.5915 H         1 UNK         0.0600 
    157 H157       -5.6884  -17.4496  -43.8493 H         1 UNK         0.0600 
    158 H158       -4.8456  -15.9163  -44.0010 H         1 UNK         0.0600 
    159 H159       -2.3729  -16.1963  -43.4798 H         1 UNK         0.3000 
    160 H160        0.9218  -16.8288  -44.7018 H         1 UNK         0.0600 
    161 H161        0.8502  -14.3647  -44.8626 H         1 UNK         0.0600 
    162 H162       -0.9014  -14.3647  -44.6950 H         1 UNK         0.0600 
    163 H163       -0.1557  -15.0583  -46.1288 H         1 UNK         0.0600 
    164 H164        0.3783  -15.1800  -42.6234 H         1 UNK         0.3000 
    165 H165       -0.6726  -16.8280  -39.9660 H         1 UNK         0.0600 
    166 H166        1.4934  -17.1616  -38.7716 H         1 UNK         0.0600 
    167 H167        1.1746  -18.4962  -39.8648 H         1 UNK         0.0600 
    168 H168        2.3444  -17.2611  -40.3139 H         1 UNK         0.0600 
    169 H169        1.5184  -14.9654  -40.0951 H         1 UNK         0.3000 
    170 H170       -0.0999  -12.1454  -41.1672 H         1 UNK         0.0600 
    171 H171       -1.2330  -12.0859  -38.9430 H         1 UNK         0.0600 
    172 H172        0.2341  -12.6623  -38.1612 H         1 UNK         0.0600 
    173 H173        0.2057  -11.0796  -38.9405 H         1 UNK         0.0600 
    174 H174        2.2510  -12.5337  -39.5545 H         1 UNK         0.3000 
    175 H175        4.3073  -12.1771  -40.7448 H         1 UNK         0.0600 
    176 H176        4.0906  -15.2258  -41.1424 H         1 UNK         0.0600 
    177 H177        5.4585  -14.3933  -40.4088 H         1 UNK         0.0600 
    178 H178        3.9021  -14.3888  -39.6043 H         1 UNK         0.0600 
    179 H179        4.1389  -13.3781  -43.4021 H         1 UNK         0.3000 
    180 H180        7.3492  -11.9903  -44.2828 H         1 UNK         0.0600 
    181 H181        6.3975  -14.8983  -44.3749 H         1 UNK         0.0600 
    182 H182        7.9326  -14.3234  -43.7394 H         1 UNK         0.0600 
    183 H183        7.5879  -14.1792  -45.4570 H         1 UNK         0.0600 
    184 H184        4.7676  -13.1214  -45.3057 H         1 UNK         0.3000 
    185 H185        3.7313  -10.4879  -46.6887 H         1 UNK         0.0600 
    186 H186        5.3303   -9.8231  -48.4206 H         1 UNK         0.0600 
    187 H187        5.5804  -11.4901  -48.9132 H         1 UNK         0.0600 
    188 H188        4.0190  -10.7133  -49.1744 H         1 UNK         0.0600 
    189 H189        2.5996  -12.3503  -46.8127 H         1 UNK         0.3000 
    190 H190       -2.7793  -21.7446  -46.1198 H         1 UNK         0.3000 
    191 H191       -4.3445  -23.6991  -47.5215 H         1 UNK         0.0600 
    192 H192       -4.0508  -23.1809  -44.5159 H         1 UNK         0.0600 
    193 H193       -5.3054  -24.1553  -45.2705 H         1 UNK         0.0600 
    194 H194       -5.2316  -22.4287  -45.5868 H         1 UNK         0.0600 
    195 H195       -1.4331  -23.9459  -45.4893 H         1 UNK         0.3000 
    196 H196       -1.3696  -26.8538  -45.5323 H         1 UNK         0.0600 
    197 H197        0.8895  -26.5262  -44.5396 H         1 UNK         0.0600 
    198 H198       -0.3257  -25.5839  -43.6883 H         1 UNK         0.0600 
    199 H199        0.7772  -24.7911  -44.8077 H         1 UNK         0.0600 
    200 H200        0.4815  -24.2504  -47.2166 H         1 UNK         0.3000 
    201 H201        2.1011  -26.0873  -48.6660 H         1 UNK         0.0600 
    202 H202        2.8698  -23.8402  -47.9819 H         1 UNK         0.0600 
    203 H203        1.6872  -23.0784  -49.0432 H         1 UNK         0.0600 
    204 H204        3.0048  -24.0251  -49.7240 H         1 UNK         0.0600 
    205 H205       -0.7284  -24.1002  -49.7235 H         1 UNK         0.3000 
    206 H206       -0.4505  -25.1569  -52.4926 H         1 UNK         0.0600 
    207 H207       -0.5184  -22.6447  -52.0254 H         1 UNK         0.0600 
    208 H208       -1.7287  -23.2325  -53.1463 H         1 UNK         0.0600 
    209 H209       -2.1874  -22.8468  -51.4960 H         1 UNK         0.0600 
    210 H210       -2.0909  -25.9116  -49.7023 H         1 UNK         0.3000 
    211 H211       -3.6908  -27.2823  -49.1020 H         1 UNK         0.0600 
    212 H212       -3.9930  -28.1080  -52.0306 H         1 UNK         0.0600 
    213 H213       -4.6207  -28.9669  -50.6339 H         1 UNK         0.0600 
    214 H214       -2.8849  -28.8205  -50.8597 H         1 UNK         0.0600 
    215 H215       -4.8106  -25.6932  -52.1044 H         1 UNK         0.3000 
    216 H216       -7.5403  -25.3188  -50.9837 H         1 UNK         0.0600 
    217 H217       -8.2009  -24.8627  -53.2485 H         1 UNK         0.0600 
    218 H218       -7.1403  -26.2532  -53.3302 H         1 UNK         0.0600 
    219 H219       -6.5441  -24.6607  -53.7946 H         1 UNK         0.0600 
    220 H220       -4.6890  -23.6749  -50.7853 H         1 UNK         0.3000 
    221 H221       -4.0154  -21.6156  -50.2722 H         1 UNK         0.0600 
    222 H222       -6.9091  -21.2851  -49.2869 H         1 UNK         0.0600 
    223 H223       -5.5676  -21.9464  -48.3712 H         1 UNK         0.0600 
    224 H224       -5.5558  -20.2602  -48.8248 H         1 UNK         0.0600 
    225 H225       -6.7190  -19.6460  -50.5632 H         1 UNK         0.3000 
    226 H226       -5.6394  -18.1029  -52.6840 H         1 UNK         0.0600 
    227 H227       -8.4298  -18.0723  -51.4156 H         1 UNK         0.0600 
    228 H228       -7.0304  -17.1442  -50.8728 H         1 UNK         0.0600 
    229 H229       -7.7594  -16.8032  -52.4337 H         1 UNK         0.0600 
    230 H230       -7.8998  -20.8271  -52.7426 H         1 UNK         0.3000 
    231 H231       -8.9078  -20.2765  -55.4182 H         1 UNK         0.0600 
    232 H232      -10.2730  -21.5332  -53.7909 H         1 UNK         0.0600 
    233 H233       -9.0515  -22.7967  -53.6957 H         1 UNK         0.0600 
    234 H234       -9.9273  -22.5309  -55.1952 H         1 UNK         0.0600 
    235 H235       -6.0015  -21.7231  -54.1411 H         1 UNK         0.3000 
    236 H236       -5.3040  -23.0721  -56.6864 H         1 UNK         0.0600 
    237 H237       -3.1280  -23.5158  -55.4382 H         1 UNK         0.0600 
    238 H238       -3.8623  -22.8120  -54.0053 H         1 UNK         0.0600 
    239 H239       -4.5400  -24.2649  -54.7300 H         1 UNK         0.0600 
    240 H240       -4.2490  -20.2957  -54.6422 H         1 UNK         0.3000 
    241 H241       -2.3500  -19.3517  -56.5734 H         1 UNK         0.0600 
    242 H242       -5.8475  -18.4654  -56.2073 H         1 UNK         0.3800 
    243 H243       -5.7807  -17.3749  -57.5656 H         1 UNK         0.3800 
    244 H244       -2.2671  -17.2889  -55.0646 H         1 UNK         0.0800 
    245 H245       -3.4791  -18.0449  -54.0585 H         1 UNK         0.0800 
    246 H246        0.5923  -18.2592  -52.9123 H         1 UNK         0.0800 
    247 H247       -0.1964  -17.0824  -53.9286 H         1 UNK         0.0800 
@<TRIPOS>BOND
     1    1    2 1    
     2    1  127 1    
     3    1  128 1    
     4    1  129 1    
     5    2    3 2    
     6    2    4 am   BACKBONE|DICT|INTERRES
     7    4    5 1    
     8    4  130 1    
     9    5    6 1    
    10    5   65 1    
    11    5  131 1    
    12    6    7 1    
    13    6  132 1    
    14    6  133 1    
    15    7    8 1    
    16    8    9 1    
    17    8  134 1    
    18    8  135 1    
    19    9   10 ar   
    20    9   14 ar   
    21   10   11 ar   
    22   10  136 1    
    23   11   12 ar   
    24   11  126 1    
    25   12   13 ar   
    26   12  137 1    
    27   13   14 ar   
    28   13   15 1    
    29   14  138 1    
    30   15   16 1    
    31   15  139 1    
    32   15  140 1    
    33   16   17 1    
    34   17   18 1    
    35   17  141 1    
    36   17  142 1    
    37   18   19 1    
    38   18   67 1    
    39   18  143 1    
    40   19   20 am   BACKBONE|DICT|INTERRES
    41   19  144 1    
    42   20   21 2    
    43   20   22 1    
    44   22   23 1    
    45   22   24 1    
    46   22  145 1    
    47   23  146 1    
    48   23  147 1    
    49   23  148 1    
    50   24   25 am   BACKBONE|DICT|INTERRES
    51   24  149 1    
    52   25   26 2    
    53   25   27 1    
    54   27   28 1    
    55   27   29 1    
    56   27  150 1    
    57   28  151 1    
    58   28  152 1    
    59   28  153 1    
    60   29   30 am   BACKBONE|DICT|INTERRES
    61   29  154 1    
    62   30   31 2    
    63   30   32 1    
    64   32   33 1    
    65   32   34 1    
    66   32  155 1    
    67   33  156 1    
    68   33  157 1    
    69   33  158 1    
    70   34   35 am   BACKBONE|DICT|INTERRES
    71   34  159 1    
    72   35   36 2    
    73   35   37 1    
    74   37   38 1    
    75   37   39 1    
    76   37  160 1    
    77   38  161 1    
    78   38  162 1    
    79   38  163 1    
    80   39   40 am   BACKBONE|DICT|INTERRES
    81   39  164 1    
    82   40   41 2    
    83   40   42 1    
    84   42   43 1    
    85   42   44 1    
    86   42  165 1    
    87   43  166 1    
    88   43  167 1    
    89   43  168 1    
    90   44   45 am   BACKBONE|DICT|INTERRES
    91   44  169 1    
    92   45   46 2    
    93   45   47 1    
    94   47   48 1    
    95   47   49 1    
    96   47  170 1    
    97   48  171 1    
    98   48  172 1    
    99   48  173 1    
   100   49   50 am   BACKBONE|DICT|INTERRES
   101   49  174 1    
   102   50   51 2    
   103   50   52 1    
   104   52   53 1    
   105   52   54 1    
   106   52  175 1    
   107   53  176 1    
   108   53  177 1    
   109   53  178 1    
   110   54   55 am   BACKBONE|DICT|INTERRES
   111   54  179 1    
   112   55   56 2    
   113   55   57 1    
   114   57   58 1    
   115   57   59 1    
   116   57  180 1    
   117   58  181 1    
   118   58  182 1    
   119   58  183 1    
   120   59   60 am   BACKBONE|DICT|INTERRES
   121   59  184 1    
   122   60   61 2    
   123   60   62 1    
   124   62   63 1    
   125   62   64 1    
   126   62  185 1    
   127   63  186 1    
   128   63  187 1    
   129   63  188 1    
   130   64   65 am   BACKBONE|DICT|INTERRES
   131   64  189 1    
   132   65   66 2    
   133   67   68 2    
   134   67   69 am   BACKBONE|DICT|INTERRES
   135   69   70 1    
   136   69  190 1    
   137   70   71 1    
   138   70   72 1    
   139   70  191 1    
   140   71  192 1    
   141   71  193 1    
   142   71  194 1    
   143   72   73 2    
   144   72   74 am   BACKBONE|DICT|INTERRES
   145   74   75 1    
   146   74  195 1    
   147   75   76 1    
   148   75   77 1    
   149   75  196 1    
   150   76  197 1    
   151   76  198 1    
   152   76  199 1    
   153   77   78 2    
   154   77   79 am   BACKBONE|DICT|INTERRES
   155   79   80 1    
   156   79  200 1    
   157   80   81 1    
   158   80   82 1    
   159   80  201 1    
   160   81  202 1    
   161   81  203 1    
   162   81  204 1    
   163   82   83 2    
   164   82   84 am   BACKBONE|DICT|INTERRES
   165   84   85 1    
   166   84  205 1    
   167   85   86 1    
   168   85   87 1    
   169   85  206 1    
   170   86  207 1    
   171   86  208 1    
   172   86  209 1    
   173   87   88 2    
   174   87   89 am   BACKBONE|DICT|INTERRES
   175   89   90 1    
   176   89  210 1    
   177   90   91 1    
   178   90   92 1    
   179   90  211 1    
   180   91  212 1    
   181   91  213 1    
   182   91  214 1    
   183   92   93 2    
   184   92   94 am   BACKBONE|DICT|INTERRES
   185   94   95 1    
   186   94  215 1    
   187   95   96 1    
   188   95   97 1    
   189   95  216 1    
   190   96  217 1    
   191   96  218 1    
   192   96  219 1    
   193   97   98 2    
   194   97   99 am   BACKBONE|DICT|INTERRES
   195   99  100 1    
   196   99  220 1    
   197  100  101 1    
   198  100  102 1    
   199  100  221 1    
   200  101  222 1    
   201  101  223 1    
   202  101  224 1    
   203  102  103 2    
   204  102  104 am   BACKBONE|DICT|INTERRES
   205  104  105 1    
   206  104  225 1    
   207  105  106 1    
   208  105  107 1    
   209  105  226 1    
   210  106  227 1    
   211  106  228 1    
   212  106  229 1    
   213  107  108 2    
   214  107  109 am   BACKBONE|DICT|INTERRES
   215  109  110 1    
   216  109  230 1    
   217  110  111 1    
   218  110  112 1    
   219  110  231 1    
   220  111  232 1    
   221  111  233 1    
   222  111  234 1    
   223  112  113 2    
   224  112  114 am   BACKBONE|DICT|INTERRES
   225  114  115 1    
   226  114  235 1    
   227  115  116 1    
   228  115  117 1    
   229  115  236 1    
   230  116  237 1    
   231  116  238 1    
   232  116  239 1    
   233  117  118 2    
   234  117  119 am   BACKBONE|DICT|INTERRES
   235  119  120 1    
   236  119  240 1    
   237  120  121 1    
   238  120  124 1    
   239  120  241 1    
   240  121  122 am   BACKBONE|DICT|INTERRES
   241  121  123 2    
   242  122  242 1    
   243  122  243 1    
   244  124  125 1    
   245  124  244 1    
   246  124  245 1    
   247  125  126 1    
   248  126  246 1    
   249  126  247 1    
@<TRIPOS>SUBSTRUCTURE
     1 UNK         1 GROUP             0       ****    0 ROOT    
