@<TRIPOS>MOLECULE
3R540
247   249    1
SMALL
USER_CHARGES


@<TRIPOS>ATOM
      1 CA          3.8378  -12.3591  -48.7375 C.3       0 UNK        -0.1800 
      2 C           3.3570  -12.4136  -50.1863 C.2       0 UNK         0.5000 
      3 O           3.6779  -11.5156  -50.9623 O.2       0 UNK        -0.5000 
      4 N           2.6070  -13.4413  -50.6031 N.am      1 UNK        -0.5000 
      5 CA          2.0788  -14.5360  -49.7823 C.3       1 UNK         0.1400 
      6 C6          1.8625  -15.8178  -50.6183 C.3       23 UNK        -0.0398 
      7 S7          3.4596  -16.6037  -51.0360 S.3       23 UNK        -0.2404 
      8 C8          3.1185  -17.3683  -52.6599 C.3       23 UNK        -0.0205 
      9 C9          1.8272  -18.1801  -52.7054 C.ar      23 UNK        -0.0193 
     10 C10         0.9967  -18.0892  -53.8243 C.ar      23 UNK        -0.1150 
     11 C11        -0.2254  -18.7663  -53.8655 C.ar      23 UNK        -0.0193 
     12 C12        -0.6192  -19.5403  -52.7689 C.ar      23 UNK        -0.1150 
     13 C13         0.2081  -19.6494  -51.6444 C.ar      23 UNK        -0.0193 
     14 C14         1.4432  -18.9970  -51.6379 C.ar      23 UNK        -0.1150 
     15 C15        -0.2311  -20.4507  -50.4264 C.3       23 UNK        -0.0205 
     16 S16        -0.2508  -19.4316  -48.9084 S.3       23 UNK        -0.2404 
     17 C17        -1.4765  -20.3207  -47.9021 C.3       23 UNK        -0.0398 
     18 CA         -0.9129  -21.6226  -47.2893 C.3       11 UNK         0.1400 
     19 N           0.0057  -21.3966  -46.1714 N.am      11 UNK        -0.5000 
     20 C           0.7651  -22.3575  -45.6236 C.2       10 UNK         0.5000 
     21 O           0.8421  -23.5031  -46.0680 O.2       10 UNK        -0.5000 
     22 CA          1.5166  -22.0027  -44.3276 C.3       10 UNK         0.1400 
     23 CB          2.8327  -21.2723  -44.6323 C.3       10 UNK        -0.1800 
     24 N           0.7003  -21.2086  -43.4071 N.am      10 UNK        -0.5000 
     25 C          -0.4344  -21.6442  -42.8394 C.2       9 UNK         0.5000 
     26 O          -0.8766  -22.7836  -42.9866 O.2       9 UNK        -0.5000 
     27 CA         -1.2359  -20.6298  -42.0046 C.3       9 UNK         0.1400 
     28 CB         -0.6808  -20.5456  -40.5754 C.3       9 UNK        -0.1800 
     29 N          -1.2689  -19.2961  -42.6072 N.am      9 UNK        -0.5000 
     30 C          -1.8387  -19.0034  -43.7856 C.2       8 UNK         0.5000 
     31 O          -2.4423  -19.8256  -44.4737 O.2       8 UNK        -0.5000 
     32 CA         -1.6496  -17.5701  -44.3177 C.3       8 UNK         0.1400 
     33 CB         -2.6334  -16.5933  -43.6591 C.3       8 UNK        -0.1800 
     34 N          -0.2811  -17.0882  -44.1345 N.am      8 UNK        -0.5000 
     35 C           0.7933  -17.6325  -44.7228 C.2       7 UNK         0.5000 
     36 O           0.7332  -18.5581  -45.5310 O.2       7 UNK        -0.5000 
     37 CA          2.1641  -17.0791  -44.2991 C.3       7 UNK         0.1400 
     38 CB          2.5120  -15.7992  -45.0755 C.3       7 UNK        -0.1800 
     39 N           2.2181  -16.8144  -42.8613 N.am      7 UNK        -0.5000 
     40 C           2.2535  -17.7709  -41.9227 C.2       6 UNK         0.5000 
     41 O           2.2737  -18.9752  -42.1757 O.2       6 UNK        -0.5000 
     42 CA          2.2214  -17.3018  -40.4563 C.3       6 UNK         0.1400 
     43 CB          3.6272  -16.9019  -39.9843 C.3       6 UNK        -0.1800 
     44 N           1.3005  -16.1843  -40.2409 N.am      6 UNK        -0.5000 
     45 C          -0.0311  -16.2668  -40.3705 C.2       5 UNK         0.5000 
     46 O          -0.6254  -17.3030  -40.6601 O.2       5 UNK        -0.5000 
     47 CA         -0.8317  -14.9635  -40.1972 C.3       5 UNK         0.1400 
     48 CB         -1.1871  -14.7425  -38.7195 C.3       5 UNK        -0.1800 
     49 N          -0.1470  -13.7761  -40.7157 N.am      5 UNK        -0.5000 
     50 C           0.2411  -13.6077  -41.9859 C.2       4 UNK         0.5000 
     51 O           0.1164  -14.4662  -42.8662 O.2       4 UNK        -0.5000 
     52 CA          0.9183  -12.2720  -42.3146 C.3       4 UNK         0.1400 
     53 CB          2.3958  -12.2910  -41.8895 C.3       4 UNK        -0.1800 
     54 N           0.8390  -12.0664  -43.7532 N.am      4 UNK        -0.5000 
     55 C           0.5453  -10.9218  -44.3771 C.2       3 UNK         0.5000 
     56 O           0.3708   -9.8502  -43.7953 O.2       3 UNK        -0.5000 
     57 CA          0.4338  -10.9790  -45.9139 C.3       3 UNK         0.1400 
     58 CB          1.6396  -10.2830  -46.5649 C.3       3 UNK        -0.1800 
     59 N           0.3448  -12.3472  -46.4338 N.am      3 UNK        -0.5000 
     60 C          -0.7671  -13.0960  -46.4492 C.2       2 UNK         0.5000 
     61 O          -1.8490  -12.7070  -46.0078 O.2       2 UNK        -0.5000 
     62 CA         -0.6393  -14.5241  -47.0284 C.3       2 UNK         0.1400 
     63 CB         -1.9336  -15.0089  -47.7077 C.3       2 UNK        -0.1800 
     64 N           0.5171  -14.7269  -47.9151 N.am      2 UNK        -0.5000 
     65 C           0.7769  -14.1046  -49.0758 C.2       1 UNK         0.5000 
     66 O           0.0671  -13.2227  -49.5640 O.2       1 UNK        -0.5000 
     67 C          -2.0601  -22.5716  -46.9011 C.2       11 UNK         0.5000 
     68 O          -2.3434  -23.4930  -47.6628 O.2       11 UNK        -0.5000 
     69 N          -2.6882  -22.3649  -45.7353 N.am      12 UNK        -0.5000 
     70 CA         -3.7796  -23.2023  -45.2252 C.3       12 UNK         0.1400 
     71 CB         -4.3280  -22.6119  -43.9184 C.3       12 UNK        -0.1800 
     72 C          -3.3709  -24.6755  -45.0363 C.2       12 UNK         0.5000 
     73 O          -4.1181  -25.5691  -45.4361 O.2       12 UNK        -0.5000 
     74 N          -2.1603  -24.8997  -44.5067 N.am      13 UNK        -0.5000 
     75 CA         -1.5301  -26.2163  -44.3725 C.3       13 UNK         0.1400 
     76 CB         -0.2403  -26.0711  -43.5510 C.3       13 UNK        -0.1800 
     77 C          -1.2361  -26.9038  -45.7231 C.2       13 UNK         0.5000 
     78 O          -1.2020  -28.1332  -45.7818 O.2       13 UNK        -0.5000 
     79 N          -1.0583  -26.1049  -46.7826 N.am      14 UNK        -0.5000 
     80 CA         -0.8552  -26.5425  -48.1634 C.3       14 UNK         0.1400 
     81 CB          0.1619  -25.5977  -48.8294 C.3       14 UNK        -0.1800 
     82 C          -2.1720  -26.5951  -48.9682 C.2       14 UNK         0.5000 
     83 O          -2.1150  -26.7061  -50.1933 O.2       14 UNK        -0.5000 
     84 N          -3.3290  -26.4796  -48.2945 N.am      15 UNK        -0.5000 
     85 CA         -4.6846  -26.4493  -48.8607 C.3       15 UNK         0.1400 
     86 CB         -5.0533  -27.8152  -49.4764 C.3       15 UNK        -0.1800 
     87 C          -4.8858  -25.2712  -49.8374 C.2       15 UNK         0.5000 
     88 O          -5.3873  -25.4519  -50.9489 O.2       15 UNK        -0.5000 
     89 N          -4.4167  -24.0880  -49.4159 N.am      16 UNK        -0.5000 
     90 CA         -4.3715  -22.8174  -50.1494 C.3       16 UNK         0.1400 
     91 CB         -5.7934  -22.3313  -50.4939 C.3       16 UNK        -0.1800 
     92 C          -3.4456  -22.8582  -51.3832 C.2       16 UNK         0.5000 
     93 O          -3.5887  -22.0180  -52.2724 O.2       16 UNK        -0.5000 
     94 N          -2.5459  -23.8553  -51.4289 N.am      17 UNK        -0.5000 
     95 CA         -1.7126  -24.2705  -52.5646 C.3       17 UNK         0.1400 
     96 CB         -0.6664  -23.1931  -52.9082 C.3       17 UNK        -0.1800 
     97 C          -2.5477  -24.7034  -53.7903 C.2       17 UNK         0.5000 
     98 O          -2.0863  -24.5682  -54.9243 O.2       17 UNK        -0.5000 
     99 N          -3.7795  -25.1784  -53.5370 N.am      18 UNK        -0.5000 
    100 CA        -4.8446  -25.4639  -54.5058 C.3       18 UNK         0.1400 
    101 CB        -4.4467  -26.6172  -55.4503 C.3       18 UNK        -0.1800 
    102 C         -5.3417  -24.2098  -55.2639 C.2       18 UNK         0.5000 
    103 O         -5.9747  -24.3425  -56.3131 O.2       18 UNK        -0.5000 
    104 N         -5.0603  -23.0212  -54.7157 N.am      19 UNK        -0.5000 
    105 CA        -5.4650  -21.7172  -55.2210 C.3       19 UNK         0.1400 
    106 CB        -4.1994  -20.9132  -55.5798 C.3       19 UNK        -0.1800 
    107 C         -6.3591  -21.0564  -54.1565 C.2       19 UNK         0.5000 
    108 O         -7.3621  -21.6566  -53.7645 O.2       19 UNK        -0.5000 
    109 N         -6.0021  -19.8480  -53.7059 N.am      20 UNK        -0.5000 
    110 CA        -6.7591  -19.0674  -52.7267 C.3       20 UNK         0.1400 
    111 CB        -7.7846  -18.1804  -53.4596 C.3       20 UNK        -0.1800 
    112 C         -5.8197  -18.2650  -51.8086 C.2       20 UNK         0.5000 
    113 O         -6.1605  -17.1498  -51.4137 O.2       20 UNK        -0.5000 
    114 N         -4.6310  -18.8185  -51.5179 N.am      21 UNK        -0.5000 
    115 CA        -3.5468  -18.2694  -50.6809 C.3       21 UNK         0.1400 
    116 CB        -4.0260  -18.0146  -49.2392 C.3       21 UNK        -0.1800 
    117 C         -2.8156  -17.0399  -51.2694 C.2       21 UNK         0.5000 
    118 O         -1.6530  -16.8152  -50.9385 O.2       21 UNK        -0.5000 
    119 N         -3.4819  -16.3085  -52.1696 N.am      22 UNK        -0.5000 
    120 CA        -2.9091  -15.3676  -53.1487 C.3       22 UNK         0.1400 
    121 C         -2.2963  -14.0633  -52.5552 C.2       22 UNK         0.5000 
    122 N         -2.5400  -13.7370  -51.2941 N.am      22 UNK        -0.7600 
    123 O         -1.6107  -13.3219  -53.2546 O.2       22 UNK        -0.5000 
    124 C124       -1.9429  -16.0644  -54.1513 C.3       23 UNK        -0.0398 
    125 S125       -2.6082  -17.6346  -54.8273 S.3       23 UNK        -0.2404 
    126 C126       -1.1121  -18.6436  -55.0987 C.3       23 UNK        -0.0205 
    127 H127        4.5950  -13.1228  -48.5596 H         1 UNK         0.0600 
    128 H128        3.0181  -12.5093  -48.0377 H         1 UNK         0.0600 
    129 H129        4.2830  -11.3882  -48.5188 H         1 UNK         0.0600 
    130 H130        2.2806  -13.4350  -51.5581 H         1 UNK         0.3000 
    131 H131        2.8047  -14.7743  -49.0023 H         1 UNK         0.0600 
    132 H132        1.2734  -16.5541  -50.0669 H         1 UNK         0.0800 
    133 H133        1.2965  -15.5988  -51.5258 H         1 UNK         0.0800 
    134 H134        3.0934  -16.5742  -53.4077 H         1 UNK         0.0800 
    135 H135        3.9524  -18.0186  -52.9262 H         1 UNK         0.0800 
    136 H136        1.2927  -17.4712  -54.6603 H         1 UNK         0.1150 
    137 H137       -1.5764  -20.0422  -52.7894 H         1 UNK         0.1150 
    138 H138        2.0812  -19.0829  -50.7698 H         1 UNK         0.1150 
    139 H139        0.4552  -21.2858  -50.2828 H         1 UNK         0.0800 
    140 H140       -1.2160  -20.8849  -50.5988 H         1 UNK         0.0800 
    141 H141       -2.3416  -20.5169  -48.5369 H         1 UNK         0.0800 
    142 H142       -1.8300  -19.6497  -47.1181 H         1 UNK         0.0800 
    143 H143       -0.3467  -22.1402  -48.0663 H         1 UNK         0.0600 
    144 H144        0.0461  -20.4569  -45.7895 H         1 UNK         0.3000 
    145 H145        1.7626  -22.9396  -43.8234 H         1 UNK         0.0600 
    146 H146        3.3938  -21.0733  -43.7191 H         1 UNK         0.0600 
    147 H147        3.4699  -21.8746  -45.2808 H         1 UNK         0.0600 
    148 H148        2.6625  -20.3208  -45.1347 H         1 UNK         0.0600 
    149 H149        1.0317  -20.2749  -43.1909 H         1 UNK         0.3000 
    150 H150       -2.2645  -20.9895  -41.9436 H         1 UNK         0.0600 
    151 H151       -0.6535  -21.5305  -40.1077 H         1 UNK         0.0600 
    152 H152       -1.3029  -19.9063  -39.9488 H         1 UNK         0.0600 
    153 H153        0.3331  -20.1454  -40.5595 H         1 UNK         0.0600 
    154 H154       -0.8442  -18.5473  -42.0664 H         1 UNK         0.3000 
    155 H155       -1.8558  -17.5841  -45.3902 H         1 UNK         0.0600 
    156 H156       -3.6645  -16.9023  -43.8349 H         1 UNK         0.0600 
    157 H157       -2.5203  -15.5869  -44.0635 H         1 UNK         0.0600 
    158 H158       -2.4865  -16.5392  -42.5807 H         1 UNK         0.0600 
    159 H159       -0.1487  -16.3027  -43.5043 H         1 UNK         0.3000 
    160 H160        2.9176  -17.8330  -44.5370 H         1 UNK         0.0600 
    161 H161        1.7811  -15.0085  -44.9088 H         1 UNK         0.0600 
    162 H162        2.5520  -15.9967  -46.1468 H         1 UNK         0.0600 
    163 H163        3.4898  -15.4162  -44.7829 H         1 UNK         0.0600 
    164 H164        2.1399  -15.8511  -42.5710 H         1 UNK         0.3000 
    165 H165        1.8831  -18.1421  -39.8463 H         1 UNK         0.0600 
    166 H166        3.6289  -16.6455  -38.9248 H         1 UNK         0.0600 
    167 H167        4.3323  -17.7232  -40.1199 H         1 UNK         0.0600 
    168 H168        4.0113  -16.0444  -40.5382 H         1 UNK         0.0600 
    169 H169        1.7074  -15.2925  -40.0012 H         1 UNK         0.3000 
    170 H170       -1.7626  -15.0748  -40.7565 H         1 UNK         0.0600 
    171 H171       -1.7168  -15.6049  -38.3122 H         1 UNK         0.0600 
    172 H172       -0.2966  -14.5859  -38.1095 H         1 UNK         0.0600 
    173 H173       -1.8369  -13.8762  -38.5950 H         1 UNK         0.0600 
    174 H174        0.0069  -13.0272  -40.0559 H         1 UNK         0.3000 
    175 H175        0.3899  -11.4763  -41.7852 H         1 UNK         0.0600 
    176 H176        2.9474  -13.0914  -42.3846 H         1 UNK         0.0600 
    177 H177        2.8858  -11.3484  -42.1341 H         1 UNK         0.0600 
    178 H178        2.4954  -12.4376  -40.8134 H         1 UNK         0.0600 
    179 H179        0.8766  -12.9165  -44.2973 H         1 UNK         0.3000 
    180 H180       -0.4691  -10.4350  -46.1995 H         1 UNK         0.0600 
    181 H181        2.5795  -10.7614  -46.2872 H         1 UNK         0.0600 
    182 H182        1.7012   -9.2389  -46.2551 H         1 UNK         0.0600 
    183 H183        1.5625  -10.2927  -47.6525 H         1 UNK         0.0600 
    184 H184        1.1891  -12.7398  -46.8191 H         1 UNK         0.3000 
    185 H185       -0.4705  -15.1701  -46.1675 H         1 UNK         0.0600 
    186 H186       -2.7581  -15.0597  -46.9958 H         1 UNK         0.0600 
    187 H187       -2.2365  -14.3440  -48.5158 H         1 UNK         0.0600 
    188 H188       -1.8008  -16.0058  -48.1260 H         1 UNK         0.0600 
    189 H189        1.1571  -15.4479  -47.6151 H         1 UNK         0.3000 
    190 H190       -2.4400  -21.5506  -45.1778 H         1 UNK         0.3000 
    191 H191       -4.5810  -23.1768  -45.9666 H         1 UNK         0.0600 
    192 H192       -3.5802  -22.6216  -43.1263 H         1 UNK         0.0600 
    193 H193       -4.6572  -21.5819  -44.0570 H         1 UNK         0.0600 
    194 H194       -5.1865  -23.1833  -43.5637 H         1 UNK         0.0600 
    195 H195       -1.6276  -24.1048  -44.1614 H         1 UNK         0.3000 
    196 H196       -2.2175  -26.8599  -43.8199 H         1 UNK         0.0600 
    197 H197        0.2439  -27.0376  -43.4063 H         1 UNK         0.0600 
    198 H198       -0.4466  -25.6590  -42.5630 H         1 UNK         0.0600 
    199 H199        0.4766  -25.4134  -44.0438 H         1 UNK         0.0600 
    200 H200       -1.1165  -25.1037  -46.6452 H         1 UNK         0.3000 
    201 H201       -0.4337  -27.5494  -48.1713 H         1 UNK         0.0600 
    202 H202        0.4216  -25.9397  -49.8319 H         1 UNK         0.0600 
    203 H203        1.0876  -25.5486  -48.2556 H         1 UNK         0.0600 
    204 H204       -0.2268  -24.5833  -48.9202 H         1 UNK         0.0600 
    205 H205       -3.2801  -26.3452  -47.2915 H         1 UNK         0.3000 
    206 H206       -5.3625  -26.2713  -48.0248 H         1 UNK         0.0600 
    207 H207       -4.9201  -28.6209  -48.7546 H         1 UNK         0.0600 
    208 H208       -6.0974  -27.8312  -49.7911 H         1 UNK         0.0600 
    209 H209       -4.4460  -28.0455  -50.3522 H         1 UNK         0.0600 
    210 H210       -3.9024  -24.0738  -48.5386 H         1 UNK         0.3000 
    211 H211       -3.9343  -22.0879  -49.4682 H         1 UNK         0.0600 
    212 H212       -6.4394  -22.3446  -49.6162 H         1 UNK         0.0600 
    213 H213       -5.7770  -21.3079  -50.8639 H         1 UNK         0.0600 
    214 H214       -6.2596  -22.9461  -51.2645 H         1 UNK         0.0600 
    215 H215       -2.5360  -24.5013  -50.6502 H         1 UNK         0.3000 
    216 H216       -1.1720  -25.1597  -52.2384 H         1 UNK         0.0600 
    217 H217        0.0503  -23.5640  -53.6414 H         1 UNK         0.0600 
    218 H218       -1.1306  -22.3035  -53.3320 H         1 UNK         0.0600 
    219 H219       -0.0990  -22.8985  -52.0268 H         1 UNK         0.0600 
    220 H220       -4.0682  -25.2553  -52.5671 H         1 UNK         0.3000 
    221 H221       -5.6944  -25.8065  -53.9138 H         1 UNK         0.0600 
    222 H222       -3.6584  -26.3227  -56.1432 H         1 UNK         0.0600 
    223 H223       -4.0958  -27.4832  -54.8892 H         1 UNK         0.0600 
    224 H224       -5.2984  -26.9436  -56.0481 H         1 UNK         0.0600 
    225 H225       -4.5535  -22.9962  -53.8386 H         1 UNK         0.3000 
    226 H226       -6.0713  -21.8214  -56.1227 H         1 UNK         0.0600 
    227 H227       -3.6062  -21.4390  -56.3281 H         1 UNK         0.0600 
    228 H228       -4.4524  -19.9399  -56.0017 H         1 UNK         0.0600 
    229 H229       -3.5586  -20.7526  -54.7118 H         1 UNK         0.0600 
    230 H230       -5.1638  -19.4170  -54.0718 H         1 UNK         0.3000 
    231 H231       -7.3074  -19.7420  -52.0662 H         1 UNK         0.0600 
    232 H232       -8.4008  -17.6219  -52.7539 H         1 UNK         0.0600 
    233 H233       -8.4606  -18.7798  -54.0697 H         1 UNK         0.0600 
    234 H234       -7.2934  -17.4593  -54.1138 H         1 UNK         0.0600 
    235 H235       -4.4324  -19.7231  -51.9262 H         1 UNK         0.3000 
    236 H236       -2.8020  -19.0626  -50.6364 H         1 UNK         0.0600 
    237 H237       -4.5412  -18.8854  -48.8337 H         1 UNK         0.0600 
    238 H238       -3.1812  -17.8071  -48.5833 H         1 UNK         0.0600 
    239 H239       -4.7033  -17.1626  -49.1781 H         1 UNK         0.0600 
    240 H240       -4.4673  -16.5134  -52.2804 H         1 UNK         0.3000 
    241 H241       -3.7651  -15.0224  -53.7290 H         1 UNK         0.0600 
    242 H242       -2.0896  -12.9276  -50.8955 H         1 UNK         0.3800 
    243 H243       -3.0755  -14.3584  -50.7110 H         1 UNK         0.3800 
    244 H244       -1.7250  -15.4038  -54.9917 H         1 UNK         0.0800 
    245 H245       -0.9900  -16.2442  -53.6562 H         1 UNK         0.0800 
    246 H246       -1.4127  -19.6413  -55.4202 H         1 UNK         0.0800 
    247 H247       -0.5519  -18.2164  -55.9318 H         1 UNK         0.0800 
@<TRIPOS>BOND
     1    1    2 1    
     2    1  127 1    
     3    1  128 1    
     4    1  129 1    
     5    2    3 2    
     6    2    4 am   BACKBONE|DICT|INTERRES
     7    4    5 1    
     8    4  130 1    
     9    5    6 1    
    10    5   65 1    
    11    5  131 1    
    12    6    7 1    
    13    6  132 1    
    14    6  133 1    
    15    7    8 1    
    16    8    9 1    
    17    8  134 1    
    18    8  135 1    
    19    9   10 ar   
    20    9   14 ar   
    21   10   11 ar   
    22   10  136 1    
    23   11   12 ar   
    24   11  126 1    
    25   12   13 ar   
    26   12  137 1    
    27   13   14 ar   
    28   13   15 1    
    29   14  138 1    
    30   15   16 1    
    31   15  139 1    
    32   15  140 1    
    33   16   17 1    
    34   17   18 1    
    35   17  141 1    
    36   17  142 1    
    37   18   19 1    
    38   18   67 1    
    39   18  143 1    
    40   19   20 am   BACKBONE|DICT|INTERRES
    41   19  144 1    
    42   20   21 2    
    43   20   22 1    
    44   22   23 1    
    45   22   24 1    
    46   22  145 1    
    47   23  146 1    
    48   23  147 1    
    49   23  148 1    
    50   24   25 am   BACKBONE|DICT|INTERRES
    51   24  149 1    
    52   25   26 2    
    53   25   27 1    
    54   27   28 1    
    55   27   29 1    
    56   27  150 1    
    57   28  151 1    
    58   28  152 1    
    59   28  153 1    
    60   29   30 am   BACKBONE|DICT|INTERRES
    61   29  154 1    
    62   30   31 2    
    63   30   32 1    
    64   32   33 1    
    65   32   34 1    
    66   32  155 1    
    67   33  156 1    
    68   33  157 1    
    69   33  158 1    
    70   34   35 am   BACKBONE|DICT|INTERRES
    71   34  159 1    
    72   35   36 2    
    73   35   37 1    
    74   37   38 1    
    75   37   39 1    
    76   37  160 1    
    77   38  161 1    
    78   38  162 1    
    79   38  163 1    
    80   39   40 am   BACKBONE|DICT|INTERRES
    81   39  164 1    
    82   40   41 2    
    83   40   42 1    
    84   42   43 1    
    85   42   44 1    
    86   42  165 1    
    87   43  166 1    
    88   43  167 1    
    89   43  168 1    
    90   44   45 am   BACKBONE|DICT|INTERRES
    91   44  169 1    
    92   45   46 2    
    93   45   47 1    
    94   47   48 1    
    95   47   49 1    
    96   47  170 1    
    97   48  171 1    
    98   48  172 1    
    99   48  173 1    
   100   49   50 am   BACKBONE|DICT|INTERRES
   101   49  174 1    
   102   50   51 2    
   103   50   52 1    
   104   52   53 1    
   105   52   54 1    
   106   52  175 1    
   107   53  176 1    
   108   53  177 1    
   109   53  178 1    
   110   54   55 am   BACKBONE|DICT|INTERRES
   111   54  179 1    
   112   55   56 2    
   113   55   57 1    
   114   57   58 1    
   115   57   59 1    
   116   57  180 1    
   117   58  181 1    
   118   58  182 1    
   119   58  183 1    
   120   59   60 am   BACKBONE|DICT|INTERRES
   121   59  184 1    
   122   60   61 2    
   123   60   62 1    
   124   62   63 1    
   125   62   64 1    
   126   62  185 1    
   127   63  186 1    
   128   63  187 1    
   129   63  188 1    
   130   64   65 am   BACKBONE|DICT|INTERRES
   131   64  189 1    
   132   65   66 2    
   133   67   68 2    
   134   67   69 am   BACKBONE|DICT|INTERRES
   135   69   70 1    
   136   69  190 1    
   137   70   71 1    
   138   70   72 1    
   139   70  191 1    
   140   71  192 1    
   141   71  193 1    
   142   71  194 1    
   143   72   73 2    
   144   72   74 am   BACKBONE|DICT|INTERRES
   145   74   75 1    
   146   74  195 1    
   147   75   76 1    
   148   75   77 1    
   149   75  196 1    
   150   76  197 1    
   151   76  198 1    
   152   76  199 1    
   153   77   78 2    
   154   77   79 am   BACKBONE|DICT|INTERRES
   155   79   80 1    
   156   79  200 1    
   157   80   81 1    
   158   80   82 1    
   159   80  201 1    
   160   81  202 1    
   161   81  203 1    
   162   81  204 1    
   163   82   83 2    
   164   82   84 am   BACKBONE|DICT|INTERRES
   165   84   85 1    
   166   84  205 1    
   167   85   86 1    
   168   85   87 1    
   169   85  206 1    
   170   86  207 1    
   171   86  208 1    
   172   86  209 1    
   173   87   88 2    
   174   87   89 am   BACKBONE|DICT|INTERRES
   175   89   90 1    
   176   89  210 1    
   177   90   91 1    
   178   90   92 1    
   179   90  211 1    
   180   91  212 1    
   181   91  213 1    
   182   91  214 1    
   183   92   93 2    
   184   92   94 am   BACKBONE|DICT|INTERRES
   185   94   95 1    
   186   94  215 1    
   187   95   96 1    
   188   95   97 1    
   189   95  216 1    
   190   96  217 1    
   191   96  218 1    
   192   96  219 1    
   193   97   98 2    
   194   97   99 am   BACKBONE|DICT|INTERRES
   195   99  100 1    
   196   99  220 1    
   197  100  101 1    
   198  100  102 1    
   199  100  221 1    
   200  101  222 1    
   201  101  223 1    
   202  101  224 1    
   203  102  103 2    
   204  102  104 am   BACKBONE|DICT|INTERRES
   205  104  105 1    
   206  104  225 1    
   207  105  106 1    
   208  105  107 1    
   209  105  226 1    
   210  106  227 1    
   211  106  228 1    
   212  106  229 1    
   213  107  108 2    
   214  107  109 am   BACKBONE|DICT|INTERRES
   215  109  110 1    
   216  109  230 1    
   217  110  111 1    
   218  110  112 1    
   219  110  231 1    
   220  111  232 1    
   221  111  233 1    
   222  111  234 1    
   223  112  113 2    
   224  112  114 am   BACKBONE|DICT|INTERRES
   225  114  115 1    
   226  114  235 1    
   227  115  116 1    
   228  115  117 1    
   229  115  236 1    
   230  116  237 1    
   231  116  238 1    
   232  116  239 1    
   233  117  118 2    
   234  117  119 am   BACKBONE|DICT|INTERRES
   235  119  120 1    
   236  119  240 1    
   237  120  121 1    
   238  120  124 1    
   239  120  241 1    
   240  121  122 am   BACKBONE|DICT|INTERRES
   241  121  123 2    
   242  122  242 1    
   243  122  243 1    
   244  124  125 1    
   245  124  244 1    
   246  124  245 1    
   247  125  126 1    
   248  126  246 1    
   249  126  247 1    
@<TRIPOS>SUBSTRUCTURE
     1 UNK         1 GROUP             0       ****    0 ROOT    
