@<TRIPOS>MOLECULE
3R540
247   249    1
SMALL
USER_CHARGES


@<TRIPOS>ATOM
      1 CA          5.0979  -13.7486  -48.9846 C.3       0 UNK        -0.1800 
      2 C           3.6192  -14.0999  -48.8992 C.2       0 UNK         0.5000 
      3 O           3.1996  -14.7294  -47.9296 O.2       0 UNK        -0.5000 
      4 N           2.8425  -13.6966  -49.9129 N.am      1 UNK        -0.5000 
      5 CA          1.4038  -13.9324  -50.0942 C.3       1 UNK         0.1400 
      6 C6          0.9157  -13.3116  -51.4276 C.3       23 UNK        -0.0398 
      7 S7          1.5898  -14.2185  -52.8621 S.3       23 UNK        -0.2404 
      8 C8          0.1098  -15.0570  -53.5190 C.3       23 UNK        -0.0205 
      9 C9         -0.6615  -15.8221  -52.4518 C.ar      23 UNK        -0.0193 
     10 C10        -1.9283  -15.3854  -52.0569 C.ar      23 UNK        -0.1150 
     11 C11        -2.6513  -16.0803  -51.0849 C.ar      23 UNK        -0.0193 
     12 C12        -2.0989  -17.2283  -50.5084 C.ar      23 UNK        -0.1150 
     13 C13        -0.8262  -17.6713  -50.8865 C.ar      23 UNK        -0.0193 
     14 C14        -0.1141  -16.9628  -51.8596 C.ar      23 UNK        -0.1150 
     15 C15        -0.2162  -18.9178  -50.2607 C.3       23 UNK        -0.0205 
     16 S16         0.1878  -18.6730  -48.5002 S.3       23 UNK        -0.2404 
     17 C17        -1.1805  -19.5711  -47.6937 C.3       23 UNK        -0.0398 
     18 CA         -0.7671  -21.0108  -47.3035 C.3       11 UNK         0.1400 
     19 N           0.1420  -21.0455  -46.1558 N.am      11 UNK        -0.5000 
     20 C           0.7875  -22.1368  -45.7217 C.2       10 UNK         0.5000 
     21 O           0.7514  -23.2248  -46.2956 O.2       10 UNK        -0.5000 
     22 CA          1.5560  -22.0073  -44.3929 C.3       10 UNK         0.1400 
     23 CB          2.9393  -21.3767  -44.6110 C.3       10 UNK        -0.1800 
     24 N           0.8102  -21.2468  -43.3867 N.am      10 UNK        -0.5000 
     25 C          -0.3553  -21.6464  -42.8564 C.2       9 UNK         0.5000 
     26 O          -0.8905  -22.7218  -43.1227 O.2       9 UNK        -0.5000 
     27 CA         -1.0672  -20.6716  -41.9019 C.3       9 UNK         0.1400 
     28 CB         -0.4855  -20.7783  -40.4847 C.3       9 UNK        -0.1800 
     29 N          -1.0080  -19.2838  -42.3613 N.am      9 UNK        -0.5000 
     30 C          -1.5808  -18.8276  -43.4849 C.2       8 UNK         0.5000 
     31 O          -2.2735  -19.5220  -44.2280 O.2       8 UNK        -0.5000 
     32 CA         -1.2734  -17.3712  -43.8844 C.3       8 UNK         0.1400 
     33 CB         -2.1619  -16.3834  -43.1166 C.3       8 UNK        -0.1800 
     34 N           0.1355  -17.0246  -43.6923 N.am      8 UNK        -0.5000 
     35 C           1.1490  -17.6337  -44.3251 C.2       7 UNK         0.5000 
     36 O           0.9923  -18.5087  -45.1733 O.2       7 UNK        -0.5000 
     37 CA          2.5735  -17.2390  -43.9113 C.3       7 UNK         0.1400 
     38 CB          3.0194  -15.9823  -44.6600 C.3       7 UNK        -0.1800 
     39 N           2.6778  -17.0208  -42.4707 N.am      7 UNK        -0.5000 
     40 C           2.6752  -18.0111  -41.5687 C.2       6 UNK         0.5000 
     41 O           2.6096  -19.2050  -41.8644 O.2       6 UNK        -0.5000 
     42 CA          2.7115  -17.5913  -40.0883 C.3       6 UNK         0.1400 
     43 CB          4.1386  -17.2145  -39.6624 C.3       6 UNK        -0.1800 
     44 N           1.8058  -16.4791  -39.7945 N.am      6 UNK        -0.5000 
     45 C           0.4712  -16.5495  -39.8906 C.2       5 UNK         0.5000 
     46 O          -0.1363  -17.5615  -40.2351 O.2       5 UNK        -0.5000 
     47 CA         -0.3234  -15.2698  -39.5789 C.3       5 UNK         0.1400 
     48 CB         -0.6282  -15.1830  -38.0759 C.3       5 UNK        -0.1800 
     49 N           0.3210  -14.0277  -40.0124 N.am      5 UNK        -0.5000 
     50 C           0.6930  -13.7315  -41.2655 C.2       4 UNK         0.5000 
     51 O           0.6329  -14.5315  -42.2043 O.2       4 UNK        -0.5000 
     52 CA          1.1656  -12.2803  -41.4882 C.3       4 UNK         0.1400 
     53 CB          2.3180  -11.8787  -40.5410 C.3       4 UNK        -0.1800 
     54 N           1.4865  -11.9996  -42.8905 N.am      4 UNK        -0.5000 
     55 C           2.5503  -12.4005  -43.5971 C.2       3 UNK         0.5000 
     56 O           3.5017  -13.0285  -43.1286 O.2       3 UNK        -0.5000 
     57 CA          2.5159  -12.0518  -45.0996 C.3       3 UNK         0.1400 
     58 CB          3.9164  -12.0615  -45.7346 C.3       3 UNK        -0.1800 
     59 N           1.6543  -12.9667  -45.8491 N.am      3 UNK        -0.5000 
     60 C           0.3145  -13.0023  -45.7995 C.2       2 UNK         0.5000 
     61 O          -0.3609  -12.2201  -45.1269 O.2       2 UNK        -0.5000 
     62 CA         -0.3751  -14.0846  -46.6622 C.3       2 UNK         0.1400 
     63 CB         -1.8772  -13.8189  -46.8877 C.3       2 UNK        -0.1800 
     64 N           0.3024  -14.3194  -47.9421 N.am      2 UNK        -0.5000 
     65 C           0.5722  -13.4185  -48.9003 C.2       1 UNK         0.5000 
     66 O           0.2298  -12.2351  -48.8601 O.2       1 UNK        -0.5000 
     67 C          -1.9998  -21.9081  -47.0765 C.2       11 UNK         0.5000 
     68 O          -2.3385  -22.6911  -47.9619 O.2       11 UNK        -0.5000 
     69 N          -2.6235  -21.8287  -45.8923 N.am      12 UNK        -0.5000 
     70 CA         -3.7530  -22.6774  -45.5021 C.3       12 UNK         0.1400 
     71 CB         -4.2958  -22.2341  -44.1359 C.3       12 UNK        -0.1800 
     72 C          -3.4016  -24.1779  -45.4985 C.2       12 UNK         0.5000 
     73 O          -4.1718  -24.9833  -46.0252 O.2       12 UNK        -0.5000 
     74 N          -2.2208  -24.5128  -44.9586 N.am      13 UNK        -0.5000 
     75 CA         -1.6542  -25.8626  -44.9408 C.3       13 UNK         0.1400 
     76 CB         -0.3916  -25.8768  -44.0667 C.3       13 UNK        -0.1800 
     77 C          -1.3503  -26.4237  -46.3436 C.2       13 UNK         0.5000 
     78 O          -1.4528  -27.6353  -46.5407 O.2       13 UNK        -0.5000 
     79 N          -1.0374  -25.5474  -47.3088 N.am      14 UNK        -0.5000 
     80 CA         -0.8372  -25.8660  -48.7255 C.3       14 UNK         0.1400 
     81 CB          0.0371  -24.7752  -49.3715 C.3       14 UNK        -0.1800 
     82 C          -2.1754  -26.0780  -49.4698 C.2       14 UNK         0.5000 
     83 O          -2.4147  -25.4585  -50.5087 O.2       14 UNK        -0.5000 
     84 N          -3.0241  -26.9521  -48.9089 N.am      15 UNK        -0.5000 
     85 CA         -4.3345  -27.3885  -49.3995 C.3       15 UNK         0.1400 
     86 CB         -4.1551  -28.3333  -50.6053 C.3       15 UNK        -0.1800 
     87 C          -5.3032  -26.2205  -49.6801 C.2       15 UNK         0.5000 
     88 O          -5.9436  -26.1919  -50.7319 O.2       15 UNK        -0.5000 
     89 N          -5.3764  -25.2734  -48.7317 N.am      16 UNK        -0.5000 
     90 CA         -6.1377  -24.0218  -48.8046 C.3       16 UNK         0.1400 
     91 CB         -7.6572  -24.2916  -48.8329 C.3       16 UNK        -0.1800 
     92 C          -5.6500  -23.1158  -49.9547 C.2       16 UNK         0.5000 
     93 O          -6.4489  -22.6658  -50.7778 O.2       16 UNK        -0.5000 
     94 N          -4.3306  -22.8783  -49.9724 N.am      17 UNK        -0.5000 
     95 CA         -3.5777  -22.0359  -50.9027 C.3       17 UNK         0.1400 
     96 CB         -3.9410  -20.5534  -50.6929 C.3       17 UNK        -0.1800 
     97 C          -3.6975  -22.4866  -52.3704 C.2       17 UNK         0.5000 
     98 O          -3.8217  -21.6478  -53.2624 O.2       17 UNK        -0.5000 
     99 N          -3.6301  -23.8052  -52.6029 N.am      18 UNK        -0.5000 
    100 CA        -3.7924  -24.4394  -53.9169 C.3       18 UNK         0.1400 
    101 CB        -3.8301  -25.9636  -53.7365 C.3       18 UNK        -0.1800 
    102 C         -2.7148  -24.0508  -54.9492 C.2       18 UNK         0.5000 
    103 O         -2.9588  -24.1516  -56.1521 O.2       18 UNK        -0.5000 
    104 N         -1.5500  -23.6050  -54.4631 N.am      19 UNK        -0.5000 
    105 CA        -0.4451  -23.0820  -55.2657 C.3       19 UNK         0.1400 
    106 CB         0.8400  -23.1638  -54.4254 C.3       19 UNK        -0.1800 
    107 C         -0.6723  -21.6378  -55.7648 C.2       19 UNK         0.5000 
    108 O          0.1138  -21.1646  -56.5871 O.2       19 UNK        -0.5000 
    109 N         -1.7053  -20.9551  -55.2551 N.am      20 UNK        -0.5000 
    110 CA        -2.0313  -19.5621  -55.5445 C.3       20 UNK         0.1400 
    111 CB        -1.7940  -18.7447  -54.2631 C.3       20 UNK        -0.1800 
    112 C         -3.4890  -19.4311  -56.0165 C.2       20 UNK         0.5000 
    113 O         -4.2324  -20.4142  -56.0550 O.2       20 UNK        -0.5000 
    114 N         -3.8830  -18.1958  -56.3520 N.am      21 UNK        -0.5000 
    115 CA        -5.2509  -17.8306  -56.7324 C.3       21 UNK         0.1400 
    116 CB        -5.2333  -16.4235  -57.3499 C.3       21 UNK        -0.1800 
    117 C         -6.2537  -17.8917  -55.5605 C.2       21 UNK         0.5000 
    118 O         -7.4582  -17.9801  -55.8026 O.2       21 UNK        -0.5000 
    119 N         -5.7457  -17.8352  -54.3221 N.am      22 UNK        -0.5000 
    120 CA        -6.5292  -17.9254  -53.0801 C.3       22 UNK         0.1400 
    121 C         -7.1489  -19.3253  -52.7985 C.2       22 UNK         0.5000 
    122 N         -6.6651  -20.4065  -53.3962 N.am      22 UNK        -0.7600 
    123 O         -8.0941  -19.4267  -52.0215 O.2       22 UNK        -0.5000 
    124 C124       -5.7102  -17.4431  -51.8562 C.3       23 UNK        -0.0398 
    125 S125       -5.2613  -15.6810  -51.9622 S.3       23 UNK        -0.2404 
    126 C126       -4.0118  -15.5609  -50.6422 C.3       23 UNK        -0.0205 
    127 H127        5.3227  -13.1479  -49.8663 H         1 UNK         0.0600 
    128 H128        5.6948  -14.6593  -49.0323 H         1 UNK         0.0600 
    129 H129        5.4062  -13.1864  -48.1038 H         1 UNK         0.0600 
    130 H130        3.2754  -13.1835  -50.6671 H         1 UNK         0.3000 
    131 H131        1.2565  -15.0131  -50.1494 H         1 UNK         0.0600 
    132 H132       -0.1732  -13.2969  -51.4845 H         1 UNK         0.0800 
    133 H133        1.2237  -12.2671  -51.5004 H         1 UNK         0.0800 
    134 H134       -0.5303  -14.3150  -53.9989 H         1 UNK         0.0800 
    135 H135        0.4145  -15.7493  -54.3050 H         1 UNK         0.0800 
    136 H136       -2.3566  -14.4989  -52.5036 H         1 UNK         0.1150 
    137 H137       -2.6531  -17.7680  -49.7548 H         1 UNK         0.1150 
    138 H138        0.8685  -17.2970  -52.1618 H         1 UNK         0.1150 
    139 H139       -0.8906  -19.7645  -50.3925 H         1 UNK         0.0800 
    140 H140        0.7029  -19.1898  -50.7817 H         1 UNK         0.0800 
    141 H141       -2.0403  -19.5731  -48.3627 H         1 UNK         0.0800 
    142 H142       -1.4929  -19.0092  -46.8129 H         1 UNK         0.0800 
    143 H143       -0.2299  -21.4451  -48.1498 H         1 UNK         0.0600 
    144 H144        0.2920  -20.1640  -45.6700 H         1 UNK         0.3000 
    145 H145        1.7066  -23.0146  -43.9993 H         1 UNK         0.0600 
    146 H146        3.4967  -21.3142  -43.6762 H         1 UNK         0.0600 
    147 H147        3.5320  -21.9737  -45.3049 H         1 UNK         0.0600 
    148 H148        2.8672  -20.3720  -45.0258 H         1 UNK         0.0600 
    149 H149        1.2072  -20.3628  -43.0919 H         1 UNK         0.3000 
    150 H150       -2.1187  -20.9615  -41.8564 H         1 UNK         0.0600 
    151 H151       -0.5195  -21.8070  -40.1238 H         1 UNK         0.0600 
    152 H152       -1.0518  -20.1685  -39.7806 H         1 UNK         0.0600 
    153 H153        0.5540  -20.4507  -40.4496 H         1 UNK         0.0600 
    154 H154       -0.4997  -18.6339  -41.7675 H         1 UNK         0.3000 
    155 H155       -1.4948  -17.2650  -44.9483 H         1 UNK         0.0600 
    156 H156       -2.0083  -16.4589  -42.0410 H         1 UNK         0.0600 
    157 H157       -1.9588  -15.3543  -43.4145 H         1 UNK         0.0600 
    158 H158       -3.2172  -16.5780  -43.3111 H         1 UNK         0.0600 
    159 H159        0.3434  -16.2818  -43.0307 H         1 UNK         0.3000 
    160 H160        3.2464  -18.0529  -44.1893 H         1 UNK         0.0600 
    161 H161        2.3531  -15.1502  -44.4451 H         1 UNK         0.0600 
    162 H162        3.0056  -16.1500  -45.7367 H         1 UNK         0.0600 
    163 H163        4.0319  -15.6870  -44.3851 H         1 UNK         0.0600 
    164 H164        2.6744  -16.0619  -42.1520 H         1 UNK         0.3000 
    165 H165        2.3942  -18.4503  -39.4931 H         1 UNK         0.0600 
    166 H166        4.1873  -16.9999  -38.5947 H         1 UNK         0.0600 
    167 H167        4.8331  -18.0320  -39.8606 H         1 UNK         0.0600 
    168 H168        4.5024  -16.3370  -40.1984 H         1 UNK         0.0600 
    169 H169        2.2242  -15.6042  -39.5152 H         1 UNK         0.3000 
    170 H170       -1.2744  -15.3401  -40.1089 H         1 UNK         0.0600 
    171 H171        0.2817  -15.0626  -37.4866 H         1 UNK         0.0600 
    172 H172       -1.2866  -14.3430  -37.8538 H         1 UNK         0.0600 
    173 H173       -1.1290  -16.0867  -37.7257 H         1 UNK         0.0600 
    174 H174        0.4077  -13.3111  -39.3066 H         1 UNK         0.3000 
    175 H175        0.3117  -11.6422  -41.2568 H         1 UNK         0.0600 
    176 H176        2.7008  -10.8872  -40.7832 H         1 UNK         0.0600 
    177 H177        3.1511  -12.5806  -40.5888 H         1 UNK         0.0600 
    178 H178        1.9842  -11.8458  -39.5037 H         1 UNK         0.0600 
    179 H179        0.7206  -11.6107  -43.4296 H         1 UNK         0.3000 
    180 H180        2.1170  -11.0401  -45.1989 H         1 UNK         0.0600 
    181 H181        4.3520  -13.0617  -45.7343 H         1 UNK         0.0600 
    182 H182        4.5973  -11.4050  -45.1916 H         1 UNK         0.0600 
    183 H183        3.8802  -11.7095  -46.7654 H         1 UNK         0.0600 
    184 H184        2.1282  -13.6401  -46.4413 H         1 UNK         0.3000 
    185 H185       -0.2885  -15.0144  -46.0978 H         1 UNK         0.0600 
    186 H186       -2.4132  -13.7741  -45.9389 H         1 UNK         0.0600 
    187 H187       -2.0469  -12.8747  -47.4059 H         1 UNK         0.0600 
    188 H188       -2.3328  -14.6130  -47.4797 H         1 UNK         0.0600 
    189 H189        0.6909  -15.2461  -48.0565 H         1 UNK         0.3000 
    190 H190       -2.3249  -21.1272  -45.2191 H         1 UNK         0.3000 
    191 H191       -4.5423  -22.5235  -46.2390 H         1 UNK         0.0600 
    192 H192       -4.6049  -21.1889  -44.1546 H         1 UNK         0.0600 
    193 H193       -5.1667  -22.8261  -43.8522 H         1 UNK         0.0600 
    194 H194       -3.5518  -22.3485  -43.3482 H         1 UNK         0.0600 
    195 H195       -1.6719  -23.7878  -44.5031 H         1 UNK         0.3000 
    196 H196       -2.3923  -26.5220  -44.4798 H         1 UNK         0.0600 
    197 H197        0.0350  -26.8791  -44.0110 H         1 UNK         0.0600 
    198 H198       -0.6142  -25.5614  -43.0472 H         1 UNK         0.0600 
    199 H199        0.3782  -25.2136  -44.4613 H         1 UNK         0.0600 
    200 H200       -0.9746  -24.5674  -47.0620 H         1 UNK         0.3000 
    201 H201       -0.2858  -26.8058  -48.7929 H         1 UNK         0.0600 
    202 H202        0.9803  -24.6584  -48.8375 H         1 UNK         0.0600 
    203 H203       -0.4619  -23.8069  -49.3820 H         1 UNK         0.0600 
    204 H204        0.2783  -25.0290  -50.4044 H         1 UNK         0.0600 
    205 H205       -2.7143  -27.3844  -48.0441 H         1 UNK         0.3000 
    206 H206       -4.7879  -27.9674  -48.5938 H         1 UNK         0.0600 
    207 H207       -3.5337  -29.1895  -50.3433 H         1 UNK         0.0600 
    208 H208       -5.1140  -28.7235  -50.9481 H         1 UNK         0.0600 
    209 H209       -3.6847  -27.8271  -51.4474 H         1 UNK         0.0600 
    210 H210       -4.8121  -25.3837  -47.8941 H         1 UNK         0.3000 
    211 H211       -5.9266  -23.4822  -47.8816 H         1 UNK         0.0600 
    212 H212       -7.9687  -24.7887  -49.7518 H         1 UNK         0.0600 
    213 H213       -8.2174  -23.3585  -48.7635 H         1 UNK         0.0600 
    214 H214       -7.9619  -24.9161  -47.9932 H         1 UNK         0.0600 
    215 H215       -3.7581  -23.2845  -49.2395 H         1 UNK         0.3000 
    216 H216       -2.5263  -22.1566  -50.6387 H         1 UNK         0.0600 
    217 H217       -3.2892  -19.9046  -51.2777 H         1 UNK         0.0600 
    218 H218       -3.8413  -20.2659  -49.6475 H         1 UNK         0.0600 
    219 H219       -4.9680  -20.3499  -50.9932 H         1 UNK         0.0600 
    220 H220       -3.4579  -24.4262  -51.8162 H         1 UNK         0.3000 
    221 H221       -4.7550  -24.1182  -54.3199 H         1 UNK         0.0600 
    222 H222       -2.9120  -26.3346  -53.2793 H         1 UNK         0.0600 
    223 H223       -4.6667  -26.2628  -53.1061 H         1 UNK         0.0600 
    224 H224       -3.9507  -26.4713  -54.6942 H         1 UNK         0.0600 
    225 H225       -1.4417  -23.5668  -53.4604 H         1 UNK         0.3000 
    226 H226       -0.3195  -23.7164  -56.1455 H         1 UNK         0.0600 
    227 H227        1.0420  -24.1879  -54.1110 H         1 UNK         0.0600 
    228 H228        1.7051  -22.8254  -54.9972 H         1 UNK         0.0600 
    229 H229        0.7752  -22.5435  -53.5304 H         1 UNK         0.0600 
    230 H230       -2.3697  -21.4261  -54.6480 H         1 UNK         0.3000 
    231 H231       -1.3930  -19.1711  -56.3392 H         1 UNK         0.0600 
    232 H232       -2.4612  -19.0534  -53.4575 H         1 UNK         0.0600 
    233 H233       -1.9500  -17.6787  -54.4298 H         1 UNK         0.0600 
    234 H234       -0.7702  -18.8665  -53.9101 H         1 UNK         0.0600 
    235 H235       -3.2151  -17.4395  -56.3098 H         1 UNK         0.3000 
    236 H236       -5.5938  -18.5345  -57.4938 H         1 UNK         0.0600 
    237 H237       -4.5822  -16.3832  -58.2234 H         1 UNK         0.0600 
    238 H238       -6.2310  -16.1275  -57.6768 H         1 UNK         0.0600 
    239 H239       -4.8868  -15.6752  -56.6359 H         1 UNK         0.0600 
    240 H240       -4.7473  -17.7458  -54.2154 H         1 UNK         0.3000 
    241 H241       -7.3783  -17.2479  -53.1908 H         1 UNK         0.0600 
    242 H242       -5.8520  -20.3604  -53.9944 H         1 UNK         0.3800 
    243 H243       -7.0546  -21.3048  -53.1586 H         1 UNK         0.3800 
    244 H244       -6.2717  -17.5832  -50.9304 H         1 UNK         0.0800 
    245 H245       -4.7985  -18.0324  -51.7589 H         1 UNK         0.0800 
    246 H246       -3.9086  -14.5141  -50.3530 H         1 UNK         0.0800 
    247 H247       -4.3639  -16.0874  -49.7537 H         1 UNK         0.0800 
@<TRIPOS>BOND
     1    1    2 1    
     2    1  127 1    
     3    1  128 1    
     4    1  129 1    
     5    2    3 2    
     6    2    4 am   BACKBONE|DICT|INTERRES
     7    4    5 1    
     8    4  130 1    
     9    5    6 1    
    10    5   65 1    
    11    5  131 1    
    12    6    7 1    
    13    6  132 1    
    14    6  133 1    
    15    7    8 1    
    16    8    9 1    
    17    8  134 1    
    18    8  135 1    
    19    9   10 ar   
    20    9   14 ar   
    21   10   11 ar   
    22   10  136 1    
    23   11   12 ar   
    24   11  126 1    
    25   12   13 ar   
    26   12  137 1    
    27   13   14 ar   
    28   13   15 1    
    29   14  138 1    
    30   15   16 1    
    31   15  139 1    
    32   15  140 1    
    33   16   17 1    
    34   17   18 1    
    35   17  141 1    
    36   17  142 1    
    37   18   19 1    
    38   18   67 1    
    39   18  143 1    
    40   19   20 am   BACKBONE|DICT|INTERRES
    41   19  144 1    
    42   20   21 2    
    43   20   22 1    
    44   22   23 1    
    45   22   24 1    
    46   22  145 1    
    47   23  146 1    
    48   23  147 1    
    49   23  148 1    
    50   24   25 am   BACKBONE|DICT|INTERRES
    51   24  149 1    
    52   25   26 2    
    53   25   27 1    
    54   27   28 1    
    55   27   29 1    
    56   27  150 1    
    57   28  151 1    
    58   28  152 1    
    59   28  153 1    
    60   29   30 am   BACKBONE|DICT|INTERRES
    61   29  154 1    
    62   30   31 2    
    63   30   32 1    
    64   32   33 1    
    65   32   34 1    
    66   32  155 1    
    67   33  156 1    
    68   33  157 1    
    69   33  158 1    
    70   34   35 am   BACKBONE|DICT|INTERRES
    71   34  159 1    
    72   35   36 2    
    73   35   37 1    
    74   37   38 1    
    75   37   39 1    
    76   37  160 1    
    77   38  161 1    
    78   38  162 1    
    79   38  163 1    
    80   39   40 am   BACKBONE|DICT|INTERRES
    81   39  164 1    
    82   40   41 2    
    83   40   42 1    
    84   42   43 1    
    85   42   44 1    
    86   42  165 1    
    87   43  166 1    
    88   43  167 1    
    89   43  168 1    
    90   44   45 am   BACKBONE|DICT|INTERRES
    91   44  169 1    
    92   45   46 2    
    93   45   47 1    
    94   47   48 1    
    95   47   49 1    
    96   47  170 1    
    97   48  171 1    
    98   48  172 1    
    99   48  173 1    
   100   49   50 am   BACKBONE|DICT|INTERRES
   101   49  174 1    
   102   50   51 2    
   103   50   52 1    
   104   52   53 1    
   105   52   54 1    
   106   52  175 1    
   107   53  176 1    
   108   53  177 1    
   109   53  178 1    
   110   54   55 am   BACKBONE|DICT|INTERRES
   111   54  179 1    
   112   55   56 2    
   113   55   57 1    
   114   57   58 1    
   115   57   59 1    
   116   57  180 1    
   117   58  181 1    
   118   58  182 1    
   119   58  183 1    
   120   59   60 am   BACKBONE|DICT|INTERRES
   121   59  184 1    
   122   60   61 2    
   123   60   62 1    
   124   62   63 1    
   125   62   64 1    
   126   62  185 1    
   127   63  186 1    
   128   63  187 1    
   129   63  188 1    
   130   64   65 am   BACKBONE|DICT|INTERRES
   131   64  189 1    
   132   65   66 2    
   133   67   68 2    
   134   67   69 am   BACKBONE|DICT|INTERRES
   135   69   70 1    
   136   69  190 1    
   137   70   71 1    
   138   70   72 1    
   139   70  191 1    
   140   71  192 1    
   141   71  193 1    
   142   71  194 1    
   143   72   73 2    
   144   72   74 am   BACKBONE|DICT|INTERRES
   145   74   75 1    
   146   74  195 1    
   147   75   76 1    
   148   75   77 1    
   149   75  196 1    
   150   76  197 1    
   151   76  198 1    
   152   76  199 1    
   153   77   78 2    
   154   77   79 am   BACKBONE|DICT|INTERRES
   155   79   80 1    
   156   79  200 1    
   157   80   81 1    
   158   80   82 1    
   159   80  201 1    
   160   81  202 1    
   161   81  203 1    
   162   81  204 1    
   163   82   83 2    
   164   82   84 am   BACKBONE|DICT|INTERRES
   165   84   85 1    
   166   84  205 1    
   167   85   86 1    
   168   85   87 1    
   169   85  206 1    
   170   86  207 1    
   171   86  208 1    
   172   86  209 1    
   173   87   88 2    
   174   87   89 am   BACKBONE|DICT|INTERRES
   175   89   90 1    
   176   89  210 1    
   177   90   91 1    
   178   90   92 1    
   179   90  211 1    
   180   91  212 1    
   181   91  213 1    
   182   91  214 1    
   183   92   93 2    
   184   92   94 am   BACKBONE|DICT|INTERRES
   185   94   95 1    
   186   94  215 1    
   187   95   96 1    
   188   95   97 1    
   189   95  216 1    
   190   96  217 1    
   191   96  218 1    
   192   96  219 1    
   193   97   98 2    
   194   97   99 am   BACKBONE|DICT|INTERRES
   195   99  100 1    
   196   99  220 1    
   197  100  101 1    
   198  100  102 1    
   199  100  221 1    
   200  101  222 1    
   201  101  223 1    
   202  101  224 1    
   203  102  103 2    
   204  102  104 am   BACKBONE|DICT|INTERRES
   205  104  105 1    
   206  104  225 1    
   207  105  106 1    
   208  105  107 1    
   209  105  226 1    
   210  106  227 1    
   211  106  228 1    
   212  106  229 1    
   213  107  108 2    
   214  107  109 am   BACKBONE|DICT|INTERRES
   215  109  110 1    
   216  109  230 1    
   217  110  111 1    
   218  110  112 1    
   219  110  231 1    
   220  111  232 1    
   221  111  233 1    
   222  111  234 1    
   223  112  113 2    
   224  112  114 am   BACKBONE|DICT|INTERRES
   225  114  115 1    
   226  114  235 1    
   227  115  116 1    
   228  115  117 1    
   229  115  236 1    
   230  116  237 1    
   231  116  238 1    
   232  116  239 1    
   233  117  118 2    
   234  117  119 am   BACKBONE|DICT|INTERRES
   235  119  120 1    
   236  119  240 1    
   237  120  121 1    
   238  120  124 1    
   239  120  241 1    
   240  121  122 am   BACKBONE|DICT|INTERRES
   241  121  123 2    
   242  122  242 1    
   243  122  243 1    
   244  124  125 1    
   245  124  244 1    
   246  124  245 1    
   247  125  126 1    
   248  126  246 1    
   249  126  247 1    
@<TRIPOS>SUBSTRUCTURE
     1 UNK         1 GROUP             0       ****    0 ROOT    
