@<TRIPOS>MOLECULE
3R540
247   249    1
SMALL
USER_CHARGES


@<TRIPOS>ATOM
      1 CA         -3.8447  -13.4711  -44.9517 C.3       0 UNK        -0.1800 
      2 C          -3.0953  -13.1088  -46.2271 C.2       0 UNK         0.5000 
      3 O          -3.1741  -11.9677  -46.6833 O.2       0 UNK        -0.5000 
      4 N          -2.3735  -14.0790  -46.8003 N.am      1 UNK        -0.5000 
      5 CA         -1.5003  -13.9163  -47.9697 C.3       1 UNK         0.1400 
      6 C6         -1.1413  -15.2813  -48.6167 C.3       23 UNK        -0.0398 
      7 S7         -2.6182  -16.2350  -49.1143 S.3       23 UNK        -0.2404 
      8 C8         -2.1747  -17.9238  -48.5955 C.3       23 UNK        -0.0205 
      9 C9         -1.0348  -18.4979  -49.4212 C.ar      23 UNK        -0.0193 
     10 C10        -1.2634  -18.9179  -50.7325 C.ar      23 UNK        -0.1150 
     11 C11        -0.2363  -19.4729  -51.5012 C.ar      23 UNK        -0.0193 
     12 C12         1.0347  -19.6114  -50.9328 C.ar      23 UNK        -0.1150 
     13 C13         1.2790  -19.1975  -49.6186 C.ar      23 UNK        -0.0193 
     14 C14         0.2420  -18.6300  -48.8730 C.ar      23 UNK        -0.1150 
     15 C15         2.6680  -19.3473  -49.0151 C.3       23 UNK        -0.0205 
     16 S16         2.9259  -20.9960  -48.2842 S.3       23 UNK        -0.2404 
     17 C17         2.0653  -20.8295  -46.6832 C.3       23 UNK        -0.0398 
     18 CA          1.4620  -22.1555  -46.1646 C.3       11 UNK         0.1400 
     19 N           1.1204  -22.0626  -44.7451 N.am      11 UNK        -0.5000 
     20 C           0.7456  -23.0863  -43.9662 C.2       10 UNK         0.5000 
     21 O           0.6822  -24.2541  -44.3495 O.2       10 UNK        -0.5000 
     22 CA          0.3423  -22.7354  -42.5234 C.3       10 UNK         0.1400 
     23 CB          1.5788  -22.5889  -41.6233 C.3       10 UNK        -0.1800 
     24 N          -0.4530  -21.5089  -42.4675 N.am      10 UNK        -0.5000 
     25 C          -1.7262  -21.4192  -42.8769 C.2       9 UNK         0.5000 
     26 O          -2.3822  -22.3772  -43.2875 O.2       9 UNK        -0.5000 
     27 CA         -2.3640  -20.0168  -42.8480 C.3       9 UNK         0.1400 
     28 CB         -2.9269  -19.7090  -41.4527 C.3       9 UNK        -0.1800 
     29 N          -1.4373  -18.9534  -43.2432 N.am      9 UNK        -0.5000 
     30 C          -0.8887  -18.8477  -44.4618 C.2       8 UNK         0.5000 
     31 O          -1.1186  -19.6216  -45.3869 O.2       8 UNK        -0.5000 
     32 CA          0.1256  -17.7177  -44.6837 C.3       8 UNK         0.1400 
     33 CB         -0.5972  -16.3999  -44.9876 C.3       8 UNK        -0.1800 
     34 N           1.0394  -17.5324  -43.5616 N.am      8 UNK        -0.5000 
     35 C           1.8775  -18.4580  -43.0768 C.2       7 UNK         0.5000 
     36 O           1.9586  -19.6044  -43.5167 O.2       7 UNK        -0.5000 
     37 CA          2.7503  -18.0371  -41.8862 C.3       7 UNK         0.1400 
     38 CB          3.9939  -17.2803  -42.3716 C.3       7 UNK        -0.1800 
     39 N           1.9992  -17.1931  -40.9585 N.am      7 UNK        -0.5000 
     40 C           1.2460  -17.6641  -39.9568 C.2       6 UNK         0.5000 
     41 O           1.1518  -18.8592  -39.6744 O.2       6 UNK        -0.5000 
     42 CA          0.4513  -16.6278  -39.1385 C.3       6 UNK         0.1400 
     43 CB          1.3151  -16.0624  -38.0009 C.3       6 UNK        -0.1800 
     44 N          -0.0740  -15.5193  -39.9392 N.am      6 UNK        -0.5000 
     45 C          -0.9961  -15.6493  -40.9022 C.2       5 UNK         0.5000 
     46 O          -1.4752  -16.7279  -41.2541 O.2       5 UNK        -0.5000 
     47 CA         -1.4387  -14.3579  -41.6173 C.3       5 UNK         0.1400 
     48 CB         -2.4477  -13.5865  -40.7530 C.3       5 UNK        -0.1800 
     49 N          -0.3703  -13.4422  -42.0431 N.am      5 UNK        -0.5000 
     50 C           0.7840  -13.7633  -42.6454 C.2       4 UNK         0.5000 
     51 O           1.2292  -14.9089  -42.7189 O.2       4 UNK        -0.5000 
     52 CA          1.5514  -12.6013  -43.2961 C.3       4 UNK         0.1400 
     53 CB          2.5035  -11.9077  -42.3026 C.3       4 UNK        -0.1800 
     54 N           2.2122  -13.0430  -44.5304 N.am      4 UNK        -0.5000 
     55 C           3.3700  -13.7045  -44.6964 C.2       3 UNK         0.5000 
     56 O           4.1900  -13.9086  -43.8014 O.2       3 UNK        -0.5000 
     57 CA          3.6752  -14.2476  -46.1126 C.3       3 UNK         0.1400 
     58 CB          3.5113  -15.7772  -46.1425 C.3       3 UNK        -0.1800 
     59 N           2.8362  -13.6725  -47.1674 N.am      3 UNK        -0.5000 
     60 C           2.8838  -12.4022  -47.5908 C.2       2 UNK         0.5000 
     61 O           3.7374  -11.5960  -47.2194 O.2       2 UNK        -0.5000 
     62 CA          1.7816  -11.9359  -48.5695 C.3       2 UNK         0.1400 
     63 CB          2.3563  -11.7929  -49.9877 C.3       2 UNK        -0.1800 
     64 N           0.5717  -12.7711  -48.6375 N.am      2 UNK        -0.5000 
     65 C          -0.2258  -13.1115  -47.6135 C.2       1 UNK         0.5000 
     66 O           0.0343  -12.8402  -46.4379 O.2       1 UNK        -0.5000 
     67 C           0.2607  -22.6297  -47.0092 C.2       11 UNK         0.5000 
     68 O           0.4083  -23.5758  -47.7804 O.2       11 UNK        -0.5000 
     69 N          -0.9163  -22.0211  -46.7998 N.am      12 UNK        -0.5000 
     70 CA         -2.1778  -22.3141  -47.4887 C.3       12 UNK         0.1400 
     71 CB         -3.2805  -21.4081  -46.9206 C.3       12 UNK        -0.1800 
     72 C          -2.6248  -23.7849  -47.4054 C.2       12 UNK         0.5000 
     73 O          -3.2170  -24.2945  -48.3580 O.2       12 UNK        -0.5000 
     74 N          -2.3144  -24.4502  -46.2849 N.am      13 UNK        -0.5000 
     75 CA         -2.5991  -25.8676  -46.0596 C.3       13 UNK         0.1400 
     76 CB         -2.3438  -26.2032  -44.5827 C.3       13 UNK        -0.1800 
     77 C          -1.7940  -26.8080  -46.9798 C.2       13 UNK         0.5000 
     78 O          -2.2696  -27.9037  -47.2801 O.2       13 UNK        -0.5000 
     79 N          -0.6065  -26.3671  -47.4155 N.am      14 UNK        -0.5000 
     80 CA          0.2581  -27.0878  -48.3482 C.3       14 UNK         0.1400 
     81 CB          1.7185  -26.9385  -47.8930 C.3       14 UNK        -0.1800 
     82 C           0.0872  -26.5690  -49.7862 C.2       14 UNK         0.5000 
     83 O           0.0718  -27.3688  -50.7224 O.2       14 UNK        -0.5000 
     84 N          -0.0267  -25.2427  -49.9376 N.am      15 UNK        -0.5000 
     85 CA         -0.0919  -24.5415  -51.2194 C.3       15 UNK         0.1400 
     86 CB          0.2253  -23.0570  -50.9923 C.3       15 UNK        -0.1800 
     87 C          -1.4321  -24.7018  -51.9602 C.2       15 UNK         0.5000 
     88 O          -1.4395  -24.5585  -53.1810 O.2       15 UNK        -0.5000 
     89 N          -2.5041  -25.0222  -51.2200 N.am      16 UNK        -0.5000 
     90 CA         -3.8954  -25.2108  -51.6426 C.3       16 UNK         0.1400 
     91 CB         -4.0461  -26.0163  -52.9525 C.3       16 UNK        -0.1800 
     92 C          -4.6872  -23.8902  -51.6315 C.2       16 UNK         0.5000 
     93 O          -5.0273  -23.3490  -52.6863 O.2       16 UNK        -0.5000 
     94 N          -5.0074  -23.4491  -50.4081 N.am      17 UNK        -0.5000 
     95 CA         -5.8819  -22.3324  -50.0424 C.3       17 UNK         0.1400 
     96 CB         -7.2877  -22.4845  -50.6700 C.3       17 UNK        -0.1800 
     97 C          -5.2311  -20.9527  -50.2642 C.2       17 UNK         0.5000 
     98 O          -4.0101  -20.8306  -50.1657 O.2       17 UNK        -0.5000 
     99 N          -6.0662  -19.9250  -50.4702 N.am      18 UNK        -0.5000 
    100 CA        -5.6673  -18.5352  -50.6927 C.3       18 UNK         0.1400 
    101 CB        -6.9243  -17.6522  -50.6472 C.3       18 UNK        -0.1800 
    102 C         -4.9334  -18.3464  -52.0310 C.2       18 UNK         0.5000 
    103 O         -5.1101  -19.1503  -52.9452 O.2       18 UNK        -0.5000 
    104 N         -4.1696  -17.2518  -52.1462 N.am      19 UNK        -0.5000 
    105 CA        -3.3266  -16.9234  -53.3036 C.3       19 UNK         0.1400 
    106 CB        -2.5001  -15.6706  -52.9756 C.3       19 UNK        -0.1800 
    107 C         -4.0773  -16.7538  -54.6426 C.2       19 UNK         0.5000 
    108 O         -3.4503  -16.8337  -55.6992 O.2       19 UNK        -0.5000 
    109 N         -5.4003  -16.5478  -54.5819 N.am      20 UNK        -0.5000 
    110 CA        -6.3074  -16.5724  -55.7310 C.3       20 UNK         0.1400 
    111 CB        -7.6536  -15.9635  -55.3088 C.3       20 UNK        -0.1800 
    112 C         -6.5146  -17.9878  -56.3156 C.2       20 UNK         0.5000 
    113 O         -6.8936  -18.1037  -57.4821 O.2       20 UNK        -0.5000 
    114 N         -6.2709  -19.0267  -55.5056 N.am      21 UNK        -0.5000 
    115 CA        -6.2727  -20.4332  -55.8878 C.3       21 UNK         0.1400 
    116 CB        -7.0484  -21.2416  -54.8271 C.3       21 UNK        -0.1800 
    117 C         -4.8108  -20.8807  -56.0835 C.2       21 UNK         0.5000 
    118 O         -4.1535  -20.3742  -56.9950 O.2       21 UNK        -0.5000 
    119 N         -4.3271  -21.8177  -55.2562 N.am      22 UNK        -0.5000 
    120 CA        -2.9750  -22.4038  -55.3037 C.3       22 UNK         0.1400 
    121 C         -2.6518  -23.1919  -56.6123 C.2       22 UNK         0.5000 
    122 N         -3.6447  -23.7206  -57.3186 N.am      22 UNK        -0.7600 
    123 O         -1.4941  -23.3498  -56.9918 O.2       22 UNK        -0.5000 
    124 C124       -1.8560  -21.4020  -54.8938 C.3       23 UNK        -0.0398 
    125 S125       -2.0118  -20.8696  -53.1577 S.3       23 UNK        -0.2404 
    126 C126       -0.4825  -19.8978  -52.9474 C.3       23 UNK        -0.0205 
    127 H127       -3.4932  -12.8554  -44.1237 H         1 UNK         0.0600 
    128 H128       -3.7022  -14.5175  -44.6802 H         1 UNK         0.0600 
    129 H129       -4.9127  -13.2955  -45.0802 H         1 UNK         0.0600 
    130 H130       -2.3660  -14.9947  -46.3799 H         1 UNK         0.3000 
    131 H131       -2.0478  -13.3292  -48.7102 H         1 UNK         0.0600 
    132 H132       -0.5393  -15.1417  -49.5158 H         1 UNK         0.0800 
    133 H133       -0.5301  -15.8767  -47.9382 H         1 UNK         0.0800 
    134 H134       -3.0453  -18.5693  -48.7082 H         1 UNK         0.0800 
    135 H135       -1.9316  -17.9382  -47.5335 H         1 UNK         0.0800 
    136 H136       -2.2516  -18.8237  -51.1523 H         1 UNK         0.1150 
    137 H137        1.8388  -20.0423  -51.5125 H         1 UNK         0.1150 
    138 H138        0.4237  -18.2965  -47.8630 H         1 UNK         0.1150 
    139 H139        3.4186  -19.1890  -49.7908 H         1 UNK         0.0800 
    140 H140        2.8464  -18.5777  -48.2623 H         1 UNK         0.0800 
    141 H141        1.2949  -20.0634  -46.7408 H         1 UNK         0.0800 
    142 H142        2.8022  -20.4563  -45.9707 H         1 UNK         0.0800 
    143 H143        2.2341  -22.9239  -46.2446 H         1 UNK         0.0600 
    144 H144        1.2007  -21.1418  -44.3221 H         1 UNK         0.3000 
    145 H145       -0.2626  -23.5579  -42.1352 H         1 UNK         0.0600 
    146 H146        1.2925  -22.3859  -40.5911 H         1 UNK         0.0600 
    147 H147        2.1699  -23.5055  -41.6229 H         1 UNK         0.0600 
    148 H148        2.2301  -21.7796  -41.9541 H         1 UNK         0.0600 
    149 H149        0.0238  -20.6676  -42.1761 H         1 UNK         0.3000 
    150 H150       -3.1937  -20.0179  -43.5581 H         1 UNK         0.0600 
    151 H151       -3.6206  -20.4860  -41.1288 H         1 UNK         0.0600 
    152 H152       -3.4718  -18.7648  -41.4484 H         1 UNK         0.0600 
    153 H153       -2.1346  -19.6403  -40.7059 H         1 UNK         0.0600 
    154 H154       -1.2282  -18.2471  -42.5437 H         1 UNK         0.3000 
    155 H155        0.7306  -17.9822  -45.5517 H         1 UNK         0.0600 
    156 H156       -1.1534  -16.0458  -44.1222 H         1 UNK         0.0600 
    157 H157        0.1026  -15.6173  -45.2812 H         1 UNK         0.0600 
    158 H158       -1.3125  -16.5277  -45.7975 H         1 UNK         0.0600 
    159 H159        1.0663  -16.5980  -43.1555 H         1 UNK         0.3000 
    160 H160        3.0847  -18.9428  -41.3757 H         1 UNK         0.0600 
    161 H161        4.5725  -17.8843  -43.0717 H         1 UNK         0.0600 
    162 H162        3.7242  -16.3549  -42.8798 H         1 UNK         0.0600 
    163 H163        4.6500  -17.0253  -41.5395 H         1 UNK         0.0600 
    164 H164        1.9538  -16.2057  -41.1804 H         1 UNK         0.3000 
    165 H165       -0.3996  -17.1472  -38.6925 H         1 UNK         0.0600 
    166 H166        0.7364  -15.3986  -37.3583 H         1 UNK         0.0600 
    167 H167        1.7051  -16.8634  -37.3714 H         1 UNK         0.0600 
    168 H168        2.1681  -15.5009  -38.3840 H         1 UNK         0.0600 
    169 H169        0.2851  -14.5977  -39.7379 H         1 UNK         0.3000 
    170 H170       -1.9633  -14.6625  -42.5233 H         1 UNK         0.0600 
    171 H171       -3.2641  -14.2342  -40.4299 H         1 UNK         0.0600 
    172 H172       -1.9796  -13.1762  -39.8574 H         1 UNK         0.0600 
    173 H173       -2.8932  -12.7605  -41.3076 H         1 UNK         0.0600 
    174 H174       -0.6142  -12.4631  -42.0046 H         1 UNK         0.3000 
    175 H175        0.8175  -11.8621  -43.6208 H         1 UNK         0.0600 
    176 H176        3.1773  -12.6150  -41.8184 H         1 UNK         0.0600 
    177 H177        3.1078  -11.1474  -42.7973 H         1 UNK         0.0600 
    178 H178        1.9400  -11.4121  -41.5115 H         1 UNK         0.0600 
    179 H179        1.6108  -12.9723  -45.3470 H         1 UNK         0.3000 
    180 H180        4.7165  -14.0086  -46.3375 H         1 UNK         0.0600 
    181 H181        2.4882  -16.0762  -45.9141 H         1 UNK         0.0600 
    182 H182        4.1618  -16.2551  -45.4091 H         1 UNK         0.0600 
    183 H183        3.7721  -16.1855  -47.1190 H         1 UNK         0.0600 
    184 H184        2.1039  -14.2619  -47.5317 H         1 UNK         0.3000 
    185 H185        1.4654  -10.9471  -48.2316 H         1 UNK         0.0600 
    186 H186        1.6295  -11.3465  -50.6666 H         1 UNK         0.0600 
    187 H187        3.2374  -11.1496  -49.9925 H         1 UNK         0.0600 
    188 H188        2.6532  -12.7586  -50.3989 H         1 UNK         0.0600 
    189 H189        0.2923  -13.0385  -49.5703 H         1 UNK         0.3000 
    190 H190       -0.9460  -21.2306  -46.1578 H         1 UNK         0.3000 
    191 H191       -2.0415  -22.0703  -48.5439 H         1 UNK         0.0600 
    192 H192       -3.3941  -21.5405  -45.8442 H         1 UNK         0.0600 
    193 H193       -4.2449  -21.6213  -47.3812 H         1 UNK         0.0600 
    194 H194       -3.0606  -20.3582  -47.1071 H         1 UNK         0.0600 
    195 H195       -1.8244  -23.9586  -45.5500 H         1 UNK         0.3000 
    196 H196       -3.6584  -26.0323  -46.2672 H         1 UNK         0.0600 
    197 H197       -2.6155  -27.2369  -44.3655 H         1 UNK         0.0600 
    198 H198       -2.9341  -25.5657  -43.9240 H         1 UNK         0.0600 
    199 H199       -1.2937  -26.0785  -44.3174 H         1 UNK         0.0600 
    200 H200       -0.3070  -25.4350  -47.1531 H         1 UNK         0.3000 
    201 H201        0.0144  -28.1523  -48.3443 H         1 UNK         0.0600 
    202 H202        1.8623  -27.3513  -46.8944 H         1 UNK         0.0600 
    203 H203        2.0313  -25.8937  -47.8699 H         1 UNK         0.0600 
    204 H204        2.3935  -27.4694  -48.5653 H         1 UNK         0.0600 
    205 H205        0.0501  -24.6494  -49.1125 H         1 UNK         0.3000 
    206 H206        0.6875  -24.9542  -51.8634 H         1 UNK         0.0600 
    207 H207        1.1768  -22.9240  -50.4771 H         1 UNK         0.0600 
    208 H208        0.2984  -22.5327  -51.9443 H         1 UNK         0.0600 
    209 H209       -0.5476  -22.5621  -50.4033 H         1 UNK         0.0600 
    210 H210       -2.3666  -25.0602  -50.2171 H         1 UNK         0.3000 
    211 H211       -4.3368  -25.8347  -50.8635 H         1 UNK         0.0600 
    212 H212       -3.7349  -25.4486  -53.8291 H         1 UNK         0.0600 
    213 H213       -5.0884  -26.2946  -53.1107 H         1 UNK         0.0600 
    214 H214       -3.4640  -26.9373  -52.9210 H         1 UNK         0.0600 
    215 H215       -4.5520  -23.9036  -49.6206 H         1 UNK         0.3000 
    216 H216       -6.0093  -22.4192  -48.9628 H         1 UNK         0.0600 
    217 H217       -8.0068  -21.8085  -50.2067 H         1 UNK         0.0600 
    218 H218       -7.6718  -23.4951  -50.5304 H         1 UNK         0.0600 
    219 H219       -7.2811  -22.2777  -51.7404 H         1 UNK         0.0600 
    220 H220       -7.0519  -20.1220  -50.5540 H         1 UNK         0.3000 
    221 H221       -5.0001  -18.2367  -49.8838 H         1 UNK         0.0600 
    222 H222       -7.6261  -17.9098  -51.4417 H         1 UNK         0.0600 
    223 H223       -7.4437  -17.7540  -49.6941 H         1 UNK         0.0600 
    224 H224       -6.6698  -16.5978  -50.7630 H         1 UNK         0.0600 
    225 H225       -4.0877  -16.6312  -51.3528 H         1 UNK         0.3000 
    226 H226       -2.6354  -17.7559  -53.4429 H         1 UNK         0.0600 
    227 H227       -1.8554  -15.8400  -52.1129 H         1 UNK         0.0600 
    228 H228       -1.8535  -15.3964  -53.8101 H         1 UNK         0.0600 
    229 H229       -3.1386  -14.8138  -52.7578 H         1 UNK         0.0600 
    230 H230       -5.8268  -16.4859  -53.6697 H         1 UNK         0.3000 
    231 H231       -5.8809  -15.9488  -56.5194 H         1 UNK         0.0600 
    232 H232       -8.3504  -15.9366  -56.1477 H         1 UNK         0.0600 
    233 H233       -7.5309  -14.9390  -54.9571 H         1 UNK         0.0600 
    234 H234       -8.1230  -16.5401  -54.5106 H         1 UNK         0.0600 
    235 H235       -5.8976  -18.8490  -54.5755 H         1 UNK         0.3000 
    236 H236       -6.7803  -20.5672  -56.8449 H         1 UNK         0.0600 
    237 H237       -8.0802  -20.8975  -54.7549 H         1 UNK         0.0600 
    238 H238       -7.0809  -22.3012  -55.0833 H         1 UNK         0.0600 
    239 H239       -6.6036  -21.1521  -53.8357 H         1 UNK         0.0600 
    240 H240       -4.9051  -22.1584  -54.4958 H         1 UNK         0.3000 
    241 H241       -2.9985  -23.1795  -54.5428 H         1 UNK         0.0600 
    242 H242       -4.6007  -23.6135  -57.0197 H         1 UNK         0.3800 
    243 H243       -3.4363  -24.2340  -58.1605 H         1 UNK         0.3800 
    244 H244       -0.8731  -21.8646  -54.9945 H         1 UNK         0.0800 
    245 H245       -1.8558  -20.5268  -55.5443 H         1 UNK         0.0800 
    246 H246        0.3594  -20.4863  -53.3144 H         1 UNK         0.0800 
    247 H247       -0.5341  -19.0067  -53.5734 H         1 UNK         0.0800 
@<TRIPOS>BOND
     1    1    2 1    
     2    1  127 1    
     3    1  128 1    
     4    1  129 1    
     5    2    3 2    
     6    2    4 am   BACKBONE|DICT|INTERRES
     7    4    5 1    
     8    4  130 1    
     9    5    6 1    
    10    5   65 1    
    11    5  131 1    
    12    6    7 1    
    13    6  132 1    
    14    6  133 1    
    15    7    8 1    
    16    8    9 1    
    17    8  134 1    
    18    8  135 1    
    19    9   10 ar   
    20    9   14 ar   
    21   10   11 ar   
    22   10  136 1    
    23   11   12 ar   
    24   11  126 1    
    25   12   13 ar   
    26   12  137 1    
    27   13   14 ar   
    28   13   15 1    
    29   14  138 1    
    30   15   16 1    
    31   15  139 1    
    32   15  140 1    
    33   16   17 1    
    34   17   18 1    
    35   17  141 1    
    36   17  142 1    
    37   18   19 1    
    38   18   67 1    
    39   18  143 1    
    40   19   20 am   BACKBONE|DICT|INTERRES
    41   19  144 1    
    42   20   21 2    
    43   20   22 1    
    44   22   23 1    
    45   22   24 1    
    46   22  145 1    
    47   23  146 1    
    48   23  147 1    
    49   23  148 1    
    50   24   25 am   BACKBONE|DICT|INTERRES
    51   24  149 1    
    52   25   26 2    
    53   25   27 1    
    54   27   28 1    
    55   27   29 1    
    56   27  150 1    
    57   28  151 1    
    58   28  152 1    
    59   28  153 1    
    60   29   30 am   BACKBONE|DICT|INTERRES
    61   29  154 1    
    62   30   31 2    
    63   30   32 1    
    64   32   33 1    
    65   32   34 1    
    66   32  155 1    
    67   33  156 1    
    68   33  157 1    
    69   33  158 1    
    70   34   35 am   BACKBONE|DICT|INTERRES
    71   34  159 1    
    72   35   36 2    
    73   35   37 1    
    74   37   38 1    
    75   37   39 1    
    76   37  160 1    
    77   38  161 1    
    78   38  162 1    
    79   38  163 1    
    80   39   40 am   BACKBONE|DICT|INTERRES
    81   39  164 1    
    82   40   41 2    
    83   40   42 1    
    84   42   43 1    
    85   42   44 1    
    86   42  165 1    
    87   43  166 1    
    88   43  167 1    
    89   43  168 1    
    90   44   45 am   BACKBONE|DICT|INTERRES
    91   44  169 1    
    92   45   46 2    
    93   45   47 1    
    94   47   48 1    
    95   47   49 1    
    96   47  170 1    
    97   48  171 1    
    98   48  172 1    
    99   48  173 1    
   100   49   50 am   BACKBONE|DICT|INTERRES
   101   49  174 1    
   102   50   51 2    
   103   50   52 1    
   104   52   53 1    
   105   52   54 1    
   106   52  175 1    
   107   53  176 1    
   108   53  177 1    
   109   53  178 1    
   110   54   55 am   BACKBONE|DICT|INTERRES
   111   54  179 1    
   112   55   56 2    
   113   55   57 1    
   114   57   58 1    
   115   57   59 1    
   116   57  180 1    
   117   58  181 1    
   118   58  182 1    
   119   58  183 1    
   120   59   60 am   BACKBONE|DICT|INTERRES
   121   59  184 1    
   122   60   61 2    
   123   60   62 1    
   124   62   63 1    
   125   62   64 1    
   126   62  185 1    
   127   63  186 1    
   128   63  187 1    
   129   63  188 1    
   130   64   65 am   BACKBONE|DICT|INTERRES
   131   64  189 1    
   132   65   66 2    
   133   67   68 2    
   134   67   69 am   BACKBONE|DICT|INTERRES
   135   69   70 1    
   136   69  190 1    
   137   70   71 1    
   138   70   72 1    
   139   70  191 1    
   140   71  192 1    
   141   71  193 1    
   142   71  194 1    
   143   72   73 2    
   144   72   74 am   BACKBONE|DICT|INTERRES
   145   74   75 1    
   146   74  195 1    
   147   75   76 1    
   148   75   77 1    
   149   75  196 1    
   150   76  197 1    
   151   76  198 1    
   152   76  199 1    
   153   77   78 2    
   154   77   79 am   BACKBONE|DICT|INTERRES
   155   79   80 1    
   156   79  200 1    
   157   80   81 1    
   158   80   82 1    
   159   80  201 1    
   160   81  202 1    
   161   81  203 1    
   162   81  204 1    
   163   82   83 2    
   164   82   84 am   BACKBONE|DICT|INTERRES
   165   84   85 1    
   166   84  205 1    
   167   85   86 1    
   168   85   87 1    
   169   85  206 1    
   170   86  207 1    
   171   86  208 1    
   172   86  209 1    
   173   87   88 2    
   174   87   89 am   BACKBONE|DICT|INTERRES
   175   89   90 1    
   176   89  210 1    
   177   90   91 1    
   178   90   92 1    
   179   90  211 1    
   180   91  212 1    
   181   91  213 1    
   182   91  214 1    
   183   92   93 2    
   184   92   94 am   BACKBONE|DICT|INTERRES
   185   94   95 1    
   186   94  215 1    
   187   95   96 1    
   188   95   97 1    
   189   95  216 1    
   190   96  217 1    
   191   96  218 1    
   192   96  219 1    
   193   97   98 2    
   194   97   99 am   BACKBONE|DICT|INTERRES
   195   99  100 1    
   196   99  220 1    
   197  100  101 1    
   198  100  102 1    
   199  100  221 1    
   200  101  222 1    
   201  101  223 1    
   202  101  224 1    
   203  102  103 2    
   204  102  104 am   BACKBONE|DICT|INTERRES
   205  104  105 1    
   206  104  225 1    
   207  105  106 1    
   208  105  107 1    
   209  105  226 1    
   210  106  227 1    
   211  106  228 1    
   212  106  229 1    
   213  107  108 2    
   214  107  109 am   BACKBONE|DICT|INTERRES
   215  109  110 1    
   216  109  230 1    
   217  110  111 1    
   218  110  112 1    
   219  110  231 1    
   220  111  232 1    
   221  111  233 1    
   222  111  234 1    
   223  112  113 2    
   224  112  114 am   BACKBONE|DICT|INTERRES
   225  114  115 1    
   226  114  235 1    
   227  115  116 1    
   228  115  117 1    
   229  115  236 1    
   230  116  237 1    
   231  116  238 1    
   232  116  239 1    
   233  117  118 2    
   234  117  119 am   BACKBONE|DICT|INTERRES
   235  119  120 1    
   236  119  240 1    
   237  120  121 1    
   238  120  124 1    
   239  120  241 1    
   240  121  122 am   BACKBONE|DICT|INTERRES
   241  121  123 2    
   242  122  242 1    
   243  122  243 1    
   244  124  125 1    
   245  124  244 1    
   246  124  245 1    
   247  125  126 1    
   248  126  246 1    
   249  126  247 1    
@<TRIPOS>SUBSTRUCTURE
     1 UNK         1 GROUP             0       ****    0 ROOT    
