@<TRIPOS>MOLECULE
3R540
247   249    1
SMALL
USER_CHARGES


@<TRIPOS>ATOM
      1 CA         -3.6456  -15.6671  -52.0282 C.3       0 UNK        -0.1800 
      2 C          -3.0792  -14.5126  -51.2127 C.2       0 UNK         0.5000 
      3 O          -3.7568  -13.5005  -51.0305 O.2       0 UNK        -0.5000 
      4 N          -1.8343  -14.6499  -50.7412 N.am      1 UNK        -0.5000 
      5 CA         -1.1272  -13.6597  -49.9231 C.3       1 UNK         0.1400 
      6 C6          0.3725  -14.0169  -49.7727 C.3       23 UNK        -0.0398 
      7 S7          1.2771  -13.9530  -51.3482 S.3       23 UNK        -0.2404 
      8 C8          2.8685  -14.6846  -50.8451 C.3       23 UNK        -0.0205 
      9 C9          2.8065  -16.2037  -50.7627 C.ar      23 UNK        -0.0193 
     10 C10         2.5642  -16.9450  -51.9203 C.ar      23 UNK        -0.1150 
     11 C11         2.5304  -18.3391  -51.8782 C.ar      23 UNK        -0.0193 
     12 C12         2.7750  -18.9961  -50.6699 C.ar      23 UNK        -0.1150 
     13 C13         3.0296  -18.2718  -49.4975 C.ar      23 UNK        -0.0193 
     14 C14         3.0314  -16.8720  -49.5537 C.ar      23 UNK        -0.1150 
     15 C15         3.3761  -18.9593  -48.1746 C.3       23 UNK        -0.0205 
     16 S16         2.7832  -20.6796  -47.9912 S.3       23 UNK        -0.2404 
     17 C17         0.9968  -20.4276  -47.7341 C.3       23 UNK        -0.0398 
     18 CA          0.2958  -21.6793  -47.1590 C.3       11 UNK         0.1400 
     19 N           0.8691  -22.1054  -45.8818 N.am      11 UNK        -0.5000 
     20 C           0.7819  -23.3519  -45.4022 C.2       10 UNK         0.5000 
     21 O           0.2655  -24.2891  -46.0104 O.2       10 UNK        -0.5000 
     22 CA          1.3347  -23.5756  -43.9870 C.3       10 UNK         0.1400 
     23 CB          2.8484  -23.8331  -44.0267 C.3       10 UNK        -0.1800 
     24 N           1.0537  -22.4500  -43.0953 N.am      10 UNK        -0.5000 
     25 C          -0.1663  -22.1316  -42.6364 C.2       9 UNK         0.5000 
     26 O          -1.1894  -22.7095  -43.0049 O.2       9 UNK        -0.5000 
     27 CA         -0.2803  -20.9701  -41.6222 C.3       9 UNK         0.1400 
     28 CB         -1.3453  -21.2334  -40.5397 C.3       9 UNK        -0.1800 
     29 N           0.9909  -20.5653  -41.0160 N.am      9 UNK        -0.5000 
     30 C           1.8370  -21.3069  -40.2856 C.2       8 UNK         0.5000 
     31 O           1.5813  -22.4442  -39.8874 O.2       8 UNK        -0.5000 
     32 CA          3.2222  -20.6826  -39.9958 C.3       8 UNK         0.1400 
     33 CB          4.3330  -21.7495  -39.9113 C.3       8 UNK        -0.1800 
     34 N           3.6157  -19.6249  -40.9398 N.am      8 UNK        -0.5000 
     35 C           3.7198  -19.6977  -42.2759 C.2       7 UNK         0.5000 
     36 O           3.4652  -20.7186  -42.9174 O.2       7 UNK        -0.5000 
     37 CA          4.1256  -18.3985  -43.0119 C.3       7 UNK         0.1400 
     38 CB          4.0472  -18.5479  -44.5425 C.3       7 UNK        -0.1800 
     39 N           3.3075  -17.2464  -42.6234 N.am      7 UNK        -0.5000 
     40 C           3.3503  -16.5857  -41.4583 C.2       6 UNK         0.5000 
     41 O           4.1503  -16.8435  -40.5579 O.2       6 UNK        -0.5000 
     42 CA          2.2855  -15.4956  -41.2372 C.3       6 UNK         0.1400 
     43 CB          2.8076  -14.1233  -41.6893 C.3       6 UNK        -0.1800 
     44 N           1.0204  -15.7885  -41.9165 N.am      6 UNK        -0.5000 
     45 C           0.1892  -16.7901  -41.5913 C.2       5 UNK         0.5000 
     46 O           0.3986  -17.5828  -40.6739 O.2       5 UNK        -0.5000 
     47 CA         -1.0733  -16.9473  -42.4568 C.3       5 UNK         0.1400 
     48 CB         -2.1840  -16.0023  -41.9764 C.3       5 UNK        -0.1800 
     49 N          -0.7969  -16.6873  -43.8674 N.am      5 UNK        -0.5000 
     50 C          -0.1768  -17.5414  -44.6943 C.2       4 UNK         0.5000 
     51 O           0.1345  -18.6958  -44.3938 O.2       4 UNK        -0.5000 
     52 CA          0.1581  -17.0078  -46.0992 C.3       4 UNK         0.1400 
     53 CB         -0.9686  -17.3569  -47.0822 C.3       4 UNK        -0.1800 
     54 N           0.4087  -15.5661  -46.1317 N.am      4 UNK        -0.5000 
     55 C           1.4214  -14.9627  -45.4898 C.2       3 UNK         0.5000 
     56 O           2.2597  -15.5816  -44.8359 O.2       3 UNK        -0.5000 
     57 CA          1.5169  -13.4243  -45.5549 C.3       3 UNK         0.1400 
     58 CB          2.7661  -13.0029  -46.3441 C.3       3 UNK        -0.1800 
     59 N           0.3466  -12.7719  -46.1432 N.am      3 UNK        -0.5000 
     60 C          -0.8874  -12.7317  -45.6184 C.2       2 UNK         0.5000 
     61 O          -1.1827  -13.2189  -44.5267 O.2       2 UNK        -0.5000 
     62 CA         -1.9785  -12.1037  -46.5122 C.3       2 UNK         0.1400 
     63 CB         -2.0951  -10.5956  -46.2466 C.3       2 UNK        -0.1800 
     64 N          -1.7122  -12.3299  -47.9398 N.am      2 UNK        -0.5000 
     65 C          -1.7472  -13.5396  -48.5172 C.2       1 UNK         0.5000 
     66 O          -2.1400  -14.5509  -47.9357 O.2       1 UNK        -0.5000 
     67 C          -1.2221  -21.4533  -47.0096 C.2       11 UNK         0.5000 
     68 O          -1.9808  -21.8322  -47.9009 O.2       11 UNK        -0.5000 
     69 N          -1.6499  -20.8795  -45.8713 N.am      12 UNK        -0.5000 
     70 CA         -3.0574  -20.6104  -45.5570 C.3       12 UNK         0.1400 
     71 CB         -3.1699  -19.7852  -44.2682 C.3       12 UNK        -0.1800 
     72 C          -3.9344  -21.8720  -45.4629 C.2       12 UNK         0.5000 
     73 O          -5.1262  -21.7977  -45.7645 O.2       12 UNK        -0.5000 
     74 N          -3.3276  -23.0090  -45.0956 N.am      13 UNK        -0.5000 
     75 CA         -3.9518  -24.3329  -45.0774 C.3       13 UNK         0.1400 
     76 CB         -2.9530  -25.3536  -44.5131 C.3       13 UNK        -0.1800 
     77 C          -4.4742  -24.7927  -46.4543 C.2       13 UNK         0.5000 
     78 O          -5.4466  -25.5464  -46.5066 O.2       13 UNK        -0.5000 
     79 N          -3.8706  -24.2971  -47.5448 N.am      14 UNK        -0.5000 
     80 CA         -4.3108  -24.5162  -48.9226 C.3       14 UNK         0.1400 
     81 CB         -3.0858  -24.4779  -49.8536 C.3       14 UNK        -0.1800 
     82 C          -5.4003  -23.5002  -49.3258 C.2       14 UNK         0.5000 
     83 O          -5.2644  -22.8236  -50.3470 O.2       14 UNK        -0.5000 
     84 N          -6.4571  -23.4048  -48.5054 N.am      15 UNK        -0.5000 
     85 CA         -7.6463  -22.5603  -48.6680 C.3       15 UNK         0.1400 
     86 CB         -8.5156  -23.0910  -49.8271 C.3       15 UNK        -0.1800 
     87 C          -7.2973  -21.0668  -48.8274 C.2       15 UNK         0.5000 
     88 O          -7.6291  -20.4604  -49.8454 O.2       15 UNK        -0.5000 
     89 N          -6.5692  -20.5161  -47.8452 N.am      16 UNK        -0.5000 
     90 CA         -6.0136  -19.1540  -47.8333 C.3       16 UNK         0.1400 
     91 CB         -7.1337  -18.0925  -47.8117 C.3       16 UNK        -0.1800 
     92 C          -4.9857  -18.9248  -48.9651 C.2       16 UNK         0.5000 
     93 O          -4.8536  -17.8089  -49.4656 O.2       16 UNK        -0.5000 
     94 N          -4.3003  -20.0102  -49.3534 N.am      17 UNK        -0.5000 
     95 CA         -3.3506  -20.1465  -50.4610 C.3       17 UNK         0.1400 
     96 CB         -2.1504  -19.1969  -50.2861 C.3       17 UNK        -0.1800 
     97 C          -3.9943  -20.0646  -51.8639 C.2       17 UNK         0.5000 
     98 O          -3.2686  -20.0236  -52.8598 O.2       17 UNK        -0.5000 
     99 N          -5.3337  -20.0933  -51.9438 N.am      18 UNK        -0.5000 
    100 CA        -6.0788  -20.0886  -53.2020 C.3       18 UNK         0.1400 
    101 CB        -7.5311  -19.6583  -52.9533 C.3       18 UNK        -0.1800 
    102 C         -6.0351  -21.4499  -53.9164 C.2       18 UNK         0.5000 
    103 O         -5.9949  -21.4738  -55.1462 O.2       18 UNK        -0.5000 
    104 N         -5.9967  -22.5572  -53.1573 N.am      19 UNK        -0.5000 
    105 CA        -5.8611  -23.9118  -53.7087 C.3       19 UNK         0.1400 
    106 CB        -6.3249  -24.9551  -52.6814 C.3       19 UNK        -0.1800 
    107 C         -4.4225  -24.2033  -54.1750 C.2       19 UNK         0.5000 
    108 O         -4.2261  -25.0275  -55.0680 O.2       19 UNK        -0.5000 
    109 N         -3.4502  -23.4863  -53.5943 N.am      20 UNK        -0.5000 
    110 CA        -2.0562  -23.4456  -54.0391 C.3       20 UNK         0.1400 
    111 CB        -1.1761  -22.9897  -52.8642 C.3       20 UNK        -0.1800 
    112 C         -1.8489  -22.5403  -55.2746 C.2       20 UNK         0.5000 
    113 O         -0.7649  -22.5642  -55.8582 O.2       20 UNK        -0.5000 
    114 N         -2.8854  -21.7727  -55.6510 N.am      21 UNK        -0.5000 
    115 CA        -2.9513  -20.8229  -56.7661 C.3       21 UNK         0.1400 
    116 CB        -2.8247  -21.5533  -58.1195 C.3       21 UNK        -0.1800 
    117 C         -1.9712  -19.6410  -56.6172 C.2       21 UNK         0.5000 
    118 O         -1.4571  -19.1340  -57.6167 O.2       21 UNK        -0.5000 
    119 N         -1.7275  -19.2249  -55.3697 N.am      22 UNK        -0.5000 
    120 CA        -0.8539  -18.0982  -55.0208 C.3       22 UNK         0.1400 
    121 C         -1.5068  -16.7196  -55.3205 C.2       22 UNK         0.5000 
    122 N         -0.7052  -15.6847  -55.5329 N.am      22 UNK        -0.7600 
    123 O         -2.7262  -16.5666  -55.3324 O.2       22 UNK        -0.5000 
    124 C124       -0.3974  -18.1831  -53.5461 C.3       23 UNK        -0.0398 
    125 S125        0.5261  -19.7211  -53.1938 S.3       23 UNK        -0.2404 
    126 C126        2.2476  -19.1372  -53.1409 C.3       23 UNK        -0.0205 
    127 H127       -2.9205  -16.4698  -52.1577 H         1 UNK         0.0600 
    128 H128       -4.5260  -16.0799  -51.5365 H         1 UNK         0.0600 
    129 H129       -3.9404  -15.3185  -53.0178 H         1 UNK         0.0600 
    130 H130       -1.3299  -15.5057  -50.9160 H         1 UNK         0.3000 
    131 H131       -1.2106  -12.6904  -50.4194 H         1 UNK         0.0600 
    132 H132        0.4899  -15.0109  -49.3359 H         1 UNK         0.0800 
    133 H133        0.8709  -13.3214  -49.0960 H         1 UNK         0.0800 
    134 H134        3.1900  -14.2509  -49.8970 H         1 UNK         0.0800 
    135 H135        3.6265  -14.4068  -51.5787 H         1 UNK         0.0800 
    136 H136        2.3996  -16.4298  -52.8562 H         1 UNK         0.1150 
    137 H137        2.7754  -20.0762  -50.6584 H         1 UNK         0.1150 
    138 H138        3.2390  -16.3017  -48.6589 H         1 UNK         0.1150 
    139 H139        4.4627  -18.9698  -48.0815 H         1 UNK         0.0800 
    140 H140        3.0096  -18.3660  -47.3377 H         1 UNK         0.0800 
    141 H141        0.8727  -19.5944  -47.0489 H         1 UNK         0.0800 
    142 H142        0.5509  -20.1311  -48.6854 H         1 UNK         0.0800 
    143 H143        0.4281  -22.4860  -47.8838 H         1 UNK         0.0600 
    144 H144        1.3260  -21.4000  -45.3216 H         1 UNK         0.3000 
    145 H145        0.8492  -24.4627  -43.5745 H         1 UNK         0.0600 
    146 H146        3.2437  -24.0167  -43.0275 H         1 UNK         0.0600 
    147 H147        3.0789  -24.7081  -44.6355 H         1 UNK         0.0600 
    148 H148        3.3907  -22.9869  -44.4506 H         1 UNK         0.0600 
    149 H149        1.8518  -21.8928  -42.8054 H         1 UNK         0.3000 
    150 H150       -0.6102  -20.1117  -42.2039 H         1 UNK         0.0600 
    151 H151       -2.3285  -21.3898  -40.9850 H         1 UNK         0.0600 
    152 H152       -1.4308  -20.3862  -39.8592 H         1 UNK         0.0600 
    153 H153       -1.1107  -22.1186  -39.9482 H         1 UNK         0.0600 
    154 H154        1.2848  -19.6230  -41.2385 H         1 UNK         0.3000 
    155 H155        3.1409  -20.2056  -39.0183 H         1 UNK         0.0600 
    156 H156        4.1302  -22.4680  -39.1163 H         1 UNK         0.0600 
    157 H157        5.3001  -21.2957  -39.6954 H         1 UNK         0.0600 
    158 H158        4.4255  -22.3091  -40.8429 H         1 UNK         0.0600 
    159 H159        3.8248  -18.7212  -40.5234 H         1 UNK         0.3000 
    160 H160        5.1635  -18.1895  -42.7461 H         1 UNK         0.0600 
    161 H161        3.0299  -18.7679  -44.8689 H         1 UNK         0.0600 
    162 H162        4.6883  -19.3570  -44.8948 H         1 UNK         0.0600 
    163 H163        4.3696  -17.6363  -45.0460 H         1 UNK         0.0600 
    164 H164        2.6578  -16.9089  -43.3251 H         1 UNK         0.3000 
    165 H165        2.0838  -15.4446  -40.1652 H         1 UNK         0.0600 
    166 H166        3.7012  -13.8459  -41.1288 H         1 UNK         0.0600 
    167 H167        3.0741  -14.1180  -42.7461 H         1 UNK         0.0600 
    168 H168        2.0657  -13.3419  -41.5238 H         1 UNK         0.0600 
    169 H169        0.7857  -15.2043  -42.7040 H         1 UNK         0.3000 
    170 H170       -1.4350  -17.9705  -42.3485 H         1 UNK         0.0600 
    171 H171       -2.4181  -16.1770  -40.9255 H         1 UNK         0.0600 
    172 H172       -1.8976  -14.9548  -42.0809 H         1 UNK         0.0600 
    173 H173       -3.1023  -16.1560  -42.5435 H         1 UNK         0.0600 
    174 H174       -1.0296  -15.7659  -44.2128 H         1 UNK         0.3000 
    175 H175        1.0762  -17.4939  -46.4250 H         1 UNK         0.0600 
    176 H176       -1.9068  -16.8770  -46.8029 H         1 UNK         0.0600 
    177 H177       -0.7202  -17.0510  -48.0987 H         1 UNK         0.0600 
    178 H178       -1.1607  -18.4274  -47.1026 H         1 UNK         0.0600 
    179 H179       -0.2699  -15.0029  -46.6257 H         1 UNK         0.3000 
    180 H180        1.6203  -13.0637  -44.5297 H         1 UNK         0.0600 
    181 H181        2.7247  -13.3439  -47.3791 H         1 UNK         0.0600 
    182 H182        2.8835  -11.9191  -46.3503 H         1 UNK         0.0600 
    183 H183        3.6698  -13.4213  -45.8987 H         1 UNK         0.0600 
    184 H184        0.4918  -12.3206  -47.0331 H         1 UNK         0.3000 
    185 H185       -2.9313  -12.5731  -46.2579 H         1 UNK         0.0600 
    186 H186       -2.9021  -10.1539  -46.8314 H         1 UNK         0.0600 
    187 H187       -2.3128  -10.4010  -45.1955 H         1 UNK         0.0600 
    188 H188       -1.1729  -10.0683  -46.4939 H         1 UNK         0.0600 
    189 H189       -1.3989  -11.5313  -48.4735 H         1 UNK         0.3000 
    190 H190       -0.9686  -20.5864  -45.1839 H         1 UNK         0.3000 
    191 H191       -3.4508  -20.0078  -46.3756 H         1 UNK         0.0600 
    192 H192       -4.2138  -19.6254  -43.9947 H         1 UNK         0.0600 
    193 H193       -2.7244  -18.8006  -44.3917 H         1 UNK         0.0600 
    194 H194       -2.6855  -20.2806  -43.4277 H         1 UNK         0.0600 
    195 H195       -2.3663  -22.9594  -44.7789 H         1 UNK         0.3000 
    196 H196       -4.8085  -24.2827  -44.4026 H         1 UNK         0.0600 
    197 H197       -3.4004  -26.3464  -44.4515 H         1 UNK         0.0600 
    198 H198       -2.6326  -25.0791  -43.5079 H         1 UNK         0.0600 
    199 H199       -2.0635  -25.4322  -45.1388 H         1 UNK         0.0600 
    200 H200       -3.1162  -23.6315  -47.4234 H         1 UNK         0.3000 
    201 H201       -4.7535  -25.5105  -49.0082 H         1 UNK         0.0600 
    202 H202       -2.3376  -25.2103  -49.5504 H         1 UNK         0.0600 
    203 H203       -2.6094  -23.4982  -49.8578 H         1 UNK         0.0600 
    204 H204       -3.3666  -24.7107  -50.8809 H         1 UNK         0.0600 
    205 H205       -6.4502  -23.9963  -47.6832 H         1 UNK         0.3000 
    206 H206       -8.2252  -22.6505  -47.7478 H         1 UNK         0.0600 
    207 H207       -8.7623  -24.1434  -49.6872 H         1 UNK         0.0600 
    208 H208       -9.4557  -22.5420  -49.8916 H         1 UNK         0.0600 
    209 H209       -8.0134  -22.9891  -50.7893 H         1 UNK         0.0600 
    210 H210       -6.2834  -21.1037  -47.0640 H         1 UNK         0.3000 
    211 H211       -5.4669  -19.0552  -46.8960 H         1 UNK         0.0600 
    212 H212       -7.6802  -18.0557  -48.7543 H         1 UNK         0.0600 
    213 H213       -6.7230  -17.0974  -47.6369 H         1 UNK         0.0600 
    214 H214       -7.8503  -18.2911  -47.0148 H         1 UNK         0.0600 
    215 H215       -4.5219  -20.8817  -48.8935 H         1 UNK         0.3000 
    216 H216       -2.9639  -21.1625  -50.3829 H         1 UNK         0.0600 
    217 H217       -2.4131  -18.1605  -50.4948 H         1 UNK         0.0600 
    218 H218       -1.3368  -19.4776  -50.9521 H         1 UNK         0.0600 
    219 H219       -1.7587  -19.2465  -49.2720 H         1 UNK         0.0600 
    220 H220       -5.8798  -20.1697  -51.0933 H         1 UNK         0.3000 
    221 H221       -5.6219  -19.3486  -53.8630 H         1 UNK         0.0600 
    222 H222       -8.0871  -20.4144  -52.3984 H         1 UNK         0.0600 
    223 H223       -7.5790  -18.7245  -52.3928 H         1 UNK         0.0600 
    224 H224       -8.0541  -19.5007  -53.8971 H         1 UNK         0.0600 
    225 H225       -5.9665  -22.4707  -52.1447 H         1 UNK         0.3000 
    226 H226       -6.5136  -23.9943  -54.5806 H         1 UNK         0.0600 
    227 H227       -7.3314  -24.7412  -52.3229 H         1 UNK         0.0600 
    228 H228       -6.3453  -25.9503  -53.1269 H         1 UNK         0.0600 
    229 H229       -5.6597  -25.0034  -51.8212 H         1 UNK         0.0600 
    230 H230       -3.7111  -22.8373  -52.8664 H         1 UNK         0.3000 
    231 H231       -1.7462  -24.4537  -54.3217 H         1 UNK         0.0600 
    232 H232       -1.4645  -22.0037  -52.5007 H         1 UNK         0.0600 
    233 H233       -1.2390  -23.6875  -52.0299 H         1 UNK         0.0600 
    234 H234       -0.1272  -22.9342  -53.1582 H         1 UNK         0.0600 
    235 H235       -3.7311  -21.8333  -55.1012 H         1 UNK         0.3000 
    236 H236       -3.9493  -20.3846  -56.7266 H         1 UNK         0.0600 
    237 H237       -3.5385  -22.3739  -58.1919 H         1 UNK         0.0600 
    238 H238       -3.0265  -20.8756  -58.9498 H         1 UNK         0.0600 
    239 H239       -1.8253  -21.9626  -58.2682 H         1 UNK         0.0600 
    240 H240       -2.2098  -19.6674  -54.5943 H         1 UNK         0.3000 
    241 H241        0.0381  -18.1713  -55.6465 H         1 UNK         0.0600 
    242 H242       -1.1150  -14.7828  -55.7193 H         1 UNK         0.3800 
    243 H243        0.2984  -15.7786  -55.5352 H         1 UNK         0.3800 
    244 H244       -1.2640  -18.1447  -52.8868 H         1 UNK         0.0800 
    245 H245        0.2133  -17.3206  -53.2822 H         1 UNK         0.0800 
    246 H246        2.9127  -20.0009  -53.1794 H         1 UNK         0.0800 
    247 H247        2.4623  -18.5473  -54.0333 H         1 UNK         0.0800 
@<TRIPOS>BOND
     1    1    2 1    
     2    1  127 1    
     3    1  128 1    
     4    1  129 1    
     5    2    3 2    
     6    2    4 am   BACKBONE|DICT|INTERRES
     7    4    5 1    
     8    4  130 1    
     9    5    6 1    
    10    5   65 1    
    11    5  131 1    
    12    6    7 1    
    13    6  132 1    
    14    6  133 1    
    15    7    8 1    
    16    8    9 1    
    17    8  134 1    
    18    8  135 1    
    19    9   10 ar   
    20    9   14 ar   
    21   10   11 ar   
    22   10  136 1    
    23   11   12 ar   
    24   11  126 1    
    25   12   13 ar   
    26   12  137 1    
    27   13   14 ar   
    28   13   15 1    
    29   14  138 1    
    30   15   16 1    
    31   15  139 1    
    32   15  140 1    
    33   16   17 1    
    34   17   18 1    
    35   17  141 1    
    36   17  142 1    
    37   18   19 1    
    38   18   67 1    
    39   18  143 1    
    40   19   20 am   BACKBONE|DICT|INTERRES
    41   19  144 1    
    42   20   21 2    
    43   20   22 1    
    44   22   23 1    
    45   22   24 1    
    46   22  145 1    
    47   23  146 1    
    48   23  147 1    
    49   23  148 1    
    50   24   25 am   BACKBONE|DICT|INTERRES
    51   24  149 1    
    52   25   26 2    
    53   25   27 1    
    54   27   28 1    
    55   27   29 1    
    56   27  150 1    
    57   28  151 1    
    58   28  152 1    
    59   28  153 1    
    60   29   30 am   BACKBONE|DICT|INTERRES
    61   29  154 1    
    62   30   31 2    
    63   30   32 1    
    64   32   33 1    
    65   32   34 1    
    66   32  155 1    
    67   33  156 1    
    68   33  157 1    
    69   33  158 1    
    70   34   35 am   BACKBONE|DICT|INTERRES
    71   34  159 1    
    72   35   36 2    
    73   35   37 1    
    74   37   38 1    
    75   37   39 1    
    76   37  160 1    
    77   38  161 1    
    78   38  162 1    
    79   38  163 1    
    80   39   40 am   BACKBONE|DICT|INTERRES
    81   39  164 1    
    82   40   41 2    
    83   40   42 1    
    84   42   43 1    
    85   42   44 1    
    86   42  165 1    
    87   43  166 1    
    88   43  167 1    
    89   43  168 1    
    90   44   45 am   BACKBONE|DICT|INTERRES
    91   44  169 1    
    92   45   46 2    
    93   45   47 1    
    94   47   48 1    
    95   47   49 1    
    96   47  170 1    
    97   48  171 1    
    98   48  172 1    
    99   48  173 1    
   100   49   50 am   BACKBONE|DICT|INTERRES
   101   49  174 1    
   102   50   51 2    
   103   50   52 1    
   104   52   53 1    
   105   52   54 1    
   106   52  175 1    
   107   53  176 1    
   108   53  177 1    
   109   53  178 1    
   110   54   55 am   BACKBONE|DICT|INTERRES
   111   54  179 1    
   112   55   56 2    
   113   55   57 1    
   114   57   58 1    
   115   57   59 1    
   116   57  180 1    
   117   58  181 1    
   118   58  182 1    
   119   58  183 1    
   120   59   60 am   BACKBONE|DICT|INTERRES
   121   59  184 1    
   122   60   61 2    
   123   60   62 1    
   124   62   63 1    
   125   62   64 1    
   126   62  185 1    
   127   63  186 1    
   128   63  187 1    
   129   63  188 1    
   130   64   65 am   BACKBONE|DICT|INTERRES
   131   64  189 1    
   132   65   66 2    
   133   67   68 2    
   134   67   69 am   BACKBONE|DICT|INTERRES
   135   69   70 1    
   136   69  190 1    
   137   70   71 1    
   138   70   72 1    
   139   70  191 1    
   140   71  192 1    
   141   71  193 1    
   142   71  194 1    
   143   72   73 2    
   144   72   74 am   BACKBONE|DICT|INTERRES
   145   74   75 1    
   146   74  195 1    
   147   75   76 1    
   148   75   77 1    
   149   75  196 1    
   150   76  197 1    
   151   76  198 1    
   152   76  199 1    
   153   77   78 2    
   154   77   79 am   BACKBONE|DICT|INTERRES
   155   79   80 1    
   156   79  200 1    
   157   80   81 1    
   158   80   82 1    
   159   80  201 1    
   160   81  202 1    
   161   81  203 1    
   162   81  204 1    
   163   82   83 2    
   164   82   84 am   BACKBONE|DICT|INTERRES
   165   84   85 1    
   166   84  205 1    
   167   85   86 1    
   168   85   87 1    
   169   85  206 1    
   170   86  207 1    
   171   86  208 1    
   172   86  209 1    
   173   87   88 2    
   174   87   89 am   BACKBONE|DICT|INTERRES
   175   89   90 1    
   176   89  210 1    
   177   90   91 1    
   178   90   92 1    
   179   90  211 1    
   180   91  212 1    
   181   91  213 1    
   182   91  214 1    
   183   92   93 2    
   184   92   94 am   BACKBONE|DICT|INTERRES
   185   94   95 1    
   186   94  215 1    
   187   95   96 1    
   188   95   97 1    
   189   95  216 1    
   190   96  217 1    
   191   96  218 1    
   192   96  219 1    
   193   97   98 2    
   194   97   99 am   BACKBONE|DICT|INTERRES
   195   99  100 1    
   196   99  220 1    
   197  100  101 1    
   198  100  102 1    
   199  100  221 1    
   200  101  222 1    
   201  101  223 1    
   202  101  224 1    
   203  102  103 2    
   204  102  104 am   BACKBONE|DICT|INTERRES
   205  104  105 1    
   206  104  225 1    
   207  105  106 1    
   208  105  107 1    
   209  105  226 1    
   210  106  227 1    
   211  106  228 1    
   212  106  229 1    
   213  107  108 2    
   214  107  109 am   BACKBONE|DICT|INTERRES
   215  109  110 1    
   216  109  230 1    
   217  110  111 1    
   218  110  112 1    
   219  110  231 1    
   220  111  232 1    
   221  111  233 1    
   222  111  234 1    
   223  112  113 2    
   224  112  114 am   BACKBONE|DICT|INTERRES
   225  114  115 1    
   226  114  235 1    
   227  115  116 1    
   228  115  117 1    
   229  115  236 1    
   230  116  237 1    
   231  116  238 1    
   232  116  239 1    
   233  117  118 2    
   234  117  119 am   BACKBONE|DICT|INTERRES
   235  119  120 1    
   236  119  240 1    
   237  120  121 1    
   238  120  124 1    
   239  120  241 1    
   240  121  122 am   BACKBONE|DICT|INTERRES
   241  121  123 2    
   242  122  242 1    
   243  122  243 1    
   244  124  125 1    
   245  124  244 1    
   246  124  245 1    
   247  125  126 1    
   248  126  246 1    
   249  126  247 1    
@<TRIPOS>SUBSTRUCTURE
     1 UNK         1 GROUP             0       ****    0 ROOT    
