@<TRIPOS>MOLECULE
3R540
247   249    1
SMALL
USER_CHARGES


@<TRIPOS>ATOM
      1 CA         -0.8270  -13.7520  -49.9870 C.3       0 UNK        -0.1800 
      2 C           0.6864  -13.6178  -50.0223 C.2       0 UNK         0.5000 
      3 O           1.2181  -12.5846  -49.6180 O.2       0 UNK        -0.5000 
      4 N           1.3832  -14.6602  -50.4951 N.am      1 UNK        -0.5000 
      5 CA          2.8416  -14.6990  -50.6930 C.3       1 UNK         0.1400 
      6 C6          3.3188  -15.9970  -51.3957 C.3       23 UNK        -0.0398 
      7 S7          2.4057  -16.3897  -52.9296 S.3       23 UNK        -0.2404 
      8 C8          1.5487  -17.9354  -52.4777 C.3       23 UNK        -0.0205 
      9 C9          0.4294  -17.6907  -51.4771 C.ar      23 UNK        -0.0193 
     10 C10        -0.8244  -17.2616  -51.9204 C.ar      23 UNK        -0.1150 
     11 C11        -1.8570  -16.9963  -51.0095 C.ar      23 UNK        -0.0193 
     12 C12        -1.6137  -17.1820  -49.6450 C.ar      23 UNK        -0.1150 
     13 C13        -0.3622  -17.6033  -49.1877 C.ar      23 UNK        -0.0193 
     14 C14         0.6518  -17.8684  -50.1097 C.ar      23 UNK        -0.1150 
     15 C15        -0.0913  -17.7217  -47.6956 C.3       23 UNK        -0.0205 
     16 S16         0.2965  -19.4194  -47.1792 S.3       23 UNK        -0.2404 
     17 C17        -1.2803  -20.2428  -47.5632 C.3       23 UNK        -0.0398 
     18 CA         -1.3999  -21.6180  -46.8730 C.3       11 UNK         0.1400 
     19 N          -1.3311  -21.5099  -45.4074 N.am      11 UNK        -0.5000 
     20 C          -1.3757  -22.5223  -44.5288 C.2       10 UNK         0.5000 
     21 O          -1.5869  -23.6953  -44.8472 O.2       10 UNK        -0.5000 
     22 CA         -1.1414  -22.1386  -43.0561 C.3       10 UNK         0.1400 
     23 CB         -1.0919  -23.3570  -42.1112 C.3       10 UNK        -0.1800 
     24 N           0.0456  -21.2949  -42.8936 N.am      10 UNK        -0.5000 
     25 C           1.3213  -21.6146  -43.1648 C.2       9 UNK         0.5000 
     26 O           1.6879  -22.7057  -43.5990 O.2       9 UNK        -0.5000 
     27 CA          2.3772  -20.5303  -42.8798 C.3       9 UNK         0.1400 
     28 CB          2.5854  -19.6424  -44.1164 C.3       9 UNK        -0.1800 
     29 N           2.0300  -19.6855  -41.7376 N.am      9 UNK        -0.5000 
     30 C           1.9536  -20.0951  -40.4634 C.2       8 UNK         0.5000 
     31 O           2.2360  -21.2333  -40.0876 O.2       8 UNK        -0.5000 
     32 CA          1.4518  -19.0599  -39.4425 C.3       8 UNK         0.1400 
     33 CB          2.5995  -18.1530  -38.9702 C.3       8 UNK        -0.1800 
     34 N           0.3769  -18.2382  -40.0004 N.am      8 UNK        -0.5000 
     35 C          -0.9057  -18.6193  -40.0785 C.2       7 UNK         0.5000 
     36 O          -1.3299  -19.6869  -39.6359 O.2       7 UNK        -0.5000 
     37 CA         -1.8811  -17.6514  -40.7763 C.3       7 UNK         0.1400 
     38 CB         -2.4931  -16.6778  -39.7579 C.3       7 UNK        -0.1800 
     39 N          -1.2568  -16.8837  -41.8547 N.am      7 UNK        -0.5000 
     40 C          -0.8712  -17.3997  -43.0296 C.2       6 UNK         0.5000 
     41 O          -1.0228  -18.5816  -43.3432 O.2       6 UNK        -0.5000 
     42 CA         -0.1589  -16.4392  -44.0025 C.3       6 UNK         0.1400 
     43 CB         -1.1907  -15.6880  -44.8566 C.3       6 UNK        -0.1800 
     44 N           0.7283  -15.4616  -43.3585 N.am      6 UNK        -0.5000 
     45 C           1.7231  -15.7493  -42.5041 C.2       5 UNK         0.5000 
     46 O           2.0026  -16.8985  -42.1678 O.2       5 UNK        -0.5000 
     47 CA          2.5306  -14.5861  -41.8943 C.3       5 UNK         0.1400 
     48 CB          4.0413  -14.7849  -42.0987 C.3       5 UNK        -0.1800 
     49 N           2.1362  -13.2711  -42.4028 N.am      5 UNK        -0.5000 
     50 C           1.1040  -12.5554  -41.9319 C.2       4 UNK         0.5000 
     51 O           0.3755  -12.9421  -41.0174 O.2       4 UNK        -0.5000 
     52 CA          0.8183  -11.1901  -42.5917 C.3       4 UNK         0.1400 
     53 CB          1.3549  -10.0487  -41.7144 C.3       4 UNK        -0.1800 
     54 N           1.3716  -11.0486  -43.9403 N.am      4 UNK        -0.5000 
     55 C           0.9800  -11.7512  -45.0110 C.2       3 UNK         0.5000 
     56 O           0.0925  -12.6049  -44.9716 O.2       3 UNK        -0.5000 
     57 CA          1.7182  -11.4929  -46.3424 C.3       3 UNK         0.1400 
     58 CB          2.7595  -10.3522  -46.2875 C.3       3 UNK        -0.1800 
     59 N           2.3325  -12.7196  -46.8560 N.am      3 UNK        -0.5000 
     60 C           3.2116  -13.5104  -46.2198 C.2       2 UNK         0.5000 
     61 O           3.6678  -13.2535  -45.1049 O.2       2 UNK        -0.5000 
     62 CA          3.6383  -14.8192  -46.9176 C.3       2 UNK         0.1400 
     63 CB          3.2095  -16.0368  -46.0828 C.3       2 UNK        -0.1800 
     64 N           3.0752  -14.9593  -48.2623 N.am      2 UNK        -0.5000 
     65 C           3.6398  -14.4953  -49.3855 C.2       1 UNK         0.5000 
     66 O           4.7294  -13.9223  -49.4188 O.2       1 UNK        -0.5000 
     67 C          -2.6404  -22.3691  -47.3988 C.2       11 UNK         0.5000 
     68 O          -2.5595  -22.9938  -48.4571 O.2       11 UNK        -0.5000 
     69 N          -3.7403  -22.3567  -46.6332 N.am      12 UNK        -0.5000 
     70 CA         -4.9577  -23.1336  -46.8827 C.3       12 UNK         0.1400 
     71 CB         -5.9840  -22.8104  -45.7869 C.3       12 UNK        -0.1800 
     72 C          -4.7305  -24.6589  -46.9779 C.2       12 UNK         0.5000 
     73 O          -5.5390  -25.3394  -47.6075 O.2       12 UNK        -0.5000 
     74 N          -3.6394  -25.1563  -46.3798 N.am      13 UNK        -0.5000 
     75 CA         -3.1530  -26.5255  -46.5270 C.3       13 UNK         0.1400 
     76 CB         -3.1068  -27.1964  -45.1452 C.3       13 UNK        -0.1800 
     77 C          -1.7619  -26.5458  -47.1840 C.2       13 UNK         0.5000 
     78 O          -1.5267  -27.3618  -48.0758 O.2       13 UNK        -0.5000 
     79 N          -0.8602  -25.6559  -46.7414 N.am      14 UNK        -0.5000 
     80 CA          0.5525  -25.6346  -47.1351 C.3       14 UNK         0.1400 
     81 CB          1.3336  -24.7284  -46.1738 C.3       14 UNK        -0.1800 
     82 C           0.8065  -25.2178  -48.5957 C.2       14 UNK         0.5000 
     83 O           1.8208  -25.6233  -49.1640 O.2       14 UNK        -0.5000 
     84 N          -0.1165  -24.4476  -49.1843 N.am      15 UNK        -0.5000 
     85 CA         -0.1203  -24.0660  -50.5966 C.3       15 UNK         0.1400 
     86 CB         -0.0773  -22.5311  -50.7198 C.3       15 UNK        -0.1800 
     87 C          -1.3447  -24.6916  -51.2891 C.2       15 UNK         0.5000 
     88 O          -1.9877  -24.0400  -52.1155 O.2       15 UNK        -0.5000 
     89 N          -1.6601  -25.9392  -50.9064 N.am      16 UNK        -0.5000 
     90 CA         -2.7357  -26.8259  -51.3681 C.3       16 UNK         0.1400 
     91 CB         -2.6058  -27.1258  -52.8739 C.3       16 UNK        -0.1800 
     92 C          -4.1560  -26.3465  -51.0167 C.2       16 UNK         0.5000 
     93 O          -4.9364  -27.1176  -50.4586 O.2       16 UNK        -0.5000 
     94 N          -4.4577  -25.0928  -51.3572 N.am      17 UNK        -0.5000 
     95 CA         -5.7282  -24.4080  -51.1532 C.3       17 UNK         0.1400 
     96 CB         -6.7958  -24.9507  -52.1272 C.3       17 UNK        -0.1800 
     97 C          -5.4927  -22.8972  -51.3068 C.2       17 UNK         0.5000 
     98 O          -6.1985  -22.2401  -52.0734 O.2       17 UNK        -0.5000 
     99 N          -4.4565  -22.3822  -50.6244 N.am      18 UNK        -0.5000 
    100 CA        -3.9845  -20.9922  -50.6666 C.3       18 UNK         0.1400 
    101 CB        -4.9758  -20.0643  -49.9383 C.3       18 UNK        -0.1800 
    102 C         -3.6326  -20.5339  -52.0961 C.2       18 UNK         0.5000 
    103 O         -4.0752  -19.4771  -52.5423 O.2       18 UNK        -0.5000 
    104 N         -2.8915  -21.3943  -52.8113 N.am      19 UNK        -0.5000 
    105 CA        -2.4591  -21.2569  -54.2065 C.3       19 UNK         0.1400 
    106 CB        -1.5209  -20.0426  -54.3675 C.3       19 UNK        -0.1800 
    107 C         -3.6126  -21.2439  -55.2353 C.2       19 UNK         0.5000 
    108 O         -3.3722  -20.9258  -56.4011 O.2       19 UNK        -0.5000 
    109 N         -4.8379  -21.5792  -54.7995 N.am      20 UNK        -0.5000 
    110 CA        -6.1163  -21.6141  -55.5219 C.3       20 UNK         0.1400 
    111 CB        -6.0768  -22.6137  -56.6927 C.3       20 UNK        -0.1800 
    112 C         -6.6314  -20.2337  -55.9785 C.2       20 UNK         0.5000 
    113 O         -7.8169  -19.9468  -55.8107 O.2       20 UNK        -0.5000 
    114 N         -5.7408  -19.3973  -56.5237 N.am      21 UNK        -0.5000 
    115 CA        -6.0123  -18.0512  -57.0321 C.3       21 UNK         0.1400 
    116 CB        -4.7754  -17.5616  -57.8008 C.3       21 UNK        -0.1800 
    117 C         -6.4052  -17.0298  -55.9459 C.2       21 UNK         0.5000 
    118 O         -7.0343  -16.0213  -56.2699 O.2       21 UNK        -0.5000 
    119 N         -6.0338  -17.3010  -54.6912 N.am      22 UNK        -0.5000 
    120 CA        -6.3038  -16.4588  -53.5174 C.3       22 UNK         0.1400 
    121 C         -6.7898  -17.2722  -52.2834 C.2       22 UNK         0.5000 
    122 N         -7.3051  -18.4832  -52.4620 N.am      22 UNK        -0.7600 
    123 O         -6.7447  -16.7906  -51.1547 O.2       22 UNK        -0.5000 
    124 C124       -5.1543  -15.4514  -53.2269 C.3       23 UNK        -0.0398 
    125 S125       -3.4729  -16.1681  -53.2099 S.3       23 UNK        -0.2404 
    126 C126       -3.2336  -16.4705  -51.4257 C.3       23 UNK        -0.0205 
    127 H127       -1.1366  -14.3293  -49.1161 H         1 UNK         0.0600 
    128 H128       -1.2980  -12.7705  -49.9312 H         1 UNK         0.0600 
    129 H129       -1.1915  -14.2458  -50.8871 H         1 UNK         0.0600 
    130 H130        0.8847  -15.4788  -50.8197 H         1 UNK         0.3000 
    131 H131        3.0872  -13.8597  -51.3470 H         1 UNK         0.0600 
    132 H132        4.3725  -15.9029  -51.6644 H         1 UNK         0.0800 
    133 H133        3.2681  -16.8479  -50.7158 H         1 UNK         0.0800 
    134 H134        2.2671  -18.6569  -52.0854 H         1 UNK         0.0800 
    135 H135        1.1356  -18.3826  -53.3828 H         1 UNK         0.0800 
    136 H136       -0.9743  -17.1218  -52.9804 H         1 UNK         0.1150 
    137 H137       -2.3987  -16.9675  -48.9331 H         1 UNK         0.1150 
    138 H138        1.6180  -18.1991  -49.7556 H         1 UNK         0.1150 
    139 H139        0.7453  -17.0748  -47.4373 H         1 UNK         0.0800 
    140 H140       -0.9463  -17.3666  -47.1226 H         1 UNK         0.0800 
    141 H141       -1.3304  -20.3442  -48.6479 H         1 UNK         0.0800 
    142 H142       -2.1083  -19.5941  -47.2712 H         1 UNK         0.0800 
    143 H143       -0.5385  -22.2130  -47.1797 H         1 UNK         0.0600 
    144 H144       -1.1357  -20.5850  -45.0469 H         1 UNK         0.3000 
    145 H145       -1.9939  -21.5266  -42.7580 H         1 UNK         0.0600 
    146 H146       -0.9347  -23.0464  -41.0781 H         1 UNK         0.0600 
    147 H147       -2.0290  -23.9138  -42.1449 H         1 UNK         0.0600 
    148 H148       -0.2931  -24.0491  -42.3790 H         1 UNK         0.0600 
    149 H149       -0.1434  -20.3379  -42.6182 H         1 UNK         0.3000 
    150 H150        3.3200  -21.0325  -42.6538 H         1 UNK         0.0600 
    151 H151        2.8745  -20.2381  -44.9831 H         1 UNK         0.0600 
    152 H152        3.3715  -18.9059  -43.9483 H         1 UNK         0.0600 
    153 H153        1.6751  -19.1040  -44.3790 H         1 UNK         0.0600 
    154 H154        1.8571  -18.7029  -41.9380 H         1 UNK         0.3000 
    155 H155        1.0714  -19.6006  -38.5731 H         1 UNK         0.0600 
    156 H156        3.0392  -17.5887  -39.7930 H         1 UNK         0.0600 
    157 H157        3.3970  -18.7419  -38.5156 H         1 UNK         0.0600 
    158 H158        2.2550  -17.4399  -38.2213 H         1 UNK         0.0600 
    159 H159        0.6568  -17.3785  -40.4515 H         1 UNK         0.3000 
    160 H160       -2.6888  -18.2483  -41.2054 H         1 UNK         0.0600 
    161 H161       -3.2431  -16.0389  -40.2246 H         1 UNK         0.0600 
    162 H162       -1.7351  -16.0341  -39.3096 H         1 UNK         0.0600 
    163 H163       -2.9861  -17.2180  -38.9485 H         1 UNK         0.0600 
    164 H164       -1.0895  -15.9031  -41.6810 H         1 UNK         0.3000 
    165 H165        0.4497  -17.0564  -44.6640 H         1 UNK         0.0600 
    166 H166       -0.7119  -15.1778  -45.6927 H         1 UNK         0.0600 
    167 H167       -1.9364  -16.3676  -45.2706 H         1 UNK         0.0600 
    168 H168       -1.7259  -14.9390  -44.2717 H         1 UNK         0.0600 
    169 H169        0.5700  -14.4910  -43.5962 H         1 UNK         0.3000 
    170 H170        2.3470  -14.6138  -40.8182 H         1 UNK         0.0600 
    171 H171        4.3800  -15.7127  -41.6357 H         1 UNK         0.0600 
    172 H172        4.3078  -14.8336  -43.1531 H         1 UNK         0.0600 
    173 H173        4.6106  -13.9728  -41.6464 H         1 UNK         0.0600 
    174 H174        2.6648  -12.9196  -43.1936 H         1 UNK         0.3000 
    175 H175       -0.2664  -11.0855  -42.6623 H         1 UNK         0.0600 
    176 H176        1.0866   -9.0750  -42.1249 H         1 UNK         0.0600 
    177 H177        0.9391  -10.1002  -40.7072 H         1 UNK         0.0600 
    178 H178        2.4412  -10.0885  -41.6234 H         1 UNK         0.0600 
    179 H179        2.1260  -10.3866  -44.0510 H         1 UNK         0.3000 
    180 H180        0.9515  -11.2064  -47.0636 H         1 UNK         0.0600 
    181 H181        3.5709  -10.5639  -45.5902 H         1 UNK         0.0600 
    182 H182        2.2981   -9.4094  -45.9910 H         1 UNK         0.0600 
    183 H183        3.2063  -10.1914  -47.2688 H         1 UNK         0.0600 
    184 H184        2.0235  -12.9890  -47.7830 H         1 UNK         0.3000 
    185 H185        4.7285  -14.8181  -46.9789 H         1 UNK         0.0600 
    186 H186        2.1384  -16.0255  -45.8900 H         1 UNK         0.0600 
    187 H187        3.4538  -16.9734  -46.5845 H         1 UNK         0.0600 
    188 H188        3.7135  -16.0490  -45.1165 H         1 UNK         0.0600 
    189 H189        2.1700  -15.3990  -48.3328 H         1 UNK         0.3000 
    190 H190       -3.7146  -21.8288  -45.7734 H         1 UNK         0.3000 
    191 H191       -5.3662  -22.8070  -47.8409 H         1 UNK         0.0600 
    192 H192       -5.6165  -23.0888  -44.7984 H         1 UNK         0.0600 
    193 H193       -6.9177  -23.3492  -45.9540 H         1 UNK         0.0600 
    194 H194       -6.2233  -21.7469  -45.7709 H         1 UNK         0.0600 
    195 H195       -3.0366  -24.5206  -45.8673 H         1 UNK         0.3000 
    196 H196       -3.8215  -27.1067  -47.1658 H         1 UNK         0.0600 
    197 H197       -2.7296  -28.2173  -45.2180 H         1 UNK         0.0600 
    198 H198       -4.1014  -27.2477  -44.7019 H         1 UNK         0.0600 
    199 H199       -2.4609  -26.6537  -44.4535 H         1 UNK         0.0600 
    200 H200       -1.1222  -25.0120  -45.9984 H         1 UNK         0.3000 
    201 H201        0.9387  -26.6497  -47.0207 H         1 UNK         0.0600 
    202 H202        1.2104  -25.0509  -45.1396 H         1 UNK         0.0600 
    203 H203        1.0089  -23.6905  -46.2388 H         1 UNK         0.0600 
    204 H204        2.4014  -24.7499  -46.3945 H         1 UNK         0.0600 
    205 H205       -0.9467  -24.1833  -48.6648 H         1 UNK         0.3000 
    206 H206        0.7584  -24.4637  -51.1077 H         1 UNK         0.0600 
    207 H207        0.7777  -22.1159  -50.1862 H         1 UNK         0.0600 
    208 H208        0.0114  -22.2240  -51.7627 H         1 UNK         0.0600 
    209 H209       -0.9760  -22.0670  -50.3199 H         1 UNK         0.0600 
    210 H210       -1.1020  -26.3352  -50.1608 H         1 UNK         0.3000 
    211 H211       -2.5849  -27.7664  -50.8355 H         1 UNK         0.0600 
    212 H212       -2.7441  -26.2330  -53.4843 H         1 UNK         0.0600 
    213 H213       -3.3540  -27.8537  -53.1902 H         1 UNK         0.0600 
    214 H214       -1.6268  -27.5435  -53.1087 H         1 UNK         0.0600 
    215 H215       -3.7175  -24.5462  -51.7924 H         1 UNK         0.3000 
    216 H216       -6.0660  -24.5806  -50.1303 H         1 UNK         0.0600 
    217 H217       -7.7484  -24.4379  -51.9894 H         1 UNK         0.0600 
    218 H218       -6.9798  -26.0131  -51.9687 H         1 UNK         0.0600 
    219 H219       -6.4944  -24.8146  -53.1666 H         1 UNK         0.0600 
    220 H220       -3.9110  -22.9938  -50.0264 H         1 UNK         0.3000 
    221 H221       -3.0491  -20.9595  -50.1122 H         1 UNK         0.0600 
    222 H222       -5.9340  -20.0125  -50.4541 H         1 UNK         0.0600 
    223 H223       -5.1607  -20.4080  -48.9208 H         1 UNK         0.0600 
    224 H224       -4.5842  -19.0501  -49.8689 H         1 UNK         0.0600 
    225 H225       -2.6162  -22.2717  -52.3776 H         1 UNK         0.3000 
    226 H226       -1.8766  -22.1532  -54.4238 H         1 UNK         0.0600 
    227 H227       -2.0547  -19.0991  -54.2490 H         1 UNK         0.0600 
    228 H228       -1.0567  -20.0319  -55.3541 H         1 UNK         0.0600 
    229 H229       -0.7174  -20.0676  -53.6315 H         1 UNK         0.0600 
    230 H230       -4.9306  -21.7619  -53.8073 H         1 UNK         0.3000 
    231 H231       -6.8433  -21.9909  -54.8006 H         1 UNK         0.0600 
    232 H232       -5.7754  -23.6048  -56.3536 H         1 UNK         0.0600 
    233 H233       -5.3855  -22.3015  -57.4758 H         1 UNK         0.0600 
    234 H234       -7.0617  -22.7125  -57.1507 H         1 UNK         0.0600 
    235 H235       -4.7882  -19.7407  -56.6184 H         1 UNK         0.3000 
    236 H236       -6.8475  -18.1204  -57.7319 H         1 UNK         0.0600 
    237 H237       -4.5321  -18.2315  -58.6257 H         1 UNK         0.0600 
    238 H238       -4.9438  -16.5712  -58.2259 H         1 UNK         0.0600 
    239 H239       -3.9009  -17.4970  -57.1517 H         1 UNK         0.0600 
    240 H240       -5.4979  -18.1377  -54.5036 H         1 UNK         0.3000 
    241 H241       -7.1806  -15.8497  -53.7437 H         1 UNK         0.0600 
    242 H242       -7.6253  -19.0060  -51.6636 H         1 UNK         0.3800 
    243 H243       -7.3953  -18.8746  -53.3861 H         1 UNK         0.3800 
    244 H244       -5.1577  -14.6931  -54.0106 H         1 UNK         0.0800 
    245 H245       -5.3336  -14.9004  -52.3025 H         1 UNK         0.0800 
    246 H246       -3.9908  -17.1798  -51.0949 H         1 UNK         0.0800 
    247 H247       -3.4247  -15.5401  -50.8896 H         1 UNK         0.0800 
@<TRIPOS>BOND
     1    1    2 1    
     2    1  127 1    
     3    1  128 1    
     4    1  129 1    
     5    2    3 2    
     6    2    4 am   BACKBONE|DICT|INTERRES
     7    4    5 1    
     8    4  130 1    
     9    5    6 1    
    10    5   65 1    
    11    5  131 1    
    12    6    7 1    
    13    6  132 1    
    14    6  133 1    
    15    7    8 1    
    16    8    9 1    
    17    8  134 1    
    18    8  135 1    
    19    9   10 ar   
    20    9   14 ar   
    21   10   11 ar   
    22   10  136 1    
    23   11   12 ar   
    24   11  126 1    
    25   12   13 ar   
    26   12  137 1    
    27   13   14 ar   
    28   13   15 1    
    29   14  138 1    
    30   15   16 1    
    31   15  139 1    
    32   15  140 1    
    33   16   17 1    
    34   17   18 1    
    35   17  141 1    
    36   17  142 1    
    37   18   19 1    
    38   18   67 1    
    39   18  143 1    
    40   19   20 am   BACKBONE|DICT|INTERRES
    41   19  144 1    
    42   20   21 2    
    43   20   22 1    
    44   22   23 1    
    45   22   24 1    
    46   22  145 1    
    47   23  146 1    
    48   23  147 1    
    49   23  148 1    
    50   24   25 am   BACKBONE|DICT|INTERRES
    51   24  149 1    
    52   25   26 2    
    53   25   27 1    
    54   27   28 1    
    55   27   29 1    
    56   27  150 1    
    57   28  151 1    
    58   28  152 1    
    59   28  153 1    
    60   29   30 am   BACKBONE|DICT|INTERRES
    61   29  154 1    
    62   30   31 2    
    63   30   32 1    
    64   32   33 1    
    65   32   34 1    
    66   32  155 1    
    67   33  156 1    
    68   33  157 1    
    69   33  158 1    
    70   34   35 am   BACKBONE|DICT|INTERRES
    71   34  159 1    
    72   35   36 2    
    73   35   37 1    
    74   37   38 1    
    75   37   39 1    
    76   37  160 1    
    77   38  161 1    
    78   38  162 1    
    79   38  163 1    
    80   39   40 am   BACKBONE|DICT|INTERRES
    81   39  164 1    
    82   40   41 2    
    83   40   42 1    
    84   42   43 1    
    85   42   44 1    
    86   42  165 1    
    87   43  166 1    
    88   43  167 1    
    89   43  168 1    
    90   44   45 am   BACKBONE|DICT|INTERRES
    91   44  169 1    
    92   45   46 2    
    93   45   47 1    
    94   47   48 1    
    95   47   49 1    
    96   47  170 1    
    97   48  171 1    
    98   48  172 1    
    99   48  173 1    
   100   49   50 am   BACKBONE|DICT|INTERRES
   101   49  174 1    
   102   50   51 2    
   103   50   52 1    
   104   52   53 1    
   105   52   54 1    
   106   52  175 1    
   107   53  176 1    
   108   53  177 1    
   109   53  178 1    
   110   54   55 am   BACKBONE|DICT|INTERRES
   111   54  179 1    
   112   55   56 2    
   113   55   57 1    
   114   57   58 1    
   115   57   59 1    
   116   57  180 1    
   117   58  181 1    
   118   58  182 1    
   119   58  183 1    
   120   59   60 am   BACKBONE|DICT|INTERRES
   121   59  184 1    
   122   60   61 2    
   123   60   62 1    
   124   62   63 1    
   125   62   64 1    
   126   62  185 1    
   127   63  186 1    
   128   63  187 1    
   129   63  188 1    
   130   64   65 am   BACKBONE|DICT|INTERRES
   131   64  189 1    
   132   65   66 2    
   133   67   68 2    
   134   67   69 am   BACKBONE|DICT|INTERRES
   135   69   70 1    
   136   69  190 1    
   137   70   71 1    
   138   70   72 1    
   139   70  191 1    
   140   71  192 1    
   141   71  193 1    
   142   71  194 1    
   143   72   73 2    
   144   72   74 am   BACKBONE|DICT|INTERRES
   145   74   75 1    
   146   74  195 1    
   147   75   76 1    
   148   75   77 1    
   149   75  196 1    
   150   76  197 1    
   151   76  198 1    
   152   76  199 1    
   153   77   78 2    
   154   77   79 am   BACKBONE|DICT|INTERRES
   155   79   80 1    
   156   79  200 1    
   157   80   81 1    
   158   80   82 1    
   159   80  201 1    
   160   81  202 1    
   161   81  203 1    
   162   81  204 1    
   163   82   83 2    
   164   82   84 am   BACKBONE|DICT|INTERRES
   165   84   85 1    
   166   84  205 1    
   167   85   86 1    
   168   85   87 1    
   169   85  206 1    
   170   86  207 1    
   171   86  208 1    
   172   86  209 1    
   173   87   88 2    
   174   87   89 am   BACKBONE|DICT|INTERRES
   175   89   90 1    
   176   89  210 1    
   177   90   91 1    
   178   90   92 1    
   179   90  211 1    
   180   91  212 1    
   181   91  213 1    
   182   91  214 1    
   183   92   93 2    
   184   92   94 am   BACKBONE|DICT|INTERRES
   185   94   95 1    
   186   94  215 1    
   187   95   96 1    
   188   95   97 1    
   189   95  216 1    
   190   96  217 1    
   191   96  218 1    
   192   96  219 1    
   193   97   98 2    
   194   97   99 am   BACKBONE|DICT|INTERRES
   195   99  100 1    
   196   99  220 1    
   197  100  101 1    
   198  100  102 1    
   199  100  221 1    
   200  101  222 1    
   201  101  223 1    
   202  101  224 1    
   203  102  103 2    
   204  102  104 am   BACKBONE|DICT|INTERRES
   205  104  105 1    
   206  104  225 1    
   207  105  106 1    
   208  105  107 1    
   209  105  226 1    
   210  106  227 1    
   211  106  228 1    
   212  106  229 1    
   213  107  108 2    
   214  107  109 am   BACKBONE|DICT|INTERRES
   215  109  110 1    
   216  109  230 1    
   217  110  111 1    
   218  110  112 1    
   219  110  231 1    
   220  111  232 1    
   221  111  233 1    
   222  111  234 1    
   223  112  113 2    
   224  112  114 am   BACKBONE|DICT|INTERRES
   225  114  115 1    
   226  114  235 1    
   227  115  116 1    
   228  115  117 1    
   229  115  236 1    
   230  116  237 1    
   231  116  238 1    
   232  116  239 1    
   233  117  118 2    
   234  117  119 am   BACKBONE|DICT|INTERRES
   235  119  120 1    
   236  119  240 1    
   237  120  121 1    
   238  120  124 1    
   239  120  241 1    
   240  121  122 am   BACKBONE|DICT|INTERRES
   241  121  123 2    
   242  122  242 1    
   243  122  243 1    
   244  124  125 1    
   245  124  244 1    
   246  124  245 1    
   247  125  126 1    
   248  126  246 1    
   249  126  247 1    
@<TRIPOS>SUBSTRUCTURE
     1 UNK         1 GROUP             0       ****    0 ROOT    
