@<TRIPOS>MOLECULE
3R540
247   249    1
SMALL
USER_CHARGES


@<TRIPOS>ATOM
      1 CA         -2.2462  -14.0032  -45.9780 C.3       0 UNK        -0.1800 
      2 C          -1.7743  -12.7430  -46.6916 C.2       0 UNK         0.5000 
      3 O          -2.5756  -11.8454  -46.9494 O.2       0 UNK        -0.5000 
      4 N          -0.4810  -12.6746  -47.0145 N.am      1 UNK        -0.5000 
      5 CA          0.1782  -11.5597  -47.6924 C.3       1 UNK         0.1400 
      6 C6          0.0405  -11.6316  -49.2375 C.3       23 UNK        -0.0398 
      7 S7          0.6003  -13.2132  -49.9688 S.3       23 UNK        -0.2404 
      8 C8         -0.9937  -14.0120  -50.3288 C.3       23 UNK        -0.0205 
      9 C9         -0.8218  -15.5073  -50.5363 C.ar      23 UNK        -0.0193 
     10 C10        -0.4142  -16.0047  -51.7760 C.ar      23 UNK        -0.1150 
     11 C11        -0.2572  -17.3801  -51.9733 C.ar      23 UNK        -0.0193 
     12 C12        -0.4959  -18.2585  -50.9111 C.ar      23 UNK        -0.1150 
     13 C13        -0.9064  -17.7726  -49.6651 C.ar      23 UNK        -0.0193 
     14 C14        -1.0690  -16.3952  -49.4863 C.ar      23 UNK        -0.1150 
     15 C15        -1.1381  -18.7192  -48.4957 C.3       23 UNK        -0.0205 
     16 S16        -2.4204  -19.9645  -48.8280 S.3       23 UNK        -0.2404 
     17 C17        -2.7188  -20.6232  -47.1510 C.3       23 UNK        -0.0398 
     18 CA         -1.8862  -21.8972  -46.8437 C.3       11 UNK         0.1400 
     19 N          -0.6239  -21.6003  -46.1540 N.am      11 UNK        -0.5000 
     20 C           0.3377  -22.5035  -45.9087 C.2       10 UNK         0.5000 
     21 O           0.2914  -23.6709  -46.2958 O.2       10 UNK        -0.5000 
     22 CA          1.5227  -22.0497  -45.0368 C.3       10 UNK         0.1400 
     23 CB          2.5388  -21.2407  -45.8570 C.3       10 UNK        -0.1800 
     24 N           1.0978  -21.2843  -43.8633 N.am      10 UNK        -0.5000 
     25 C           0.3662  -21.7865  -42.8582 C.2       9 UNK         0.5000 
     26 O           0.0092  -22.9622  -42.7993 O.2       9 UNK        -0.5000 
     27 CA         -0.0832  -20.8119  -41.7534 C.3       9 UNK         0.1400 
     28 CB          1.0287  -20.6086  -40.7141 C.3       9 UNK        -0.1800 
     29 N          -0.5193  -19.5175  -42.2780 N.am      9 UNK        -0.5000 
     30 C          -1.5699  -19.3492  -43.0949 C.2       8 UNK         0.5000 
     31 O          -2.3132  -20.2623  -43.4536 O.2       8 UNK        -0.5000 
     32 CA         -1.7917  -17.9360  -43.6617 C.3       8 UNK         0.1400 
     33 CB         -2.5137  -17.0453  -42.6406 C.3       8 UNK        -0.1800 
     34 N          -0.5475  -17.2964  -44.0941 N.am      8 UNK        -0.5000 
     35 C           0.2715  -17.7944  -45.0318 C.2       7 UNK         0.5000 
     36 O           0.0440  -18.8356  -45.6449 O.2       7 UNK        -0.5000 
     37 CA          1.5932  -17.0486  -45.2820 C.3       7 UNK         0.1400 
     38 CB          1.3667  -15.7622  -46.0866 C.3       7 UNK        -0.1800 
     39 N           2.2931  -16.7384  -44.0372 N.am      7 UNK        -0.5000 
     40 C           2.7603  -17.6579  -43.1814 C.2       6 UNK         0.5000 
     41 O           2.7095  -18.8708  -43.3834 O.2       6 UNK        -0.5000 
     42 CA          3.3351  -17.1355  -41.8553 C.3       6 UNK         0.1400 
     43 CB          4.7958  -16.6903  -42.0236 C.3       6 UNK        -0.1800 
     44 N           2.5390  -16.0318  -41.3193 N.am      6 UNK        -0.5000 
     45 C           1.3149  -16.1714  -40.7915 C.2       5 UNK         0.5000 
     46 O           0.7380  -17.2532  -40.6773 O.2       5 UNK        -0.5000 
     47 CA          0.6035  -14.8787  -40.3501 C.3       5 UNK         0.1400 
     48 CB          1.0852  -14.4406  -38.9590 C.3       5 UNK        -0.1800 
     49 N           0.7890  -13.7789  -41.2987 N.am      5 UNK        -0.5000 
     50 C           0.2847  -13.7695  -42.5395 C.2       4 UNK         0.5000 
     51 O          -0.4026  -14.6758  -43.0054 O.2       4 UNK        -0.5000 
     52 CA          0.6375  -12.5715  -43.4342 C.3       4 UNK         0.1400 
     53 CB         -0.3628  -11.4244  -43.2362 C.3       4 UNK        -0.1800 
     54 N           2.0015  -12.0619  -43.2875 N.am      4 UNK        -0.5000 
     55 C           3.1241  -12.7785  -43.4346 C.2       3 UNK         0.5000 
     56 O           3.1482  -14.0072  -43.5229 O.2       3 UNK        -0.5000 
     57 CA          4.4241  -11.9636  -43.5853 C.3       3 UNK         0.1400 
     58 CB          5.6843  -12.8233  -43.3825 C.3       3 UNK        -0.1800 
     59 N           4.4627  -11.3709  -44.9223 N.am      3 UNK        -0.5000 
     60 C           3.7474  -10.3069  -45.3102 C.2       2 UNK         0.5000 
     61 O           3.1293   -9.5826  -44.5268 O.2       2 UNK        -0.5000 
     62 CA          3.6328  -10.0374  -46.8253 C.3       2 UNK         0.1400 
     63 CB          4.6950  -10.7624  -47.6831 C.3       2 UNK        -0.1800 
     64 N           2.2766  -10.3416  -47.3032 N.am      2 UNK        -0.5000 
     65 C           1.6446  -11.5238  -47.2244 C.2       1 UNK         0.5000 
     66 O           2.1638  -12.5569  -46.7938 O.2       1 UNK        -0.5000 
     67 C          -2.7251  -22.9367  -46.0702 C.2       11 UNK         0.5000 
     68 O          -3.2526  -23.8592  -46.6916 O.2       11 UNK        -0.5000 
     69 N          -2.8100  -22.7971  -44.7389 N.am      12 UNK        -0.5000 
     70 CA         -3.5013  -23.7350  -43.8526 C.3       12 UNK         0.1400 
     71 CB         -3.5816  -23.1545  -42.4330 C.3       12 UNK        -0.1800 
     72 C          -2.8541  -25.1316  -43.8420 C.2       12 UNK         0.5000 
     73 O          -3.5703  -26.1268  -43.9507 O.2       12 UNK        -0.5000 
     74 N          -1.5164  -25.1843  -43.7653 N.am      13 UNK        -0.5000 
     75 CA         -0.7214  -26.4142  -43.8333 C.3       13 UNK         0.1400 
     76 CB          0.7487  -26.0937  -43.5248 C.3       13 UNK        -0.1800 
     77 C          -0.8469  -27.1383  -45.1873 C.2       13 UNK         0.5000 
     78 O          -0.8881  -28.3685  -45.2192 O.2       13 UNK        -0.5000 
     79 N          -0.9483  -26.3616  -46.2737 N.am      14 UNK        -0.5000 
     80 CA         -1.2118  -26.8422  -47.6305 C.3       14 UNK         0.1400 
     81 CB         -0.7635  -25.7634  -48.6307 C.3       14 UNK        -0.1800 
     82 C          -2.6880  -27.2166  -47.8779 C.2       14 UNK         0.5000 
     83 O          -2.9973  -27.7146  -48.9592 O.2       14 UNK        -0.5000 
     84 N          -3.5799  -26.9386  -46.9136 N.am      15 UNK        -0.5000 
     85 CA         -5.0376  -27.1060  -46.9759 C.3       15 UNK         0.1400 
     86 CB         -5.4124  -28.6021  -47.0051 C.3       15 UNK        -0.1800 
     87 C          -5.6847  -26.2970  -48.1226 C.2       15 UNK         0.5000 
     88 O          -6.6519  -26.7518  -48.7357 O.2       15 UNK        -0.5000 
     89 N          -5.1104  -25.1164  -48.3984 N.am      16 UNK        -0.5000 
     90 CA         -5.4474  -24.1710  -49.4660 C.3       16 UNK         0.1400 
     91 CB         -6.8436  -23.5592  -49.2317 C.3       16 UNK        -0.1800 
     92 C          -5.2748  -24.7316  -50.8963 C.2       16 UNK         0.5000 
     93 O          -5.8627  -24.1856  -51.8329 O.2       16 UNK        -0.5000 
     94 N          -4.4641  -25.7897  -51.0615 N.am      17 UNK        -0.5000 
     95 CA         -4.1608  -26.4167  -52.3492 C.3       17 UNK         0.1400 
     96 CB         -3.2793  -27.6558  -52.1330 C.3       17 UNK        -0.1800 
     97 C          -3.4917  -25.4268  -53.3198 C.2       17 UNK         0.5000 
     98 O          -2.3889  -24.9510  -53.0432 O.2       17 UNK        -0.5000 
     99 N          -4.2024  -25.1179  -54.4127 N.am      18 UNK        -0.5000 
    100 CA        -3.8505  -24.1611  -55.4675 C.3       18 UNK         0.1400 
    101 CB        -2.5774  -24.6052  -56.2181 C.3       18 UNK        -0.1800 
    102 C         -3.7750  -22.6897  -55.0018 C.2       18 UNK         0.5000 
    103 O         -3.2494  -21.8566  -55.7397 O.2       18 UNK        -0.5000 
    104 N         -4.3393  -22.3620  -53.8275 N.am      19 UNK        -0.5000 
    105 CA        -4.3526  -21.0009  -53.2743 C.3       19 UNK         0.1400 
    106 CB        -4.8416  -21.0387  -51.8195 C.3       19 UNK        -0.1800 
    107 C         -5.1911  -20.0097  -54.1066 C.2       19 UNK         0.5000 
    108 O         -4.9272  -18.8087  -54.0727 O.2       19 UNK        -0.5000 
    109 N         -6.1589  -20.5295  -54.8749 N.am      20 UNK        -0.5000 
    110 CA        -6.9697  -19.7718  -55.8294 C.3       20 UNK         0.1400 
    111 CB        -8.1176  -20.6637  -56.3259 C.3       20 UNK        -0.1800 
    112 C         -6.1602  -19.2221  -57.0223 C.2       20 UNK         0.5000 
    113 O         -6.5520  -18.2058  -57.5974 O.2       20 UNK        -0.5000 
    114 N         -5.0398  -19.8774  -57.3643 N.am      21 UNK        -0.5000 
    115 CA        -4.1348  -19.4606  -58.4390 C.3       21 UNK         0.1400 
    116 CB        -3.2715  -20.6567  -58.8707 C.3       21 UNK        -0.1800 
    117 C         -3.2483  -18.2602  -58.0508 C.2       21 UNK         0.5000 
    118 O         -2.6618  -17.6369  -58.9367 O.2       21 UNK        -0.5000 
    119 N         -3.1682  -17.9494  -56.7500 N.am      22 UNK        -0.5000 
    120 CA        -2.4302  -16.8013  -56.2009 C.3       22 UNK         0.1400 
    121 C         -3.1059  -15.4206  -56.4595 C.2       22 UNK         0.5000 
    122 N         -4.3489  -15.3570  -56.9240 N.am      22 UNK        -0.7600 
    123 O         -2.4849  -14.3841  -56.2406 O.2       22 UNK        -0.5000 
    124 C124       -2.1266  -16.9795  -54.6916 C.3       23 UNK        -0.0398 
    125 S125       -1.2294  -18.5259  -54.3071 S.3       23 UNK        -0.2404 
    126 C126        0.1808  -17.9158  -53.3292 C.3       23 UNK        -0.0205 
    127 H127       -2.4550  -13.7864  -44.9303 H         1 UNK         0.0600 
    128 H128       -1.5026  -14.7984  -46.0191 H         1 UNK         0.0600 
    129 H129       -3.1604  -14.3771  -46.4389 H         1 UNK         0.0600 
    130 H130        0.1621  -13.4165  -46.7690 H         1 UNK         0.3000 
    131 H131       -0.2816  -10.6306  -47.3486 H         1 UNK         0.0600 
    132 H132        0.6015  -10.8220  -49.7070 H         1 UNK         0.0800 
    133 H133       -0.9996  -11.4566  -49.5154 H         1 UNK         0.0800 
    134 H134       -1.6927  -13.8305  -49.5116 H         1 UNK         0.0800 
    135 H135       -1.4345  -13.5578  -51.2175 H         1 UNK         0.0800 
    136 H136       -0.2154  -15.3158  -52.5848 H         1 UNK         0.1150 
    137 H137       -0.3679  -19.3222  -51.0552 H         1 UNK         0.1150 
    138 H138       -1.3778  -16.0094  -48.5249 H         1 UNK         0.1150 
    139 H139       -0.2023  -19.2228  -48.2504 H         1 UNK         0.0800 
    140 H140       -1.4344  -18.1466  -47.6167 H         1 UNK         0.0800 
    141 H141       -3.7907  -20.8279  -47.1101 H         1 UNK         0.0800 
    142 H142       -2.5490  -19.8506  -46.3998 H         1 UNK         0.0800 
    143 H143       -1.6235  -22.3755  -47.7898 H         1 UNK         0.0600 
    144 H144       -0.4855  -20.6459  -45.8302 H         1 UNK         0.3000 
    145 H145        2.0279  -22.9482  -44.6766 H         1 UNK         0.0600 
    146 H146        2.9019  -21.8206  -46.7063 H         1 UNK         0.0600 
    147 H147        2.1065  -20.3215  -46.2508 H         1 UNK         0.0600 
    148 H148        3.4051  -20.9698  -45.2533 H         1 UNK         0.0600 
    149 H149        1.3915  -20.3134  -43.8204 H         1 UNK         0.3000 
    150 H150       -0.9369  -21.2636  -41.2445 H         1 UNK         0.0600 
    151 H151        1.9070  -20.1321  -41.1486 H         1 UNK         0.0600 
    152 H152        1.3477  -21.5627  -40.2928 H         1 UNK         0.0600 
    153 H153        0.6857  -19.9865  -39.8872 H         1 UNK         0.0600 
    154 H154        0.0248  -18.7071  -42.0028 H         1 UNK         0.3000 
    155 H155       -2.4335  -18.0306  -44.5398 H         1 UNK         0.0600 
    156 H156       -1.8959  -16.8587  -41.7615 H         1 UNK         0.0600 
    157 H157       -2.7755  -16.0811  -43.0766 H         1 UNK         0.0600 
    158 H158       -3.4400  -17.5100  -42.3008 H         1 UNK         0.0600 
    159 H159       -0.3157  -16.4136  -43.6444 H         1 UNK         0.3000 
    160 H160        2.2355  -17.7056  -45.8719 H         1 UNK         0.0600 
    161 H161        0.8030  -15.0286  -45.5133 H         1 UNK         0.0600 
    162 H162        0.8184  -15.9627  -47.0080 H         1 UNK         0.0600 
    163 H163        2.3159  -15.3042  -46.3654 H         1 UNK         0.0600 
    164 H164        2.4241  -15.7559  -43.8108 H         1 UNK         0.3000 
    165 H165        3.3131  -17.9554  -41.1343 H         1 UNK         0.0600 
    166 H166        5.2167  -16.3514  -41.0770 H         1 UNK         0.0600 
    167 H167        5.4141  -17.5162  -42.3775 H         1 UNK         0.0600 
    168 H168        4.8935  -15.8781  -42.7442 H         1 UNK         0.0600 
    169 H169        2.9041  -15.1007  -41.4620 H         1 UNK         0.3000 
    170 H170       -0.4653  -15.0946  -40.2869 H         1 UNK         0.0600 
    171 H171        0.9434  -15.2382  -38.2285 H         1 UNK         0.0600 
    172 H172        2.1446  -14.1814  -38.9609 H         1 UNK         0.0600 
    173 H173        0.5277  -13.5736  -38.6040 H         1 UNK         0.0600 
    174 H174        1.3548  -12.9983  -40.9996 H         1 UNK         0.3000 
    175 H175        0.5474  -12.9150  -44.4640 H         1 UNK         0.0600 
    176 H176       -0.2827  -10.9884  -42.2397 H         1 UNK         0.0600 
    177 H177       -0.2001  -10.6307  -43.9658 H         1 UNK         0.0600 
    178 H178       -1.3888  -11.7731  -43.3624 H         1 UNK         0.0600 
    179 H179        2.0998  -11.0539  -43.2829 H         1 UNK         0.3000 
    180 H180        4.4261  -11.1737  -42.8312 H         1 UNK         0.0600 
    181 H181        5.7562  -13.6198  -44.1243 H         1 UNK         0.0600 
    182 H182        5.6822  -13.2912  -42.3972 H         1 UNK         0.0600 
    183 H183        6.5883  -12.2183  -43.4532 H         1 UNK         0.0600 
    184 H184        4.8783  -11.9416  -45.6441 H         1 UNK         0.3000 
    185 H185        3.7802   -8.9645  -46.9572 H         1 UNK         0.0600 
    186 H186        5.7035  -10.5106  -47.3527 H         1 UNK         0.0600 
    187 H187        4.5947  -11.8475  -47.6475 H         1 UNK         0.0600 
    188 H188        4.6169  -10.4625  -48.7281 H         1 UNK         0.0600 
    189 H189        1.7592   -9.5435  -47.6444 H         1 UNK         0.3000 
    190 H190       -2.3952  -21.9797  -44.2991 H         1 UNK         0.3000 
    191 H191       -4.5215  -23.8485  -44.2254 H         1 UNK         0.0600 
    192 H192       -2.5924  -22.9900  -42.0067 H         1 UNK         0.0600 
    193 H193       -4.1187  -23.8292  -41.7653 H         1 UNK         0.0600 
    194 H194       -4.1108  -22.2016  -42.4268 H         1 UNK         0.0600 
    195 H195       -0.9992  -24.3193  -43.6254 H         1 UNK         0.3000 
    196 H196       -1.0911  -27.0918  -43.0610 H         1 UNK         0.0600 
    197 H197        1.3611  -26.9957  -43.5547 H         1 UNK         0.0600 
    198 H198        0.8569  -25.6600  -42.5305 H         1 UNK         0.0600 
    199 H199        1.1657  -25.3883  -44.2442 H         1 UNK         0.0600 
    200 H200       -0.8339  -25.3585  -46.1659 H         1 UNK         0.3000 
    201 H201       -0.6146  -27.7391  -47.8064 H         1 UNK         0.0600 
    202 H202        0.2917  -25.5216  -48.5031 H         1 UNK         0.0600 
    203 H203       -1.3343  -24.8422  -48.5096 H         1 UNK         0.0600 
    204 H204       -0.8966  -26.0984  -49.6602 H         1 UNK         0.0600 
    205 H205       -3.2358  -26.5133  -46.0616 H         1 UNK         0.3000 
    206 H206       -5.4314  -26.6849  -46.0500 H         1 UNK         0.0600 
    207 H207       -6.4904  -28.7373  -46.9107 H         1 UNK         0.0600 
    208 H208       -5.1033  -29.0798  -47.9353 H         1 UNK         0.0600 
    209 H209       -4.9456  -29.1403  -46.1801 H         1 UNK         0.0600 
    210 H210       -4.3397  -24.8219  -47.7998 H         1 UNK         0.3000 
    211 H211       -4.7205  -23.3625  -49.3781 H         1 UNK         0.0600 
    212 H212       -7.6358  -24.2959  -49.3667 H         1 UNK         0.0600 
    213 H213       -7.0370  -22.7417  -49.9268 H         1 UNK         0.0600 
    214 H214       -6.9308  -23.1519  -48.2244 H         1 UNK         0.0600 
    215 H215       -4.0187  -26.1982  -50.2493 H         1 UNK         0.3000 
    216 H216       -5.1059  -26.7533  -52.7803 H         1 UNK         0.0600 
    217 H217       -2.3352  -27.3994  -51.6506 H         1 UNK         0.0600 
    218 H218       -3.0429  -28.1378  -53.0824 H         1 UNK         0.0600 
    219 H219       -3.7846  -28.3949  -51.5111 H         1 UNK         0.0600 
    220 H220       -5.1138  -25.5434  -54.5137 H         1 UNK         0.3000 
    221 H221       -4.6735  -24.1965  -56.1825 H         1 UNK         0.0600 
    222 H222       -1.6873  -24.5190  -55.5946 H         1 UNK         0.0600 
    223 H223       -2.6559  -25.6400  -56.5513 H         1 UNK         0.0600 
    224 H224       -2.4120  -23.9929  -57.1055 H         1 UNK         0.0600 
    225 H225       -4.7833  -23.0855  -53.2724 H         1 UNK         0.3000 
    226 H226       -3.3246  -20.6326  -53.2726 H         1 UNK         0.0600 
    227 H227       -4.2060  -21.6787  -51.2079 H         1 UNK         0.0600 
    228 H228       -4.8186  -20.0431  -51.3742 H         1 UNK         0.0600 
    229 H229       -5.8653  -21.4073  -51.7488 H         1 UNK         0.0600 
    230 H230       -6.3155  -21.5256  -54.8333 H         1 UNK         0.3000 
    231 H231       -7.4013  -18.9178  -55.3034 H         1 UNK         0.0600 
    232 H232       -8.7612  -20.1217  -57.0202 H         1 UNK         0.0600 
    233 H233       -8.7440  -20.9983  -55.4987 H         1 UNK         0.0600 
    234 H234       -7.7451  -21.5475  -56.8454 H         1 UNK         0.0600 
    235 H235       -4.7402  -20.6711  -56.8113 H         1 UNK         0.3000 
    236 H236       -4.7381  -19.1571  -59.2972 H         1 UNK         0.0600 
    237 H237       -2.5717  -20.9532  -58.0894 H         1 UNK         0.0600 
    238 H238       -3.8857  -21.5219  -59.1206 H         1 UNK         0.0600 
    239 H239       -2.6826  -20.4100  -59.7549 H         1 UNK         0.0600 
    240 H240       -3.6781  -18.5080  -56.0794 H         1 UNK         0.3000 
    241 H241       -1.4696  -16.7605  -56.7179 H         1 UNK         0.0600 
    242 H242       -4.8735  -16.1982  -57.1111 H         1 UNK         0.3800 
    243 H243       -4.7703  -14.4566  -57.0909 H         1 UNK         0.3800 
    244 H244       -1.5390  -16.1321  -54.3398 H         1 UNK         0.0800 
    245 H245       -3.0484  -16.9652  -54.1088 H         1 UNK         0.0800 
    246 H246        0.7153  -17.1507  -53.8945 H         1 UNK         0.0800 
    247 H247        0.8875  -18.7342  -53.1839 H         1 UNK         0.0800 
@<TRIPOS>BOND
     1    1    2 1    
     2    1  127 1    
     3    1  128 1    
     4    1  129 1    
     5    2    3 2    
     6    2    4 am   BACKBONE|DICT|INTERRES
     7    4    5 1    
     8    4  130 1    
     9    5    6 1    
    10    5   65 1    
    11    5  131 1    
    12    6    7 1    
    13    6  132 1    
    14    6  133 1    
    15    7    8 1    
    16    8    9 1    
    17    8  134 1    
    18    8  135 1    
    19    9   10 ar   
    20    9   14 ar   
    21   10   11 ar   
    22   10  136 1    
    23   11   12 ar   
    24   11  126 1    
    25   12   13 ar   
    26   12  137 1    
    27   13   14 ar   
    28   13   15 1    
    29   14  138 1    
    30   15   16 1    
    31   15  139 1    
    32   15  140 1    
    33   16   17 1    
    34   17   18 1    
    35   17  141 1    
    36   17  142 1    
    37   18   19 1    
    38   18   67 1    
    39   18  143 1    
    40   19   20 am   BACKBONE|DICT|INTERRES
    41   19  144 1    
    42   20   21 2    
    43   20   22 1    
    44   22   23 1    
    45   22   24 1    
    46   22  145 1    
    47   23  146 1    
    48   23  147 1    
    49   23  148 1    
    50   24   25 am   BACKBONE|DICT|INTERRES
    51   24  149 1    
    52   25   26 2    
    53   25   27 1    
    54   27   28 1    
    55   27   29 1    
    56   27  150 1    
    57   28  151 1    
    58   28  152 1    
    59   28  153 1    
    60   29   30 am   BACKBONE|DICT|INTERRES
    61   29  154 1    
    62   30   31 2    
    63   30   32 1    
    64   32   33 1    
    65   32   34 1    
    66   32  155 1    
    67   33  156 1    
    68   33  157 1    
    69   33  158 1    
    70   34   35 am   BACKBONE|DICT|INTERRES
    71   34  159 1    
    72   35   36 2    
    73   35   37 1    
    74   37   38 1    
    75   37   39 1    
    76   37  160 1    
    77   38  161 1    
    78   38  162 1    
    79   38  163 1    
    80   39   40 am   BACKBONE|DICT|INTERRES
    81   39  164 1    
    82   40   41 2    
    83   40   42 1    
    84   42   43 1    
    85   42   44 1    
    86   42  165 1    
    87   43  166 1    
    88   43  167 1    
    89   43  168 1    
    90   44   45 am   BACKBONE|DICT|INTERRES
    91   44  169 1    
    92   45   46 2    
    93   45   47 1    
    94   47   48 1    
    95   47   49 1    
    96   47  170 1    
    97   48  171 1    
    98   48  172 1    
    99   48  173 1    
   100   49   50 am   BACKBONE|DICT|INTERRES
   101   49  174 1    
   102   50   51 2    
   103   50   52 1    
   104   52   53 1    
   105   52   54 1    
   106   52  175 1    
   107   53  176 1    
   108   53  177 1    
   109   53  178 1    
   110   54   55 am   BACKBONE|DICT|INTERRES
   111   54  179 1    
   112   55   56 2    
   113   55   57 1    
   114   57   58 1    
   115   57   59 1    
   116   57  180 1    
   117   58  181 1    
   118   58  182 1    
   119   58  183 1    
   120   59   60 am   BACKBONE|DICT|INTERRES
   121   59  184 1    
   122   60   61 2    
   123   60   62 1    
   124   62   63 1    
   125   62   64 1    
   126   62  185 1    
   127   63  186 1    
   128   63  187 1    
   129   63  188 1    
   130   64   65 am   BACKBONE|DICT|INTERRES
   131   64  189 1    
   132   65   66 2    
   133   67   68 2    
   134   67   69 am   BACKBONE|DICT|INTERRES
   135   69   70 1    
   136   69  190 1    
   137   70   71 1    
   138   70   72 1    
   139   70  191 1    
   140   71  192 1    
   141   71  193 1    
   142   71  194 1    
   143   72   73 2    
   144   72   74 am   BACKBONE|DICT|INTERRES
   145   74   75 1    
   146   74  195 1    
   147   75   76 1    
   148   75   77 1    
   149   75  196 1    
   150   76  197 1    
   151   76  198 1    
   152   76  199 1    
   153   77   78 2    
   154   77   79 am   BACKBONE|DICT|INTERRES
   155   79   80 1    
   156   79  200 1    
   157   80   81 1    
   158   80   82 1    
   159   80  201 1    
   160   81  202 1    
   161   81  203 1    
   162   81  204 1    
   163   82   83 2    
   164   82   84 am   BACKBONE|DICT|INTERRES
   165   84   85 1    
   166   84  205 1    
   167   85   86 1    
   168   85   87 1    
   169   85  206 1    
   170   86  207 1    
   171   86  208 1    
   172   86  209 1    
   173   87   88 2    
   174   87   89 am   BACKBONE|DICT|INTERRES
   175   89   90 1    
   176   89  210 1    
   177   90   91 1    
   178   90   92 1    
   179   90  211 1    
   180   91  212 1    
   181   91  213 1    
   182   91  214 1    
   183   92   93 2    
   184   92   94 am   BACKBONE|DICT|INTERRES
   185   94   95 1    
   186   94  215 1    
   187   95   96 1    
   188   95   97 1    
   189   95  216 1    
   190   96  217 1    
   191   96  218 1    
   192   96  219 1    
   193   97   98 2    
   194   97   99 am   BACKBONE|DICT|INTERRES
   195   99  100 1    
   196   99  220 1    
   197  100  101 1    
   198  100  102 1    
   199  100  221 1    
   200  101  222 1    
   201  101  223 1    
   202  101  224 1    
   203  102  103 2    
   204  102  104 am   BACKBONE|DICT|INTERRES
   205  104  105 1    
   206  104  225 1    
   207  105  106 1    
   208  105  107 1    
   209  105  226 1    
   210  106  227 1    
   211  106  228 1    
   212  106  229 1    
   213  107  108 2    
   214  107  109 am   BACKBONE|DICT|INTERRES
   215  109  110 1    
   216  109  230 1    
   217  110  111 1    
   218  110  112 1    
   219  110  231 1    
   220  111  232 1    
   221  111  233 1    
   222  111  234 1    
   223  112  113 2    
   224  112  114 am   BACKBONE|DICT|INTERRES
   225  114  115 1    
   226  114  235 1    
   227  115  116 1    
   228  115  117 1    
   229  115  236 1    
   230  116  237 1    
   231  116  238 1    
   232  116  239 1    
   233  117  118 2    
   234  117  119 am   BACKBONE|DICT|INTERRES
   235  119  120 1    
   236  119  240 1    
   237  120  121 1    
   238  120  124 1    
   239  120  241 1    
   240  121  122 am   BACKBONE|DICT|INTERRES
   241  121  123 2    
   242  122  242 1    
   243  122  243 1    
   244  124  125 1    
   245  124  244 1    
   246  124  245 1    
   247  125  126 1    
   248  126  246 1    
   249  126  247 1    
@<TRIPOS>SUBSTRUCTURE
     1 UNK         1 GROUP             0       ****    0 ROOT    
