@<TRIPOS>MOLECULE
3R540
247   249    1
SMALL
USER_CHARGES


@<TRIPOS>ATOM
      1 CA          5.8632   -8.5521  -51.1487 C.3       0 UNK        -0.1800 
      2 C           5.9828   -9.7647  -50.2368 C.2       0 UNK         0.5000 
      3 O           6.9377   -9.8610  -49.4645 O.2       0 UNK        -0.5000 
      4 N           5.0162  -10.6886  -50.3131 N.am      1 UNK        -0.5000 
      5 CA          4.9391  -11.9125  -49.5077 C.3       1 UNK         0.1400 
      6 C6          4.1434  -13.0197  -50.2485 C.3       23 UNK        -0.0398 
      7 S7          4.6225  -14.7038  -49.7253 S.3       23 UNK        -0.2404 
      8 C8          3.0742  -15.3718  -49.0361 C.3       23 UNK        -0.0205 
      9 C9          2.8939  -16.8280  -49.4370 C.ar      23 UNK        -0.0193 
     10 C10         2.1625  -17.1465  -50.5840 C.ar      23 UNK        -0.1150 
     11 C11         2.0069  -18.4772  -50.9798 C.ar      23 UNK        -0.0193 
     12 C12         2.6066  -19.4908  -50.2303 C.ar      23 UNK        -0.1150 
     13 C13         3.3275  -19.1927  -49.0683 C.ar      23 UNK        -0.0193 
     14 C14         3.4649  -17.8551  -48.6776 C.ar      23 UNK        -0.1150 
     15 C15         3.9880  -20.2976  -48.2439 C.3       23 UNK        -0.0205 
     16 S16         3.0000  -21.8301  -48.1068 S.3       23 UNK        -0.2404 
     17 C17         1.5097  -21.1871  -47.2843 C.3       23 UNK        -0.0398 
     18 CA          0.5313  -22.2927  -46.8212 C.3       11 UNK         0.1400 
     19 N          -0.3442  -21.8082  -45.7525 N.am      11 UNK        -0.5000 
     20 C          -1.1996  -22.5529  -45.0415 C.2       10 UNK         0.5000 
     21 O          -1.2954  -23.7742  -45.1549 O.2       10 UNK        -0.5000 
     22 CA         -2.1400  -21.7987  -44.0804 C.3       10 UNK         0.1400 
     23 CB         -1.4558  -21.5351  -42.7312 C.3       10 UNK        -0.1800 
     24 N          -2.6253  -20.5361  -44.6451 N.am      10 UNK        -0.5000 
     25 C          -3.4422  -20.4531  -45.7059 C.2       9 UNK         0.5000 
     26 O          -3.9162  -21.4347  -46.2758 O.2       9 UNK        -0.5000 
     27 CA         -3.7386  -19.0463  -46.2571 C.3       9 UNK         0.1400 
     28 CB         -4.8486  -18.3646  -45.4447 C.3       9 UNK        -0.1800 
     29 N          -2.5500  -18.1918  -46.2907 N.am      9 UNK        -0.5000 
     30 C          -1.4643  -18.4351  -47.0394 C.2       8 UNK         0.5000 
     31 O          -1.3823  -19.3755  -47.8271 O.2       8 UNK        -0.5000 
     32 CA         -0.2444  -17.5187  -46.8301 C.3       8 UNK         0.1400 
     33 CB         -0.3939  -16.2084  -47.6157 C.3       8 UNK        -0.1800 
     34 N          -0.0112  -17.2179  -45.4178 N.am      8 UNK        -0.5000 
     35 C           0.2888  -18.1250  -44.4791 C.2       7 UNK         0.5000 
     36 O           0.4536  -19.3186  -44.7159 O.2       7 UNK        -0.5000 
     37 CA          0.3652  -17.6322  -43.0258 C.3       7 UNK         0.1400 
     38 CB          1.7455  -17.0431  -42.7120 C.3       7 UNK        -0.1800 
     39 N          -0.6674  -16.6405  -42.7378 N.am      7 UNK        -0.5000 
     40 C          -1.9656  -16.9296  -42.5835 C.2       6 UNK         0.5000 
     41 O          -2.4223  -18.0726  -42.6304 O.2       6 UNK        -0.5000 
     42 CA         -2.9117  -15.7318  -42.3781 C.3       6 UNK         0.1400 
     43 CB         -2.9190  -15.2918  -40.9065 C.3       6 UNK        -0.1800 
     44 N          -2.5692  -14.5869  -43.2268 N.am      6 UNK        -0.5000 
     45 C          -2.6875  -14.5866  -44.5613 C.2       5 UNK         0.5000 
     46 O          -3.0964  -15.5499  -45.2082 O.2       5 UNK        -0.5000 
     47 CA         -2.2472  -13.3126  -45.3069 C.3       5 UNK         0.1400 
     48 CB         -3.3714  -12.2659  -45.2875 C.3       5 UNK        -0.1800 
     49 N          -1.0035  -12.6934  -44.8325 N.am      5 UNK        -0.5000 
     50 C           0.1750  -13.3092  -44.6599 C.2       4 UNK         0.5000 
     51 O           0.3188  -14.5293  -44.7121 O.2       4 UNK        -0.5000 
     52 CA          1.4185  -12.4352  -44.4238 C.3       4 UNK         0.1400 
     53 CB          1.1170  -10.9321  -44.2613 C.3       4 UNK        -0.1800 
     54 N           2.1292  -12.9069  -43.2330 N.am      4 UNK        -0.5000 
     55 C           3.3112  -13.5360  -43.1063 C.2       3 UNK         0.5000 
     56 O           3.6723  -13.9463  -42.0045 O.2       3 UNK        -0.5000 
     57 CA          4.2736  -13.7553  -44.3000 C.3       3 UNK         0.1400 
     58 CB          3.8830  -14.9909  -45.1265 C.3       3 UNK        -0.1800 
     59 N           4.4251  -12.6079  -45.1871 N.am      3 UNK        -0.5000 
     60 C           4.9369  -11.4147  -44.8741 C.2       2 UNK         0.5000 
     61 O           5.4501  -11.1618  -43.7830 O.2       2 UNK        -0.5000 
     62 CA          4.8544  -10.3295  -45.9744 C.3       2 UNK         0.1400 
     63 CB          5.7562   -9.1179  -45.6790 C.3       2 UNK        -0.1800 
     64 N           5.1633  -10.8218  -47.3222 N.am      2 UNK        -0.5000 
     65 C           4.3912  -11.5948  -48.0977 C.2       1 UNK         0.5000 
     66 O           3.2948  -12.0271  -47.7367 O.2       1 UNK        -0.5000 
     67 C          -0.2861  -22.8784  -47.9932 C.2       11 UNK         0.5000 
     68 O          -0.0046  -23.9923  -48.4365 O.2       11 UNK        -0.5000 
     69 N          -1.3301  -22.1535  -48.4228 N.am      12 UNK        -0.5000 
     70 CA         -2.2992  -22.6051  -49.4204 C.3       12 UNK         0.1400 
     71 CB         -3.2506  -21.4572  -49.7898 C.3       12 UNK        -0.1800 
     72 C          -3.0911  -23.8427  -48.9637 C.2       12 UNK         0.5000 
     73 O          -3.3437  -24.7244  -49.7809 O.2       12 UNK        -0.5000 
     74 N          -3.4531  -23.9095  -47.6746 N.am      13 UNK        -0.5000 
     75 CA         -4.1358  -25.0543  -47.0680 C.3       13 UNK         0.1400 
     76 CB         -4.6035  -24.7049  -45.6468 C.3       13 UNK        -0.1800 
     77 C          -3.2535  -26.3140  -47.0585 C.2       13 UNK         0.5000 
     78 O          -3.7285  -27.3867  -47.4302 O.2       13 UNK        -0.5000 
     79 N          -1.9743  -26.1512  -46.6913 N.am      14 UNK        -0.5000 
     80 CA         -0.9530  -27.2013  -46.7227 C.3       14 UNK         0.1400 
     81 CB          0.3279  -26.6875  -46.0481 C.3       14 UNK        -0.1800 
     82 C          -0.6578  -27.7095  -48.1478 C.2       14 UNK         0.5000 
     83 O          -0.4348  -28.9061  -48.3338 O.2       14 UNK        -0.5000 
     84 N          -0.7044  -26.7999  -49.1303 N.am      15 UNK        -0.5000 
     85 CA         -0.5877  -27.0947  -50.5602 C.3       15 UNK         0.1400 
     86 CB         -0.2122  -25.7992  -51.2982 C.3       15 UNK        -0.1800 
     87 C          -1.8636  -27.7111  -51.1753 C.2       15 UNK         0.5000 
     88 O          -1.8166  -28.1456  -52.3268 O.2       15 UNK        -0.5000 
     89 N          -2.9740  -27.7194  -50.4202 N.am      16 UNK        -0.5000 
     90 CA         -4.3266  -28.1327  -50.8131 C.3       16 UNK         0.1400 
     91 CB         -4.3767  -29.6400  -51.1378 C.3       16 UNK        -0.1800 
     92 C          -4.9247  -27.2489  -51.9302 C.2       16 UNK         0.5000 
     93 O          -5.7118  -27.7251  -52.7498 O.2       16 UNK        -0.5000 
     94 N          -4.5540  -25.9636  -51.9286 N.am      17 UNK        -0.5000 
     95 CA         -4.9421  -24.9442  -52.8978 C.3       17 UNK         0.1400 
     96 CB         -3.6877  -24.1368  -53.2688 C.3       17 UNK        -0.1800 
     97 C          -6.0786  -24.0796  -52.3178 C.2       17 UNK         0.5000 
     98 O          -5.9571  -22.8553  -52.2013 O.2       17 UNK        -0.5000 
     99 N          -7.1583  -24.7625  -51.9077 N.am      18 UNK        -0.5000 
    100 CA        -8.4305  -24.2412  -51.3845 C.3       18 UNK         0.1400 
    101 CB        -9.1555  -23.4344  -52.4820 C.3       18 UNK        -0.1800 
    102 C         -8.3350  -23.4300  -50.0727 C.2       18 UNK         0.5000 
    103 O         -9.3500  -22.8892  -49.6325 O.2       18 UNK        -0.5000 
    104 N         -7.1290  -23.3309  -49.4909 N.am      19 UNK        -0.5000 
    105 CA        -6.7472  -22.4384  -48.3888 C.3       19 UNK         0.1400 
    106 CB        -7.4689  -22.8305  -47.0831 C.3       19 UNK        -0.1800 
    107 C         -6.9149  -20.9427  -48.7395 C.2       19 UNK         0.5000 
    108 O         -7.1048  -20.1236  -47.8390 O.2       19 UNK        -0.5000 
    109 N         -6.8664  -20.6140  -50.0400 N.am      20 UNK        -0.5000 
    110 CA        -7.2446  -19.2978  -50.5542 C.3       20 UNK         0.1400 
    111 CB        -8.7595  -19.2793  -50.8263 C.3       20 UNK        -0.1800 
    112 C         -6.4683  -18.8640  -51.8064 C.2       20 UNK         0.5000 
    113 O         -6.4591  -17.6660  -52.0940 O.2       20 UNK        -0.5000 
    114 N         -5.8272  -19.7952  -52.5336 N.am      21 UNK        -0.5000 
    115 CA        -5.1381  -19.5098  -53.8022 C.3       21 UNK         0.1400 
    116 CB        -4.6136  -20.8196  -54.3991 C.3       21 UNK        -0.1800 
    117 C         -3.9866  -18.4899  -53.6942 C.2       21 UNK         0.5000 
    118 O         -3.7224  -17.7664  -54.6554 O.2       21 UNK        -0.5000 
    119 N         -3.3448  -18.4417  -52.5223 N.am      22 UNK        -0.5000 
    120 CA        -2.3034  -17.4656  -52.1707 C.3       22 UNK         0.1400 
    121 C         -2.8564  -16.0886  -51.6929 C.2       22 UNK         0.5000 
    122 N         -4.1644  -15.8770  -51.5976 N.am      22 UNK        -0.7600 
    123 O         -2.0780  -15.1819  -51.4118 O.2       22 UNK        -0.5000 
    124 C124       -1.3027  -18.0534  -51.1464 C.3       23 UNK        -0.0398 
    125 S125       -0.4293  -19.5262  -51.7825 S.3       23 UNK        -0.2404 
    126 C126        1.1955  -18.8281  -52.2176 C.3       23 UNK        -0.0205 
    127 H127        4.9724   -8.6020  -51.7753 H         1 UNK         0.0600 
    128 H128        6.7342   -8.4858  -51.8005 H         1 UNK         0.0600 
    129 H129        5.8105   -7.6400  -50.5542 H         1 UNK         0.0600 
    130 H130        4.2419  -10.5332  -50.9433 H         1 UNK         0.3000 
    131 H131        5.9593  -12.2799  -49.3745 H         1 UNK         0.0600 
    132 H132        3.0663  -12.8646  -50.1722 H         1 UNK         0.0800 
    133 H133        4.3623  -12.9714  -51.3162 H         1 UNK         0.0800 
    134 H134        2.2156  -14.7922  -49.3770 H         1 UNK         0.0800 
    135 H135        3.0908  -15.2765  -47.9509 H         1 UNK         0.0800 
    136 H136        1.7169  -16.3555  -51.1708 H         1 UNK         0.1150 
    137 H137        2.4954  -20.5171  -50.5504 H         1 UNK         0.1150 
    138 H138        4.0324  -17.6079  -47.7913 H         1 UNK         0.1150 
    139 H139        4.9472  -20.5418  -48.7017 H         1 UNK         0.0800 
    140 H140        4.2092  -19.9387  -47.2375 H         1 UNK         0.0800 
    141 H141        1.0153  -20.4688  -47.9395 H         1 UNK         0.0800 
    142 H142        1.8588  -20.6186  -46.4225 H         1 UNK         0.0800 
    143 H143        1.1170  -23.1080  -46.3911 H         1 UNK         0.0600 
    144 H144       -0.2745  -20.8182  -45.5309 H         1 UNK         0.3000 
    145 H145       -3.0070  -22.4365  -43.8976 H         1 UNK         0.0600 
    146 H146       -2.1341  -21.0410  -42.0353 H         1 UNK         0.0600 
    147 H147       -1.1373  -22.4698  -42.2681 H         1 UNK         0.0600 
    148 H148       -0.5725  -20.9063  -42.8392 H         1 UNK         0.0600 
    149 H149       -2.2977  -19.6823  -44.2106 H         1 UNK         0.3000 
    150 H150       -4.0955  -19.1618  -47.2826 H         1 UNK         0.0600 
    151 H151       -5.7469  -18.9830  -45.4179 H         1 UNK         0.0600 
    152 H152       -5.1273  -17.4078  -45.8865 H         1 UNK         0.0600 
    153 H153       -4.5419  -18.1812  -44.4147 H         1 UNK         0.0600 
    154 H154       -2.5724  -17.3572  -45.7118 H         1 UNK         0.3000 
    155 H155        0.6371  -18.0410  -47.2079 H         1 UNK         0.0600 
    156 H156       -1.2881  -15.6610  -47.3197 H         1 UNK         0.0600 
    157 H157       -0.4673  -16.4012  -48.6854 H         1 UNK         0.0600 
    158 H158        0.4648  -15.5552  -47.4612 H         1 UNK         0.0600 
    159 H159       -0.0707  -16.2399  -45.1413 H         1 UNK         0.3000 
    160 H160        0.2117  -18.4944  -42.3733 H         1 UNK         0.0600 
    161 H161        1.9273  -16.1387  -43.2888 H         1 UNK         0.0600 
    162 H162        2.5398  -17.7527  -42.9469 H         1 UNK         0.0600 
    163 H163        1.8357  -16.7882  -41.6561 H         1 UNK         0.0600 
    164 H164       -0.3866  -15.6709  -42.7747 H         1 UNK         0.3000 
    165 H165       -3.9204  -16.0590  -42.6398 H         1 UNK         0.0600 
    166 H166       -3.6467  -14.4982  -40.7361 H         1 UNK         0.0600 
    167 H167       -3.1870  -16.1228  -40.2526 H         1 UNK         0.0600 
    168 H168       -1.9418  -14.9259  -40.5889 H         1 UNK         0.0600 
    169 H169       -2.2163  -13.7591  -42.7695 H         1 UNK         0.3000 
    170 H170       -2.0777  -13.5964  -46.3470 H         1 UNK         0.0600 
    171 H171       -4.3079  -12.6898  -45.6530 H         1 UNK         0.0600 
    172 H172       -3.5526  -11.8884  -44.2804 H         1 UNK         0.0600 
    173 H173       -3.1314  -11.4162  -45.9268 H         1 UNK         0.0600 
    174 H174       -1.0218  -11.6874  -44.7494 H         1 UNK         0.3000 
    175 H175        1.9974  -12.5626  -45.3328 H         1 UNK         0.0600 
    176 H176        0.4627  -10.7364  -43.4107 H         1 UNK         0.0600 
    177 H177        2.0357  -10.3679  -44.1013 H         1 UNK         0.0600 
    178 H178        0.6461  -10.5205  -45.1551 H         1 UNK         0.0600 
    179 H179        1.5862  -12.8240  -42.3869 H         1 UNK         0.3000 
    180 H180        5.2619  -13.9508  -43.8786 H         1 UNK         0.0600 
    181 H181        2.8830  -14.8997  -45.5499 H         1 UNK         0.0600 
    182 H182        3.9016  -15.8911  -44.5123 H         1 UNK         0.0600 
    183 H183        4.5821  -15.1527  -45.9472 H         1 UNK         0.0600 
    184 H184        4.0026  -12.6893  -46.1066 H         1 UNK         0.3000 
    185 H185        3.8217   -9.9750  -45.9792 H         1 UNK         0.0600 
    186 H186        5.5043   -8.6621  -44.7206 H         1 UNK         0.0600 
    187 H187        6.8088   -9.4015  -45.6441 H         1 UNK         0.0600 
    188 H188        5.6422   -8.3464  -46.4408 H         1 UNK         0.0600 
    189 H189        6.0357  -10.4971  -47.7258 H         1 UNK         0.3000 
    190 H190       -1.4648  -21.2169  -48.0481 H         1 UNK         0.3000 
    191 H191       -1.7433  -22.8815  -50.3182 H         1 UNK         0.0600 
    192 H192       -3.7997  -21.0908  -48.9237 H         1 UNK         0.0600 
    193 H193       -3.9791  -21.7754  -50.5362 H         1 UNK         0.0600 
    194 H194       -2.7025  -20.6166  -50.2101 H         1 UNK         0.0600 
    195 H195       -3.2784  -23.1090  -47.0748 H         1 UNK         0.3000 
    196 H196       -5.0213  -25.2673  -47.6707 H         1 UNK         0.0600 
    197 H197       -5.2385  -25.4950  -45.2448 H         1 UNK         0.0600 
    198 H198       -5.1818  -23.7826  -45.6302 H         1 UNK         0.0600 
    199 H199       -3.7674  -24.5817  -44.9599 H         1 UNK         0.0600 
    200 H200       -1.6782  -25.2380  -46.3562 H         1 UNK         0.3000 
    201 H201       -1.3279  -28.0464  -46.1417 H         1 UNK         0.0600 
    202 H202        0.1375  -26.3903  -45.0167 H         1 UNK         0.0600 
    203 H203        0.7419  -25.8256  -46.5719 H         1 UNK         0.0600 
    204 H204        1.0966  -27.4609  -46.0284 H         1 UNK         0.0600 
    205 H205       -0.8170  -25.8233  -48.8780 H         1 UNK         0.3000 
    206 H206        0.2224  -27.8132  -50.7002 H         1 UNK         0.0600 
    207 H207        0.7045  -25.3663  -50.8969 H         1 UNK         0.0600 
    208 H208       -0.0456  -25.9858  -52.3597 H         1 UNK         0.0600 
    209 H209       -0.9995  -25.0497  -51.2183 H         1 UNK         0.0600 
    210 H210       -2.9039  -27.3316  -49.4878 H         1 UNK         0.3000 
    211 H211       -4.9543  -27.9677  -49.9364 H         1 UNK         0.0600 
    212 H212       -3.8334  -29.8779  -52.0525 H         1 UNK         0.0600 
    213 H213       -5.4053  -29.9760  -51.2737 H         1 UNK         0.0600 
    214 H214       -3.9480  -30.2310  -50.3285 H         1 UNK         0.0600 
    215 H215       -3.9696  -25.6325  -51.1612 H         1 UNK         0.3000 
    216 H216       -5.3167  -25.4166  -53.8080 H         1 UNK         0.0600 
    217 H217       -2.8590  -24.7949  -53.5311 H         1 UNK         0.0600 
    218 H218       -3.3551  -23.4952  -52.4519 H         1 UNK         0.0600 
    219 H219       -3.8811  -23.5120  -54.1388 H         1 UNK         0.0600 
    220 H220       -7.1242  -25.7675  -52.0166 H         1 UNK         0.3000 
    221 H221       -9.0427  -25.1140  -51.1536 H         1 UNK         0.0600 
    222 H222       -8.6245  -22.5136  -52.7257 H         1 UNK         0.0600 
    223 H223       -9.2552  -24.0161  -53.3984 H         1 UNK         0.0600 
    224 H224      -10.1620  -23.1557  -52.1677 H         1 UNK         0.0600 
    225 H225       -6.3665  -23.8056  -49.9530 H         1 UNK         0.3000 
    226 H226       -5.6822  -22.5830  -48.2281 H         1 UNK         0.0600 
    227 H227       -7.3584  -23.8944  -46.8744 H         1 UNK         0.0600 
    228 H228       -7.0550  -22.2869  -46.2329 H         1 UNK         0.0600 
    229 H229       -8.5348  -22.6057  -47.1233 H         1 UNK         0.0600 
    230 H230       -6.7010  -21.3477  -50.7172 H         1 UNK         0.3000 
    231 H231       -7.0246  -18.5397  -49.7994 H         1 UNK         0.0600 
    232 H232       -9.3271  -19.4657  -49.9144 H         1 UNK         0.0600 
    233 H233       -9.0433  -20.0386  -51.5561 H         1 UNK         0.0600 
    234 H234       -9.0800  -18.3115  -51.2142 H         1 UNK         0.0600 
    235 H235       -5.8732  -20.7727  -52.2720 H         1 UNK         0.3000 
    236 H236       -5.8776  -19.0947  -54.4900 H         1 UNK         0.0600 
    237 H237       -4.1432  -20.6503  -55.3686 H         1 UNK         0.0600 
    238 H238       -3.8662  -21.2686  -53.7451 H         1 UNK         0.0600 
    239 H239       -5.4184  -21.5390  -54.5496 H         1 UNK         0.0600 
    240 H240       -3.6332  -19.0746  -51.7925 H         1 UNK         0.3000 
    241 H241       -1.7346  -17.2424  -53.0754 H         1 UNK         0.0600 
    242 H242       -4.4912  -14.9740  -51.2937 H         1 UNK         0.3800 
    243 H243       -4.8417  -16.5903  -51.8474 H         1 UNK         0.3800 
    244 H244       -1.8219  -18.3287  -50.2284 H         1 UNK         0.0800 
    245 H245       -0.5674  -17.3038  -50.8584 H         1 UNK         0.0800 
    246 H246        1.0589  -17.9546  -52.8570 H         1 UNK         0.0800 
    247 H247        1.7450  -19.5591  -52.8124 H         1 UNK         0.0800 
@<TRIPOS>BOND
     1    1    2 1    
     2    1  127 1    
     3    1  128 1    
     4    1  129 1    
     5    2    3 2    
     6    2    4 am   BACKBONE|DICT|INTERRES
     7    4    5 1    
     8    4  130 1    
     9    5    6 1    
    10    5   65 1    
    11    5  131 1    
    12    6    7 1    
    13    6  132 1    
    14    6  133 1    
    15    7    8 1    
    16    8    9 1    
    17    8  134 1    
    18    8  135 1    
    19    9   10 ar   
    20    9   14 ar   
    21   10   11 ar   
    22   10  136 1    
    23   11   12 ar   
    24   11  126 1    
    25   12   13 ar   
    26   12  137 1    
    27   13   14 ar   
    28   13   15 1    
    29   14  138 1    
    30   15   16 1    
    31   15  139 1    
    32   15  140 1    
    33   16   17 1    
    34   17   18 1    
    35   17  141 1    
    36   17  142 1    
    37   18   19 1    
    38   18   67 1    
    39   18  143 1    
    40   19   20 am   BACKBONE|DICT|INTERRES
    41   19  144 1    
    42   20   21 2    
    43   20   22 1    
    44   22   23 1    
    45   22   24 1    
    46   22  145 1    
    47   23  146 1    
    48   23  147 1    
    49   23  148 1    
    50   24   25 am   BACKBONE|DICT|INTERRES
    51   24  149 1    
    52   25   26 2    
    53   25   27 1    
    54   27   28 1    
    55   27   29 1    
    56   27  150 1    
    57   28  151 1    
    58   28  152 1    
    59   28  153 1    
    60   29   30 am   BACKBONE|DICT|INTERRES
    61   29  154 1    
    62   30   31 2    
    63   30   32 1    
    64   32   33 1    
    65   32   34 1    
    66   32  155 1    
    67   33  156 1    
    68   33  157 1    
    69   33  158 1    
    70   34   35 am   BACKBONE|DICT|INTERRES
    71   34  159 1    
    72   35   36 2    
    73   35   37 1    
    74   37   38 1    
    75   37   39 1    
    76   37  160 1    
    77   38  161 1    
    78   38  162 1    
    79   38  163 1    
    80   39   40 am   BACKBONE|DICT|INTERRES
    81   39  164 1    
    82   40   41 2    
    83   40   42 1    
    84   42   43 1    
    85   42   44 1    
    86   42  165 1    
    87   43  166 1    
    88   43  167 1    
    89   43  168 1    
    90   44   45 am   BACKBONE|DICT|INTERRES
    91   44  169 1    
    92   45   46 2    
    93   45   47 1    
    94   47   48 1    
    95   47   49 1    
    96   47  170 1    
    97   48  171 1    
    98   48  172 1    
    99   48  173 1    
   100   49   50 am   BACKBONE|DICT|INTERRES
   101   49  174 1    
   102   50   51 2    
   103   50   52 1    
   104   52   53 1    
   105   52   54 1    
   106   52  175 1    
   107   53  176 1    
   108   53  177 1    
   109   53  178 1    
   110   54   55 am   BACKBONE|DICT|INTERRES
   111   54  179 1    
   112   55   56 2    
   113   55   57 1    
   114   57   58 1    
   115   57   59 1    
   116   57  180 1    
   117   58  181 1    
   118   58  182 1    
   119   58  183 1    
   120   59   60 am   BACKBONE|DICT|INTERRES
   121   59  184 1    
   122   60   61 2    
   123   60   62 1    
   124   62   63 1    
   125   62   64 1    
   126   62  185 1    
   127   63  186 1    
   128   63  187 1    
   129   63  188 1    
   130   64   65 am   BACKBONE|DICT|INTERRES
   131   64  189 1    
   132   65   66 2    
   133   67   68 2    
   134   67   69 am   BACKBONE|DICT|INTERRES
   135   69   70 1    
   136   69  190 1    
   137   70   71 1    
   138   70   72 1    
   139   70  191 1    
   140   71  192 1    
   141   71  193 1    
   142   71  194 1    
   143   72   73 2    
   144   72   74 am   BACKBONE|DICT|INTERRES
   145   74   75 1    
   146   74  195 1    
   147   75   76 1    
   148   75   77 1    
   149   75  196 1    
   150   76  197 1    
   151   76  198 1    
   152   76  199 1    
   153   77   78 2    
   154   77   79 am   BACKBONE|DICT|INTERRES
   155   79   80 1    
   156   79  200 1    
   157   80   81 1    
   158   80   82 1    
   159   80  201 1    
   160   81  202 1    
   161   81  203 1    
   162   81  204 1    
   163   82   83 2    
   164   82   84 am   BACKBONE|DICT|INTERRES
   165   84   85 1    
   166   84  205 1    
   167   85   86 1    
   168   85   87 1    
   169   85  206 1    
   170   86  207 1    
   171   86  208 1    
   172   86  209 1    
   173   87   88 2    
   174   87   89 am   BACKBONE|DICT|INTERRES
   175   89   90 1    
   176   89  210 1    
   177   90   91 1    
   178   90   92 1    
   179   90  211 1    
   180   91  212 1    
   181   91  213 1    
   182   91  214 1    
   183   92   93 2    
   184   92   94 am   BACKBONE|DICT|INTERRES
   185   94   95 1    
   186   94  215 1    
   187   95   96 1    
   188   95   97 1    
   189   95  216 1    
   190   96  217 1    
   191   96  218 1    
   192   96  219 1    
   193   97   98 2    
   194   97   99 am   BACKBONE|DICT|INTERRES
   195   99  100 1    
   196   99  220 1    
   197  100  101 1    
   198  100  102 1    
   199  100  221 1    
   200  101  222 1    
   201  101  223 1    
   202  101  224 1    
   203  102  103 2    
   204  102  104 am   BACKBONE|DICT|INTERRES
   205  104  105 1    
   206  104  225 1    
   207  105  106 1    
   208  105  107 1    
   209  105  226 1    
   210  106  227 1    
   211  106  228 1    
   212  106  229 1    
   213  107  108 2    
   214  107  109 am   BACKBONE|DICT|INTERRES
   215  109  110 1    
   216  109  230 1    
   217  110  111 1    
   218  110  112 1    
   219  110  231 1    
   220  111  232 1    
   221  111  233 1    
   222  111  234 1    
   223  112  113 2    
   224  112  114 am   BACKBONE|DICT|INTERRES
   225  114  115 1    
   226  114  235 1    
   227  115  116 1    
   228  115  117 1    
   229  115  236 1    
   230  116  237 1    
   231  116  238 1    
   232  116  239 1    
   233  117  118 2    
   234  117  119 am   BACKBONE|DICT|INTERRES
   235  119  120 1    
   236  119  240 1    
   237  120  121 1    
   238  120  124 1    
   239  120  241 1    
   240  121  122 am   BACKBONE|DICT|INTERRES
   241  121  123 2    
   242  122  242 1    
   243  122  243 1    
   244  124  125 1    
   245  124  244 1    
   246  124  245 1    
   247  125  126 1    
   248  126  246 1    
   249  126  247 1    
@<TRIPOS>SUBSTRUCTURE
     1 UNK         1 GROUP             0       ****    0 ROOT    
