@<TRIPOS>MOLECULE
3R540
247   249    1
SMALL
USER_CHARGES


@<TRIPOS>ATOM
      1 CA          6.5418  -17.9771  -46.7439 C.3       0 UNK        -0.1800 
      2 C           5.3487  -17.2031  -46.2027 C.2       0 UNK         0.5000 
      3 O           4.9787  -17.3828  -45.0444 O.2       0 UNK        -0.5000 
      4 N           4.7527  -16.3423  -47.0364 N.am      1 UNK        -0.5000 
      5 CA          3.6041  -15.4879  -46.7094 C.3       1 UNK         0.1400 
      6 C6          2.9229  -14.8969  -47.9713 C.3       23 UNK        -0.0398 
      7 S7          4.0966  -14.2898  -49.2424 S.3       23 UNK        -0.2404 
      8 C8          3.2203  -14.6100  -50.8140 C.3       23 UNK        -0.0205 
      9 C9          2.6106  -16.0041  -50.8969 C.ar      23 UNK        -0.0193 
     10 C10         1.2260  -16.1505  -51.0251 C.ar      23 UNK        -0.1150 
     11 C11         0.6434  -17.4200  -51.0507 C.ar      23 UNK        -0.0193 
     12 C12         1.4578  -18.5501  -50.9406 C.ar      23 UNK        -0.1150 
     13 C13         2.8454  -18.4186  -50.8228 C.ar      23 UNK        -0.0193 
     14 C14         3.4173  -17.1432  -50.8119 C.ar      23 UNK        -0.1150 
     15 C15         3.7250  -19.6561  -50.7162 C.3       23 UNK        -0.0205 
     16 S16         4.4295  -19.8927  -49.0489 S.3       23 UNK        -0.2404 
     17 C17         2.9498  -19.9733  -47.9814 C.3       23 UNK        -0.0398 
     18 CA          2.4573  -21.4063  -47.6585 C.3       11 UNK         0.1400 
     19 N           1.5164  -21.3949  -46.5359 N.am      11 UNK        -0.5000 
     20 C           1.0722  -22.4703  -45.8720 C.2       10 UNK         0.5000 
     21 O           1.4703  -23.6166  -46.0800 O.2       10 UNK        -0.5000 
     22 CA          0.0049  -22.2252  -44.7855 C.3       10 UNK         0.1400 
     23 CB          0.6657  -21.9444  -43.4275 C.3       10 UNK        -0.1800 
     24 N          -0.9126  -21.1308  -45.1100 N.am      10 UNK        -0.5000 
     25 C          -1.8122  -21.1694  -46.1034 C.2       9 UNK         0.5000 
     26 O          -1.9897  -22.1456  -46.8268 O.2       9 UNK        -0.5000 
     27 CA         -2.6273  -19.8894  -46.3554 C.3       9 UNK         0.1400 
     28 CB         -3.7409  -19.7430  -45.3083 C.3       9 UNK        -0.1800 
     29 N          -1.8001  -18.6840  -46.3553 N.am      9 UNK        -0.5000 
     30 C          -0.7730  -18.4589  -47.1857 C.2       8 UNK         0.5000 
     31 O          -0.4421  -19.2262  -48.0889 O.2       8 UNK        -0.5000 
     32 CA          0.0690  -17.1986  -46.9147 C.3       8 UNK         0.1400 
     33 CB         -0.6064  -15.9471  -47.4941 C.3       8 UNK        -0.1800 
     34 N           0.3440  -16.9976  -45.4887 N.am      8 UNK        -0.5000 
     35 C           1.0357  -17.8563  -44.7236 C.2       7 UNK         0.5000 
     36 O           1.5600  -18.8791  -45.1577 O.2       7 UNK        -0.5000 
     37 CA          1.0972  -17.5670  -43.2143 C.3       7 UNK         0.1400 
     38 CB          2.1836  -16.5405  -42.8725 C.3       7 UNK        -0.1800 
     39 N          -0.1906  -17.1048  -42.7057 N.am      7 UNK        -0.5000 
     40 C          -1.2653  -17.8919  -42.5651 C.2       6 UNK         0.5000 
     41 O          -1.2603  -19.1019  -42.7930 O.2       6 UNK        -0.5000 
     42 CA         -2.5710  -17.1970  -42.1372 C.3       6 UNK         0.1400 
     43 CB         -2.6479  -17.0846  -40.6075 C.3       6 UNK        -0.1800 
     44 N          -2.7158  -15.8649  -42.7295 N.am      6 UNK        -0.5000 
     45 C          -2.8929  -15.6364  -44.0388 C.2       5 UNK         0.5000 
     46 O          -2.9907  -16.5294  -44.8784 O.2       5 UNK        -0.5000 
     47 CA         -2.9215  -14.1655  -44.4914 C.3       5 UNK         0.1400 
     48 CB         -4.3480  -13.6030  -44.4052 C.3       5 UNK        -0.1800 
     49 N          -2.0121  -13.3107  -43.7232 N.am      5 UNK        -0.5000 
     50 C          -0.6761  -13.4054  -43.7512 C.2       4 UNK         0.5000 
     51 O          -0.0664  -14.2449  -44.4159 O.2       4 UNK        -0.5000 
     52 CA          0.0922  -12.4396  -42.8393 C.3       4 UNK         0.1400 
     53 CB          0.5224  -13.1420  -41.5409 C.3       4 UNK        -0.1800 
     54 N           1.2739  -11.9070  -43.5195 N.am      4 UNK        -0.5000 
     55 C           1.6621  -10.6235  -43.4489 C.2       3 UNK         0.5000 
     56 O           1.0474   -9.7693  -42.8068 O.2       3 UNK        -0.5000 
     57 CA          2.9574  -10.2264  -44.1847 C.3       3 UNK         0.1400 
     58 CB          3.5499   -8.8879  -43.6982 C.3       3 UNK        -0.1800 
     59 N           3.9505  -11.2865  -44.0568 N.am      3 UNK        -0.5000 
     60 C           4.9061  -11.5670  -44.9489 C.2       2 UNK         0.5000 
     61 O           5.1488  -10.8752  -45.9392 O.2       2 UNK        -0.5000 
     62 CA          5.6912  -12.8789  -44.7341 C.3       2 UNK         0.1400 
     63 CB          5.7252  -13.3531  -43.2634 C.3       2 UNK        -0.1800 
     64 N           5.1840  -13.9490  -45.6002 N.am      2 UNK        -0.5000 
     65 C           3.9145  -14.3787  -45.6866 C.2       1 UNK         0.5000 
     66 O           2.9906  -13.9319  -45.0059 O.2       1 UNK        -0.5000 
     67 C           1.8573  -22.1008  -48.9005 C.2       11 UNK         0.5000 
     68 O           2.5606  -22.8631  -49.5666 O.2       11 UNK        -0.5000 
     69 N           0.5769  -21.8284  -49.1913 N.am      12 UNK        -0.5000 
     70 CA         -0.1682  -22.4199  -50.3017 C.3       12 UNK         0.1400 
     71 CB         -1.5304  -21.7262  -50.4221 C.3       12 UNK        -0.1800 
     72 C          -0.3519  -23.9425  -50.1542 C.2       12 UNK         0.5000 
     73 O          -0.5063  -24.4459  -49.0397 O.2       12 UNK        -0.5000 
     74 N          -0.3673  -24.6429  -51.2969 N.am      13 UNK        -0.5000 
     75 CA         -0.4088  -26.1064  -51.4045 C.3       13 UNK         0.1400 
     76 CB         -0.3086  -26.4940  -52.8882 C.3       13 UNK        -0.1800 
     77 C          -1.6398  -26.7767  -50.7622 C.2       13 UNK         0.5000 
     78 O          -1.5531  -27.9358  -50.3550 O.2       13 UNK        -0.5000 
     79 N          -2.7548  -26.0408  -50.6755 N.am      14 UNK        -0.5000 
     80 CA         -3.9903  -26.4845  -50.0311 C.3       14 UNK         0.1400 
     81 CB         -5.1453  -25.6044  -50.5267 C.3       14 UNK        -0.1800 
     82 C          -3.9363  -26.4458  -48.4919 C.2       14 UNK         0.5000 
     83 O          -4.7836  -27.0750  -47.8569 O.2       14 UNK        -0.5000 
     84 N          -2.9851  -25.6859  -47.9234 N.am      15 UNK        -0.5000 
     85 CA         -2.8688  -25.3452  -46.4999 C.3       15 UNK         0.1400 
     86 CB         -2.5128  -26.5894  -45.6596 C.3       15 UNK        -0.1800 
     87 C          -4.1113  -24.5875  -45.9724 C.2       15 UNK         0.5000 
     88 O          -4.5256  -24.7909  -44.8293 O.2       15 UNK        -0.5000 
     89 N          -4.6965  -23.7419  -46.8290 N.am      16 UNK        -0.5000 
     90 CA         -5.9098  -22.9726  -46.5908 C.3       16 UNK         0.1400 
     91 CB         -7.1412  -23.8449  -46.8898 C.3       16 UNK        -0.1800 
     92 C          -5.8885  -21.7259  -47.4849 C.2       16 UNK         0.5000 
     93 O          -5.2213  -21.7231  -48.5232 O.2       16 UNK        -0.5000 
     94 N          -6.6142  -20.6845  -47.0645 N.am      17 UNK        -0.5000 
     95 CA         -6.7580  -19.4342  -47.8064 C.3       17 UNK         0.1400 
     96 CB         -7.2533  -18.3337  -46.8541 C.3       17 UNK        -0.1800 
     97 C          -7.7370  -19.6031  -48.9803 C.2       17 UNK         0.5000 
     98 O          -8.7977  -20.2075  -48.8045 O.2       17 UNK        -0.5000 
     99 N          -7.3694  -19.0351  -50.1360 N.am      18 UNK        -0.5000 
    100 CA        -8.1291  -19.0010  -51.3921 C.3       18 UNK         0.1400 
    101 CB        -9.3749  -18.1028  -51.2427 C.3       18 UNK        -0.1800 
    102 C         -8.4589  -20.3995  -51.9629 C.2       18 UNK         0.5000 
    103 O         -9.5261  -20.5899  -52.5498 O.2       18 UNK        -0.5000 
    104 N         -7.5338  -21.3494  -51.7870 N.am      19 UNK        -0.5000 
    105 CA        -7.6319  -22.7271  -52.2596 C.3       19 UNK         0.1400 
    106 CB        -7.9248  -23.6396  -51.0602 C.3       19 UNK        -0.1800 
    107 C         -6.3173  -23.1153  -52.9507 C.2       19 UNK         0.5000 
    108 O         -5.2491  -22.6684  -52.5246 O.2       19 UNK        -0.5000 
    109 N         -6.4096  -23.9348  -54.0066 N.am      20 UNK        -0.5000 
    110 CA        -5.3188  -24.2862  -54.9233 C.3       20 UNK         0.1400 
    111 CB        -4.2625  -25.1798  -54.2306 C.3       20 UNK        -0.1800 
    112 C         -4.7400  -23.0161  -55.5823 C.2       20 UNK         0.5000 
    113 O         -5.4227  -22.4118  -56.4113 O.2       20 UNK        -0.5000 
    114 N         -3.5207  -22.6228  -55.1934 N.am      21 UNK        -0.5000 
    115 CA        -2.8716  -21.3887  -55.6291 C.3       21 UNK         0.1400 
    116 CB        -1.3697  -21.4628  -55.3057 C.3       21 UNK        -0.1800 
    117 C         -3.5079  -20.1369  -54.9960 C.2       21 UNK         0.5000 
    118 O         -3.8728  -19.2094  -55.7199 O.2       21 UNK        -0.5000 
    119 N         -3.6119  -20.1306  -53.6611 N.am      22 UNK        -0.5000 
    120 CA        -4.0109  -18.9693  -52.8463 C.3       22 UNK         0.1400 
    121 C         -4.3162  -19.3133  -51.3590 C.2       22 UNK         0.5000 
    122 N         -4.4830  -20.5744  -50.9836 N.am      22 UNK        -0.7600 
    123 O         -4.4753  -18.4196  -50.5321 O.2       22 UNK        -0.5000 
    124 C124       -3.0565  -17.7453  -53.0005 C.3       23 UNK        -0.0398 
    125 S125       -1.2739  -18.1360  -52.8849 S.3       23 UNK        -0.2404 
    126 C126       -0.8623  -17.5675  -51.2089 C.3       23 UNK        -0.0205 
    127 H127        6.3762  -19.0483  -46.6286 H         1 UNK         0.0600 
    128 H128        7.4442  -17.7090  -46.1947 H         1 UNK         0.0600 
    129 H129        6.7111  -17.7732  -47.8016 H         1 UNK         0.0600 
    130 H130        5.1035  -16.2366  -47.9783 H         1 UNK         0.3000 
    131 H131        2.8723  -16.1301  -46.2198 H         1 UNK         0.0600 
    132 H132        2.2993  -15.6768  -48.3990 H         1 UNK         0.0800 
    133 H133        2.2299  -14.0918  -47.7188 H         1 UNK         0.0800 
    134 H134        2.4514  -13.8464  -50.9403 H         1 UNK         0.0800 
    135 H135        3.9190  -14.4782  -51.6411 H         1 UNK         0.0800 
    136 H136        0.5981  -15.2737  -51.0988 H         1 UNK         0.1150 
    137 H137        1.0057  -19.5317  -50.9542 H         1 UNK         0.1150 
    138 H138        4.4883  -17.0366  -50.7120 H         1 UNK         0.1150 
    139 H139        3.1702  -20.5482  -51.0080 H         1 UNK         0.0800 
    140 H140        4.5452  -19.5697  -51.4300 H         1 UNK         0.0800 
    141 H141        3.2358  -19.4776  -47.0535 H         1 UNK         0.0800 
    142 H142        2.1468  -19.3652  -48.3932 H         1 UNK         0.0800 
    143 H143        3.3208  -21.9943  -47.3404 H         1 UNK         0.0600 
    144 H144        1.1990  -20.4809  -46.2281 H         1 UNK         0.3000 
    145 H145       -0.5850  -23.1395  -44.6922 H         1 UNK         0.0600 
    146 H146       -0.0809  -21.8377  -42.6402 H         1 UNK         0.0600 
    147 H147        1.3290  -22.7608  -43.1395 H         1 UNK         0.0600 
    148 H148        1.2598  -21.0305  -43.4502 H         1 UNK         0.0600 
    149 H149       -0.8526  -20.2983  -44.5348 H         1 UNK         0.3000 
    150 H150       -3.0895  -19.9773  -47.3413 H         1 UNK         0.0600 
    151 H151       -4.3458  -20.6464  -45.2439 H         1 UNK         0.0600 
    152 H152       -4.4038  -18.9161  -45.5577 H         1 UNK         0.0600 
    153 H153       -3.3399  -19.5571  -44.3135 H         1 UNK         0.0600 
    154 H154       -2.0473  -17.9655  -45.6800 H         1 UNK         0.3000 
    155 H155        1.0264  -17.3366  -47.4187 H         1 UNK         0.0600 
    156 H156       -0.0268  -15.0483  -47.2856 H         1 UNK         0.0600 
    157 H157       -1.6047  -15.8002  -47.0831 H         1 UNK         0.0600 
    158 H158       -0.7085  -16.0276  -48.5763 H         1 UNK         0.0600 
    159 H159       -0.0123  -16.1455  -45.0670 H         1 UNK         0.3000 
    160 H160        1.3518  -18.5008  -42.7082 H         1 UNK         0.0600 
    161 H161        1.9765  -15.5734  -43.3254 H         1 UNK         0.0600 
    162 H162        3.1589  -16.8692  -43.2298 H         1 UNK         0.0600 
    163 H163        2.2652  -16.3956  -41.7954 H         1 UNK         0.0600 
    164 H164       -0.2874  -16.1143  -42.5421 H         1 UNK         0.3000 
    165 H165       -3.4050  -17.8144  -42.4774 H         1 UNK         0.0600 
    166 H166       -1.8502  -16.4573  -40.2074 H         1 UNK         0.0600 
    167 H167       -3.6006  -16.6597  -40.2908 H         1 UNK         0.0600 
    168 H168       -2.5596  -18.0662  -40.1398 H         1 UNK         0.0600 
    169 H169       -2.6534  -15.0750  -42.1047 H         1 UNK         0.3000 
    170 H170       -2.6077  -14.1358  -45.5368 H         1 UNK         0.0600 
    171 H171       -5.0426  -14.2111  -44.9865 H         1 UNK         0.0600 
    172 H172       -4.7123  -13.5804  -43.3774 H         1 UNK         0.0600 
    173 H173       -4.3966  -12.5887  -44.8018 H         1 UNK         0.0600 
    174 H174       -2.4426  -12.6025  -43.1460 H         1 UNK         0.3000 
    175 H175       -0.5893  -11.6273  -42.5779 H         1 UNK         0.0600 
    176 H176        0.9807  -12.4360  -40.8483 H         1 UNK         0.0600 
    177 H177       -0.3320  -13.5884  -41.0307 H         1 UNK         0.0600 
    178 H178        1.2453  -13.9347  -41.7321 H         1 UNK         0.0600 
    179 H179        1.7821  -12.5706  -44.1013 H         1 UNK         0.3000 
    180 H180        2.6861  -10.1205  -45.2371 H         1 UNK         0.0600 
    181 H181        4.4425   -8.6198  -44.2634 H         1 UNK         0.0600 
    182 H182        2.8361   -8.0726  -43.8219 H         1 UNK         0.0600 
    183 H183        3.8227   -8.9326  -42.6433 H         1 UNK         0.0600 
    184 H184        3.7958  -11.9395  -43.3010 H         1 UNK         0.3000 
    185 H185        6.7187  -12.6807  -45.0424 H         1 UNK         0.0600 
    186 H186        6.3938  -14.2065  -43.1493 H         1 UNK         0.0600 
    187 H187        6.0947  -12.5655  -42.6054 H         1 UNK         0.0600 
    188 H188        4.7439  -13.6593  -42.8993 H         1 UNK         0.0600 
    189 H189        5.8582  -14.3622  -46.2283 H         1 UNK         0.3000 
    190 H190        0.0687  -21.1801  -48.5991 H         1 UNK         0.3000 
    191 H191        0.3975  -22.2248  -51.2150 H         1 UNK         0.0600 
    192 H192       -1.4158  -20.6551  -50.5840 H         1 UNK         0.0600 
    193 H193       -2.1352  -21.8640  -49.5250 H         1 UNK         0.0600 
    194 H194       -2.0981  -22.1227  -51.2642 H         1 UNK         0.0600 
    195 H195       -0.2493  -24.1453  -52.1671 H         1 UNK         0.3000 
    196 H196        0.4723  -26.4945  -50.8895 H         1 UNK         0.0600 
    197 H197       -0.3063  -27.5780  -53.0107 H         1 UNK         0.0600 
    198 H198        0.6120  -26.1177  -53.3347 H         1 UNK         0.0600 
    199 H199       -1.1478  -26.1012  -53.4638 H         1 UNK         0.0600 
    200 H200       -2.7378  -25.0968  -51.0307 H         1 UNK         0.3000 
    201 H201       -4.1939  -27.5156  -50.3279 H         1 UNK         0.0600 
    202 H202       -5.3008  -25.7221  -51.5973 H         1 UNK         0.0600 
    203 H203       -4.9599  -24.5486  -50.3242 H         1 UNK         0.0600 
    204 H204       -6.0819  -25.8742  -50.0370 H         1 UNK         0.0600 
    205 H205       -2.2978  -25.2377  -48.5216 H         1 UNK         0.3000 
    206 H206       -2.0260  -24.6592  -46.4221 H         1 UNK         0.0600 
    207 H207       -1.6381  -27.0992  -46.0634 H         1 UNK         0.0600 
    208 H208       -2.2786  -26.3101  -44.6318 H         1 UNK         0.0600 
    209 H209       -3.3334  -27.3062  -45.6236 H         1 UNK         0.0600 
    210 H210       -4.2522  -23.5522  -47.7187 H         1 UNK         0.3000 
    211 H211       -5.9335  -22.6489  -45.5482 H         1 UNK         0.0600 
    212 H212       -7.1266  -24.2190  -47.9141 H         1 UNK         0.0600 
    213 H213       -8.0657  -23.2818  -46.7573 H         1 UNK         0.0600 
    214 H214       -7.1864  -24.7059  -46.2227 H         1 UNK         0.0600 
    215 H215       -7.1773  -20.7764  -46.2319 H         1 UNK         0.3000 
    216 H216       -5.7778  -19.1400  -48.1887 H         1 UNK         0.0600 
    217 H217       -7.3398  -17.3797  -47.3757 H         1 UNK         0.0600 
    218 H218       -6.5672  -18.1848  -46.0212 H         1 UNK         0.0600 
    219 H219       -8.2343  -18.5707  -46.4401 H         1 UNK         0.0600 
    220 H220       -6.4478  -18.6090  -50.1774 H         1 UNK         0.3000 
    221 H221       -7.4749  -18.5288  -52.1260 H         1 UNK         0.0600 
    222 H222      -10.1075  -18.5374  -50.5619 H         1 UNK         0.0600 
    223 H223       -9.1069  -17.1172  -50.8621 H         1 UNK         0.0600 
    224 H224       -9.8692  -17.9536  -52.2034 H         1 UNK         0.0600 
    225 H225       -6.6635  -21.1109  -51.3291 H         1 UNK         0.3000 
    226 H226       -8.4403  -22.8269  -52.9867 H         1 UNK         0.0600 
    227 H227       -8.8920  -23.4030  -50.6165 H         1 UNK         0.0600 
    228 H228       -7.9492  -24.6884  -51.3575 H         1 UNK         0.0600 
    229 H229       -7.1697  -23.5266  -50.2820 H         1 UNK         0.0600 
    230 H230       -7.3270  -24.2467  -54.2925 H         1 UNK         0.3000 
    231 H231       -5.7633  -24.8724  -55.7289 H         1 UNK         0.0600 
    232 H232       -3.4643  -25.4500  -54.9230 H         1 UNK         0.0600 
    233 H233       -4.7111  -26.1121  -53.8884 H         1 UNK         0.0600 
    234 H234       -3.8025  -24.6994  -53.3672 H         1 UNK         0.0600 
    235 H235       -3.0463  -23.1675  -54.4897 H         1 UNK         0.3000 
    236 H236       -2.9775  -21.3067  -56.7131 H         1 UNK         0.0600 
    237 H237       -1.1876  -21.5854  -54.2373 H         1 UNK         0.0600 
    238 H238       -0.8958  -22.2962  -55.8245 H         1 UNK         0.0600 
    239 H239       -0.8589  -20.5517  -55.6205 H         1 UNK         0.0600 
    240 H240       -3.3159  -20.9432  -53.1427 H         1 UNK         0.3000 
    241 H241       -4.9825  -18.6570  -53.2324 H         1 UNK         0.0600 
    242 H242       -4.6525  -20.7997  -50.0061 H         1 UNK         0.3800 
    243 H243       -4.5218  -21.3407  -51.6530 H         1 UNK         0.3800 
    244 H244       -3.2113  -17.2999  -53.9833 H         1 UNK         0.0800 
    245 H245       -3.3115  -16.9481  -52.3009 H         1 UNK         0.0800 
    246 H246       -1.2508  -18.2751  -50.4761 H         1 UNK         0.0800 
    247 H247       -1.3569  -16.6156  -51.0116 H         1 UNK         0.0800 
@<TRIPOS>BOND
     1    1    2 1    
     2    1  127 1    
     3    1  128 1    
     4    1  129 1    
     5    2    3 2    
     6    2    4 am   BACKBONE|DICT|INTERRES
     7    4    5 1    
     8    4  130 1    
     9    5    6 1    
    10    5   65 1    
    11    5  131 1    
    12    6    7 1    
    13    6  132 1    
    14    6  133 1    
    15    7    8 1    
    16    8    9 1    
    17    8  134 1    
    18    8  135 1    
    19    9   10 ar   
    20    9   14 ar   
    21   10   11 ar   
    22   10  136 1    
    23   11   12 ar   
    24   11  126 1    
    25   12   13 ar   
    26   12  137 1    
    27   13   14 ar   
    28   13   15 1    
    29   14  138 1    
    30   15   16 1    
    31   15  139 1    
    32   15  140 1    
    33   16   17 1    
    34   17   18 1    
    35   17  141 1    
    36   17  142 1    
    37   18   19 1    
    38   18   67 1    
    39   18  143 1    
    40   19   20 am   BACKBONE|DICT|INTERRES
    41   19  144 1    
    42   20   21 2    
    43   20   22 1    
    44   22   23 1    
    45   22   24 1    
    46   22  145 1    
    47   23  146 1    
    48   23  147 1    
    49   23  148 1    
    50   24   25 am   BACKBONE|DICT|INTERRES
    51   24  149 1    
    52   25   26 2    
    53   25   27 1    
    54   27   28 1    
    55   27   29 1    
    56   27  150 1    
    57   28  151 1    
    58   28  152 1    
    59   28  153 1    
    60   29   30 am   BACKBONE|DICT|INTERRES
    61   29  154 1    
    62   30   31 2    
    63   30   32 1    
    64   32   33 1    
    65   32   34 1    
    66   32  155 1    
    67   33  156 1    
    68   33  157 1    
    69   33  158 1    
    70   34   35 am   BACKBONE|DICT|INTERRES
    71   34  159 1    
    72   35   36 2    
    73   35   37 1    
    74   37   38 1    
    75   37   39 1    
    76   37  160 1    
    77   38  161 1    
    78   38  162 1    
    79   38  163 1    
    80   39   40 am   BACKBONE|DICT|INTERRES
    81   39  164 1    
    82   40   41 2    
    83   40   42 1    
    84   42   43 1    
    85   42   44 1    
    86   42  165 1    
    87   43  166 1    
    88   43  167 1    
    89   43  168 1    
    90   44   45 am   BACKBONE|DICT|INTERRES
    91   44  169 1    
    92   45   46 2    
    93   45   47 1    
    94   47   48 1    
    95   47   49 1    
    96   47  170 1    
    97   48  171 1    
    98   48  172 1    
    99   48  173 1    
   100   49   50 am   BACKBONE|DICT|INTERRES
   101   49  174 1    
   102   50   51 2    
   103   50   52 1    
   104   52   53 1    
   105   52   54 1    
   106   52  175 1    
   107   53  176 1    
   108   53  177 1    
   109   53  178 1    
   110   54   55 am   BACKBONE|DICT|INTERRES
   111   54  179 1    
   112   55   56 2    
   113   55   57 1    
   114   57   58 1    
   115   57   59 1    
   116   57  180 1    
   117   58  181 1    
   118   58  182 1    
   119   58  183 1    
   120   59   60 am   BACKBONE|DICT|INTERRES
   121   59  184 1    
   122   60   61 2    
   123   60   62 1    
   124   62   63 1    
   125   62   64 1    
   126   62  185 1    
   127   63  186 1    
   128   63  187 1    
   129   63  188 1    
   130   64   65 am   BACKBONE|DICT|INTERRES
   131   64  189 1    
   132   65   66 2    
   133   67   68 2    
   134   67   69 am   BACKBONE|DICT|INTERRES
   135   69   70 1    
   136   69  190 1    
   137   70   71 1    
   138   70   72 1    
   139   70  191 1    
   140   71  192 1    
   141   71  193 1    
   142   71  194 1    
   143   72   73 2    
   144   72   74 am   BACKBONE|DICT|INTERRES
   145   74   75 1    
   146   74  195 1    
   147   75   76 1    
   148   75   77 1    
   149   75  196 1    
   150   76  197 1    
   151   76  198 1    
   152   76  199 1    
   153   77   78 2    
   154   77   79 am   BACKBONE|DICT|INTERRES
   155   79   80 1    
   156   79  200 1    
   157   80   81 1    
   158   80   82 1    
   159   80  201 1    
   160   81  202 1    
   161   81  203 1    
   162   81  204 1    
   163   82   83 2    
   164   82   84 am   BACKBONE|DICT|INTERRES
   165   84   85 1    
   166   84  205 1    
   167   85   86 1    
   168   85   87 1    
   169   85  206 1    
   170   86  207 1    
   171   86  208 1    
   172   86  209 1    
   173   87   88 2    
   174   87   89 am   BACKBONE|DICT|INTERRES
   175   89   90 1    
   176   89  210 1    
   177   90   91 1    
   178   90   92 1    
   179   90  211 1    
   180   91  212 1    
   181   91  213 1    
   182   91  214 1    
   183   92   93 2    
   184   92   94 am   BACKBONE|DICT|INTERRES
   185   94   95 1    
   186   94  215 1    
   187   95   96 1    
   188   95   97 1    
   189   95  216 1    
   190   96  217 1    
   191   96  218 1    
   192   96  219 1    
   193   97   98 2    
   194   97   99 am   BACKBONE|DICT|INTERRES
   195   99  100 1    
   196   99  220 1    
   197  100  101 1    
   198  100  102 1    
   199  100  221 1    
   200  101  222 1    
   201  101  223 1    
   202  101  224 1    
   203  102  103 2    
   204  102  104 am   BACKBONE|DICT|INTERRES
   205  104  105 1    
   206  104  225 1    
   207  105  106 1    
   208  105  107 1    
   209  105  226 1    
   210  106  227 1    
   211  106  228 1    
   212  106  229 1    
   213  107  108 2    
   214  107  109 am   BACKBONE|DICT|INTERRES
   215  109  110 1    
   216  109  230 1    
   217  110  111 1    
   218  110  112 1    
   219  110  231 1    
   220  111  232 1    
   221  111  233 1    
   222  111  234 1    
   223  112  113 2    
   224  112  114 am   BACKBONE|DICT|INTERRES
   225  114  115 1    
   226  114  235 1    
   227  115  116 1    
   228  115  117 1    
   229  115  236 1    
   230  116  237 1    
   231  116  238 1    
   232  116  239 1    
   233  117  118 2    
   234  117  119 am   BACKBONE|DICT|INTERRES
   235  119  120 1    
   236  119  240 1    
   237  120  121 1    
   238  120  124 1    
   239  120  241 1    
   240  121  122 am   BACKBONE|DICT|INTERRES
   241  121  123 2    
   242  122  242 1    
   243  122  243 1    
   244  124  125 1    
   245  124  244 1    
   246  124  245 1    
   247  125  126 1    
   248  126  246 1    
   249  126  247 1    
@<TRIPOS>SUBSTRUCTURE
     1 UNK         1 GROUP             0       ****    0 ROOT    
