@<TRIPOS>MOLECULE
3R540
247   249    1
SMALL
USER_CHARGES


@<TRIPOS>ATOM
      1 CA         -2.6408  -14.0642  -45.8313 C.3       0 UNK        -0.1800 
      2 C          -1.9592  -12.8389  -46.4233 C.2       0 UNK         0.5000 
      3 O          -1.9193  -11.7888  -45.7832 O.2       0 UNK        -0.5000 
      4 N          -1.4071  -12.9708  -47.6363 N.am      1 UNK        -0.5000 
      5 CA         -0.7498  -11.8972  -48.3982 C.3       1 UNK         0.1400 
      6 C6         -0.4957  -12.2959  -49.8753 C.3       23 UNK        -0.0398 
      7 S7          0.4138  -13.8695  -50.0890 S.3       23 UNK        -0.2404 
      8 C8         -0.9520  -14.9747  -50.5787 C.3       23 UNK        -0.0205 
      9 C9         -0.5488  -16.4413  -50.6865 C.ar      23 UNK        -0.0193 
     10 C10        -0.9935  -17.2022  -51.7718 C.ar      23 UNK        -0.1150 
     11 C11        -0.7095  -18.5686  -51.8500 C.ar      23 UNK        -0.0193 
     12 C12         0.0451  -19.1697  -50.8400 C.ar      23 UNK        -0.1150 
     13 C13         0.5065  -18.4252  -49.7509 C.ar      23 UNK        -0.0193 
     14 C14         0.2068  -17.0591  -49.6836 C.ar      23 UNK        -0.1150 
     15 C15         1.3288  -19.1204  -48.6678 C.3       23 UNK        -0.0205 
     16 S16         0.9842  -18.5581  -46.9656 S.3       23 UNK        -0.2404 
     17 C17        -0.8063  -18.8675  -46.8077 C.3       23 UNK        -0.0398 
     18 CA         -1.1165  -20.3002  -46.3233 C.3       11 UNK         0.1400 
     19 N          -0.6246  -20.5544  -44.9605 N.am      11 UNK        -0.5000 
     20 C          -0.6251  -21.7474  -44.3473 C.2       10 UNK         0.5000 
     21 O          -1.0888  -22.7692  -44.8574 O.2       10 UNK        -0.5000 
     22 CA         -0.0413  -21.7835  -42.9224 C.3       10 UNK         0.1400 
     23 CB          0.0282  -23.2051  -42.3266 C.3       10 UNK        -0.1800 
     24 N           1.2553  -21.1113  -42.8385 N.am      10 UNK        -0.5000 
     25 C           2.3961  -21.4408  -43.4621 C.2       9 UNK         0.5000 
     26 O           2.5216  -22.4202  -44.1982 O.2       9 UNK        -0.5000 
     27 CA          3.6120  -20.5196  -43.2307 C.3       9 UNK         0.1400 
     28 CB          3.9187  -19.7162  -44.5039 C.3       9 UNK        -0.1800 
     29 N           3.4427  -19.5902  -42.1094 N.am      9 UNK        -0.5000 
     30 C           3.4680  -19.9356  -40.8143 C.2       8 UNK         0.5000 
     31 O           3.7043  -21.0769  -40.4167 O.2       8 UNK        -0.5000 
     32 CA          3.1385  -18.8295  -39.7929 C.3       8 UNK         0.1400 
     33 CB          4.3893  -17.9978  -39.4721 C.3       8 UNK        -0.1800 
     34 N           2.0578  -17.9422  -40.2325 N.am      8 UNK        -0.5000 
     35 C           0.7844  -18.3214  -40.4203 C.2       7 UNK         0.5000 
     36 O           0.3742  -19.4640  -40.2185 O.2       7 UNK        -0.5000 
     37 CA         -0.1824  -17.2627  -40.9845 C.3       7 UNK         0.1400 
     38 CB         -0.6455  -16.2893  -39.8907 C.3       7 UNK        -0.1800 
     39 N           0.4113  -16.5174  -42.0934 N.am      7 UNK        -0.5000 
     40 C           0.7476  -17.0606  -43.2714 C.2       6 UNK         0.5000 
     41 O           0.4921  -18.2248  -43.5826 O.2       6 UNK        -0.5000 
     42 CA          1.5416  -16.1681  -44.2413 C.3       6 UNK         0.1400 
     43 CB          0.6035  -15.3502  -45.1411 C.3       6 UNK        -0.1800 
     44 N           2.4705  -15.2803  -43.5385 N.am      6 UNK        -0.5000 
     45 C           3.5995  -15.6986  -42.9476 C.2       5 UNK         0.5000 
     46 O           3.9935  -16.8626  -42.9835 O.2       5 UNK        -0.5000 
     47 CA          4.3951  -14.6630  -42.1340 C.3       5 UNK         0.1400 
     48 CB          5.4207  -13.9349  -43.0127 C.3       5 UNK        -0.1800 
     49 N           3.5230  -13.6922  -41.4730 N.am      5 UNK        -0.5000 
     50 C           2.7580  -13.9932  -40.4135 C.2       4 UNK         0.5000 
     51 O           2.7447  -15.1031  -39.8818 O.2       4 UNK        -0.5000 
     52 CA          1.8171  -12.8950  -39.8835 C.3       4 UNK         0.1400 
     53 CB          2.5215  -12.0577  -38.8062 C.3       4 UNK        -0.1800 
     54 N           1.3032  -12.0053  -40.9261 N.am      4 UNK        -0.5000 
     55 C           0.5618  -12.3903  -41.9735 C.2       3 UNK         0.5000 
     56 O           0.2327  -13.5600  -42.1768 O.2       3 UNK        -0.5000 
     57 CA          0.1388  -11.3034  -42.9832 C.3       3 UNK         0.1400 
     58 CB          0.4302   -9.8589  -42.5181 C.3       3 UNK        -0.1800 
     59 N           0.7154  -11.5293  -44.3118 N.am      3 UNK        -0.5000 
     60 C           2.0150  -11.6562  -44.6279 C.2       2 UNK         0.5000 
     61 O           2.9186  -11.6481  -43.7905 O.2       2 UNK        -0.5000 
     62 CA          2.3704  -11.8285  -46.1208 C.3       2 UNK         0.1400 
     63 CB          3.4652  -12.8874  -46.3383 C.3       2 UNK        -0.1800 
     64 N           1.1996  -12.1843  -46.9252 N.am      2 UNK        -0.5000 
     65 C           0.5272  -11.3461  -47.7244 C.2       1 UNK         0.5000 
     66 O           0.8535  -10.1742  -47.9181 O.2       1 UNK        -0.5000 
     67 C          -2.6140  -20.6214  -46.5296 C.2       11 UNK         0.5000 
     68 O          -3.0357  -20.7794  -47.6740 O.2       11 UNK        -0.5000 
     69 N          -3.3848  -20.7758  -45.4437 N.am      12 UNK        -0.5000 
     70 CA         -4.7494  -21.3061  -45.4655 C.3       12 UNK         0.1400 
     71 CB         -5.3327  -21.2592  -44.0459 C.3       12 UNK        -0.1800 
     72 C          -4.8305  -22.7372  -46.0377 C.2       12 UNK         0.5000 
     73 O          -5.7943  -23.0532  -46.7347 O.2       12 UNK        -0.5000 
     74 N          -3.8024  -23.5613  -45.7805 N.am      13 UNK        -0.5000 
     75 CA         -3.6756  -24.9069  -46.3421 C.3       13 UNK         0.1400 
     76 CB         -2.6244  -25.7029  -45.5547 C.3       13 UNK        -0.1800 
     77 C          -3.3262  -24.8723  -47.8400 C.2       13 UNK         0.5000 
     78 O          -3.8495  -25.6841  -48.6027 O.2       13 UNK        -0.5000 
     79 N          -2.4853  -23.9081  -48.2437 N.am      14 UNK        -0.5000 
     80 CA         -2.1425  -23.6510  -49.6438 C.3       14 UNK         0.1400 
     81 CB         -0.9717  -22.6600  -49.7333 C.3       14 UNK        -0.1800 
     82 C          -3.3548  -23.1521  -50.4483 C.2       14 UNK         0.5000 
     83 O          -3.5625  -23.6143  -51.5669 O.2       14 UNK        -0.5000 
     84 N          -4.1595  -22.2677  -49.8425 N.am      15 UNK        -0.5000 
     85 CA         -5.4175  -21.7691  -50.3962 C.3       15 UNK         0.1400 
     86 CB         -5.9263  -20.5994  -49.5420 C.3       15 UNK        -0.1800 
     87 C          -6.4866  -22.8693  -50.5252 C.2       15 UNK         0.5000 
     88 O          -7.1802  -22.9191  -51.5401 O.2       15 UNK        -0.5000 
     89 N          -6.5745  -23.7643  -49.5292 N.am      16 UNK        -0.5000 
     90 CA         -7.4502  -24.9407  -49.5506 C.3       16 UNK         0.1400 
     91 CB         -7.4567  -25.6082  -48.1674 C.3       16 UNK        -0.1800 
     92 C          -7.0640  -25.9544  -50.6464 C.2       16 UNK         0.5000 
     93 O          -7.9471  -26.5310  -51.2818 O.2       16 UNK        -0.5000 
     94 N          -5.7545  -26.1197  -50.8757 N.am      17 UNK        -0.5000 
     95 CA         -5.1813  -26.9198  -51.9612 C.3       17 UNK         0.1400 
     96 CB         -3.7465  -27.3103  -51.5708 C.3       17 UNK        -0.1800 
     97 C          -5.1891  -26.1978  -53.3270 C.2       17 UNK         0.5000 
     98 O          -4.8103  -26.8043  -54.3299 O.2       17 UNK        -0.5000 
     99 N          -5.5696  -24.9132  -53.3405 N.am      18 UNK        -0.5000 
    100 CA        -5.5910  -23.9377  -54.4364 C.3       18 UNK         0.1400 
    101 CB        -6.5152  -24.3916  -55.5807 C.3       18 UNK        -0.1800 
    102 C         -4.2068  -23.5240  -54.9729 C.2       18 UNK         0.5000 
    103 O         -4.0325  -22.3640  -55.3536 O.2       18 UNK        -0.5000 
    104 N         -3.2602  -24.4711  -55.0431 N.am      19 UNK        -0.5000 
    105 CA        -1.8511  -24.3191  -55.4379 C.3       19 UNK         0.1400 
    106 CB        -1.1058  -23.4769  -54.3810 C.3       19 UNK        -0.1800 
    107 C         -1.6295  -23.7638  -56.8652 C.2       19 UNK         0.5000 
    108 O         -0.5069  -23.3831  -57.2000 O.2       19 UNK        -0.5000 
    109 N         -2.7066  -23.7005  -57.6643 N.am      20 UNK        -0.5000 
    110 CA        -2.8366  -23.0060  -58.9492 C.3       20 UNK         0.1400 
    111 CB        -1.9959  -23.7084  -60.0360 C.3       20 UNK        -0.1800 
    112 C         -2.5515  -21.4876  -58.8529 C.2       20 UNK         0.5000 
    113 O         -2.1126  -20.8904  -59.8382 O.2       20 UNK        -0.5000 
    114 N         -2.7873  -20.8886  -57.6745 N.am      21 UNK        -0.5000 
    115 CA        -2.4043  -19.5065  -57.3733 C.3       21 UNK         0.1400 
    116 CB        -0.9411  -19.4833  -56.8938 C.3       21 UNK        -0.1800 
    117 C         -3.3164  -18.8015  -56.3539 C.2       21 UNK         0.5000 
    118 O         -3.3177  -17.5698  -56.3220 O.2       21 UNK        -0.5000 
    119 N         -4.0561  -19.5527  -55.5307 N.am      22 UNK        -0.5000 
    120 CA        -4.8412  -19.0210  -54.4031 C.3       22 UNK         0.1400 
    121 C         -6.1527  -19.8068  -54.1190 C.2       22 UNK         0.5000 
    122 N         -6.6589  -20.5986  -55.0562 N.am      22 UNK        -0.7600 
    123 O         -6.7514  -19.6655  -53.0567 O.2       22 UNK        -0.5000 
    124 C124       -3.9676  -18.7455  -53.1441 C.3       23 UNK        -0.0398 
    125 S125       -2.8531  -20.1199  -52.6786 S.3       23 UNK        -0.2404 
    126 C126       -1.2139  -19.4023  -53.0192 C.3       23 UNK        -0.0205 
    127 H127       -2.4333  -14.9636  -46.4116 H         1 UNK         0.0600 
    128 H128       -2.2986  -14.2311  -44.8100 H         1 UNK         0.0600 
    129 H129       -3.7200  -13.9147  -45.8070 H         1 UNK         0.0600 
    130 H130       -1.4485  -13.8646  -48.1029 H         1 UNK         0.3000 
    131 H131       -1.4530  -11.0615  -48.4165 H         1 UNK         0.0600 
    132 H132       -1.4519  -12.3649  -50.3957 H         1 UNK         0.0800 
    133 H133        0.0520  -11.5090  -50.3972 H         1 UNK         0.0800 
    134 H134       -1.3532  -14.6212  -51.5300 H         1 UNK         0.0800 
    135 H135       -1.7632  -14.8990  -49.8543 H         1 UNK         0.0800 
    136 H136       -1.5765  -16.7313  -52.5496 H         1 UNK         0.1150 
    137 H137        0.2702  -20.2247  -50.9030 H         1 UNK         0.1150 
    138 H138        0.5507  -16.4767  -48.8409 H         1 UNK         0.1150 
    139 H139        1.1720  -20.1994  -48.7066 H         1 UNK         0.0800 
    140 H140        2.3858  -18.9557  -48.8792 H         1 UNK         0.0800 
    141 H141       -1.2853  -18.6634  -47.7665 H         1 UNK         0.0800 
    142 H142       -1.2194  -18.1385  -46.1092 H         1 UNK         0.0800 
    143 H143       -0.5801  -20.9911  -46.9766 H         1 UNK         0.0600 
    144 H144       -0.2055  -19.7596  -44.4817 H         1 UNK         0.3000 
    145 H145       -0.7231  -21.2023  -42.3001 H         1 UNK         0.0600 
    146 H146        0.4309  -23.1874  -41.3139 H         1 UNK         0.0600 
    147 H147       -0.9645  -23.6537  -42.2736 H         1 UNK         0.0600 
    148 H148        0.6527  -23.8686  -42.9252 H         1 UNK         0.0600 
    149 H149        1.2637  -20.2680  -42.2803 H         1 UNK         0.3000 
    150 H150        4.4700  -21.1606  -43.0182 H         1 UNK         0.0600 
    151 H151        4.0715  -20.3749  -45.3597 H         1 UNK         0.0600 
    152 H152        4.8241  -19.1206  -44.3874 H         1 UNK         0.0600 
    153 H153        3.1012  -19.0401  -44.7536 H         1 UNK         0.0600 
    154 H154        3.3267  -18.6111  -42.3526 H         1 UNK         0.3000 
    155 H155        2.8123  -19.3173  -38.8720 H         1 UNK         0.0600 
    156 H156        4.7566  -17.4681  -40.3511 H         1 UNK         0.0600 
    157 H157        5.1984  -18.6329  -39.1095 H         1 UNK         0.0600 
    158 H158        4.1838  -17.2589  -38.6973 H         1 UNK         0.0600 
    159 H159        2.3012  -16.9653  -40.3650 H         1 UNK         0.3000 
    160 H160       -1.0630  -17.7835  -41.3667 H         1 UNK         0.0600 
    161 H161       -1.3393  -15.5488  -40.2893 H         1 UNK         0.0600 
    162 H162        0.1908  -15.7555  -39.4409 H         1 UNK         0.0600 
    163 H163       -1.1605  -16.8220  -39.0904 H         1 UNK         0.0600 
    164 H164        0.5855  -15.5285  -41.9479 H         1 UNK         0.3000 
    165 H165        2.1259  -16.8284  -44.8838 H         1 UNK         0.0600 
    166 H166        1.1448  -14.9245  -45.9837 H         1 UNK         0.0600 
    167 H167       -0.1846  -15.9770  -45.5584 H         1 UNK         0.0600 
    168 H168        0.1232  -14.5384  -44.5972 H         1 UNK         0.0600 
    169 H169        2.1762  -14.3246  -43.3974 H         1 UNK         0.3000 
    170 H170        4.9487  -15.2048  -41.3642 H         1 UNK         0.0600 
    171 H171        6.0953  -14.6442  -43.4939 H         1 UNK         0.0600 
    172 H172        4.9398  -13.3560  -43.7984 H         1 UNK         0.0600 
    173 H173        6.0323  -13.2532  -42.4216 H         1 UNK         0.0600 
    174 H174        3.4457  -12.7765  -41.8996 H         1 UNK         0.3000 
    175 H175        0.9606  -13.3914  -39.4232 H         1 UNK         0.0600 
    176 H176        1.8386  -11.3359  -38.3576 H         1 UNK         0.0600 
    177 H177        2.8960  -12.6920  -38.0016 H         1 UNK         0.0600 
    178 H178        3.3711  -11.5089  -39.2145 H         1 UNK         0.0600 
    179 H179        1.5519  -11.0299  -40.8499 H         1 UNK         0.3000 
    180 H180       -0.9418  -11.4020  -43.0951 H         1 UNK         0.0600 
    181 H181        1.4983   -9.6645  -42.4142 H         1 UNK         0.0600 
    182 H182       -0.0456   -9.6480  -41.5594 H         1 UNK         0.0600 
    183 H183        0.0355   -9.1370  -43.2332 H         1 UNK         0.0600 
    184 H184        0.0341  -11.5737  -45.0610 H         1 UNK         0.3000 
    185 H185        2.7743  -10.8708  -46.4543 H         1 UNK         0.0600 
    186 H186        3.2140  -13.8418  -45.8777 H         1 UNK         0.0600 
    187 H187        3.6382  -13.0636  -47.4001 H         1 UNK         0.0600 
    188 H188        4.4127  -12.5553  -45.9140 H         1 UNK         0.0600 
    189 H189        0.8535  -13.1275  -46.8317 H         1 UNK         0.3000 
    190 H190       -2.9695  -20.6229  -44.5372 H         1 UNK         0.3000 
    191 H191       -5.3505  -20.6577  -46.1061 H         1 UNK         0.0600 
    192 H192       -4.7541  -21.8703  -43.3519 H         1 UNK         0.0600 
    193 H193       -6.3585  -21.6301  -44.0336 H         1 UNK         0.0600 
    194 H194       -5.3525  -20.2395  -43.6607 H         1 UNK         0.0600 
    195 H195       -3.0087  -23.2192  -45.2480 H         1 UNK         0.3000 
    196 H196       -4.6349  -25.4168  -46.2321 H         1 UNK         0.0600 
    197 H197       -2.5677  -26.7312  -45.9138 H         1 UNK         0.0600 
    198 H198       -2.8710  -25.7414  -44.4936 H         1 UNK         0.0600 
    199 H199       -1.6292  -25.2681  -45.6521 H         1 UNK         0.0600 
    200 H200       -2.1187  -23.2689  -47.5546 H         1 UNK         0.3000 
    201 H201       -1.8161  -24.5951  -50.0853 H         1 UNK         0.0600 
    202 H202       -0.1082  -23.0116  -49.1688 H         1 UNK         0.0600 
    203 H203       -1.2416  -21.6730  -49.3590 H         1 UNK         0.0600 
    204 H204       -0.6557  -22.5360  -50.7699 H         1 UNK         0.0600 
    205 H205       -3.8670  -21.8783  -48.9502 H         1 UNK         0.3000 
    206 H206       -5.2143  -21.3924  -51.4000 H         1 UNK         0.0600 
    207 H207       -5.1909  -19.7956  -49.5006 H         1 UNK         0.0600 
    208 H208       -6.8419  -20.1817  -49.9626 H         1 UNK         0.0600 
    209 H209       -6.1427  -20.9100  -48.5198 H         1 UNK         0.0600 
    210 H210       -6.0189  -23.6242  -48.6921 H         1 UNK         0.3000 
    211 H211       -8.4643  -24.5959  -49.7629 H         1 UNK         0.0600 
    212 H212       -6.4652  -25.9615  -47.8848 H         1 UNK         0.0600 
    213 H213       -8.1275  -26.4680  -48.1525 H         1 UNK         0.0600 
    214 H214       -7.7982  -24.9166  -47.3972 H         1 UNK         0.0600 
    215 H215       -5.0924  -25.6553  -50.2628 H         1 UNK         0.3000 
    216 H216       -5.7661  -27.8351  -52.0720 H         1 UNK         0.0600 
    217 H217       -3.2939  -27.9553  -52.3249 H         1 UNK         0.0600 
    218 H218       -3.7289  -27.8541  -50.6261 H         1 UNK         0.0600 
    219 H219       -3.1083  -26.4324  -51.4626 H         1 UNK         0.0600 
    220 H220       -5.8029  -24.5123  -52.4416 H         1 UNK         0.3000 
    221 H221       -6.0245  -23.0384  -53.9999 H         1 UNK         0.0600 
    222 H222       -6.1396  -25.2844  -56.0811 H         1 UNK         0.0600 
    223 H223       -7.5177  -24.6092  -55.2124 H         1 UNK         0.0600 
    224 H224       -6.6093  -23.6107  -56.3362 H         1 UNK         0.0600 
    225 H225       -3.5445  -25.4081  -54.7735 H         1 UNK         0.3000 
    226 H226       -1.4227  -25.3220  -55.4309 H         1 UNK         0.0600 
    227 H227       -1.4444  -22.4403  -54.3814 H         1 UNK         0.0600 
    228 H228       -0.0311  -23.4701  -54.5655 H         1 UNK         0.0600 
    229 H229       -1.2597  -23.8756  -53.3781 H         1 UNK         0.0600 
    230 H230       -3.5711  -24.0463  -57.2737 H         1 UNK         0.3000 
    231 H231       -3.8851  -23.0949  -59.2365 H         1 UNK         0.0600 
    232 H232       -2.2188  -24.7745  -60.0791 H         1 UNK         0.0600 
    233 H233       -0.9264  -23.5961  -59.8568 H         1 UNK         0.0600 
    234 H234       -2.2066  -23.2949  -61.0228 H         1 UNK         0.0600 
    235 H235       -3.1550  -21.4448  -56.9100 H         1 UNK         0.3000 
    236 H236       -2.4736  -18.9104  -58.2858 H         1 UNK         0.0600 
    237 H237       -0.2639  -19.8252  -57.6766 H         1 UNK         0.0600 
    238 H238       -0.6298  -18.4759  -56.6145 H         1 UNK         0.0600 
    239 H239       -0.7972  -20.1283  -56.0262 H         1 UNK         0.0600 
    240 H240       -3.9954  -20.5679  -55.5524 H         1 UNK         0.3000 
    241 H241       -5.2316  -18.0503  -54.7143 H         1 UNK         0.0600 
    242 H242       -7.5263  -21.0775  -54.8760 H         1 UNK         0.3800 
    243 H243       -6.2022  -20.6984  -55.9481 H         1 UNK         0.3800 
    244 H244       -3.3717  -17.8549  -53.3343 H         1 UNK         0.0800 
    245 H245       -4.5819  -18.4910  -52.2793 H         1 UNK         0.0800 
    246 H246       -1.2475  -18.8022  -53.9292 H         1 UNK         0.0800 
    247 H247       -0.5147  -20.2152  -53.2201 H         1 UNK         0.0800 
@<TRIPOS>BOND
     1    1    2 1    
     2    1  127 1    
     3    1  128 1    
     4    1  129 1    
     5    2    3 2    
     6    2    4 am   BACKBONE|DICT|INTERRES
     7    4    5 1    
     8    4  130 1    
     9    5    6 1    
    10    5   65 1    
    11    5  131 1    
    12    6    7 1    
    13    6  132 1    
    14    6  133 1    
    15    7    8 1    
    16    8    9 1    
    17    8  134 1    
    18    8  135 1    
    19    9   10 ar   
    20    9   14 ar   
    21   10   11 ar   
    22   10  136 1    
    23   11   12 ar   
    24   11  126 1    
    25   12   13 ar   
    26   12  137 1    
    27   13   14 ar   
    28   13   15 1    
    29   14  138 1    
    30   15   16 1    
    31   15  139 1    
    32   15  140 1    
    33   16   17 1    
    34   17   18 1    
    35   17  141 1    
    36   17  142 1    
    37   18   19 1    
    38   18   67 1    
    39   18  143 1    
    40   19   20 am   BACKBONE|DICT|INTERRES
    41   19  144 1    
    42   20   21 2    
    43   20   22 1    
    44   22   23 1    
    45   22   24 1    
    46   22  145 1    
    47   23  146 1    
    48   23  147 1    
    49   23  148 1    
    50   24   25 am   BACKBONE|DICT|INTERRES
    51   24  149 1    
    52   25   26 2    
    53   25   27 1    
    54   27   28 1    
    55   27   29 1    
    56   27  150 1    
    57   28  151 1    
    58   28  152 1    
    59   28  153 1    
    60   29   30 am   BACKBONE|DICT|INTERRES
    61   29  154 1    
    62   30   31 2    
    63   30   32 1    
    64   32   33 1    
    65   32   34 1    
    66   32  155 1    
    67   33  156 1    
    68   33  157 1    
    69   33  158 1    
    70   34   35 am   BACKBONE|DICT|INTERRES
    71   34  159 1    
    72   35   36 2    
    73   35   37 1    
    74   37   38 1    
    75   37   39 1    
    76   37  160 1    
    77   38  161 1    
    78   38  162 1    
    79   38  163 1    
    80   39   40 am   BACKBONE|DICT|INTERRES
    81   39  164 1    
    82   40   41 2    
    83   40   42 1    
    84   42   43 1    
    85   42   44 1    
    86   42  165 1    
    87   43  166 1    
    88   43  167 1    
    89   43  168 1    
    90   44   45 am   BACKBONE|DICT|INTERRES
    91   44  169 1    
    92   45   46 2    
    93   45   47 1    
    94   47   48 1    
    95   47   49 1    
    96   47  170 1    
    97   48  171 1    
    98   48  172 1    
    99   48  173 1    
   100   49   50 am   BACKBONE|DICT|INTERRES
   101   49  174 1    
   102   50   51 2    
   103   50   52 1    
   104   52   53 1    
   105   52   54 1    
   106   52  175 1    
   107   53  176 1    
   108   53  177 1    
   109   53  178 1    
   110   54   55 am   BACKBONE|DICT|INTERRES
   111   54  179 1    
   112   55   56 2    
   113   55   57 1    
   114   57   58 1    
   115   57   59 1    
   116   57  180 1    
   117   58  181 1    
   118   58  182 1    
   119   58  183 1    
   120   59   60 am   BACKBONE|DICT|INTERRES
   121   59  184 1    
   122   60   61 2    
   123   60   62 1    
   124   62   63 1    
   125   62   64 1    
   126   62  185 1    
   127   63  186 1    
   128   63  187 1    
   129   63  188 1    
   130   64   65 am   BACKBONE|DICT|INTERRES
   131   64  189 1    
   132   65   66 2    
   133   67   68 2    
   134   67   69 am   BACKBONE|DICT|INTERRES
   135   69   70 1    
   136   69  190 1    
   137   70   71 1    
   138   70   72 1    
   139   70  191 1    
   140   71  192 1    
   141   71  193 1    
   142   71  194 1    
   143   72   73 2    
   144   72   74 am   BACKBONE|DICT|INTERRES
   145   74   75 1    
   146   74  195 1    
   147   75   76 1    
   148   75   77 1    
   149   75  196 1    
   150   76  197 1    
   151   76  198 1    
   152   76  199 1    
   153   77   78 2    
   154   77   79 am   BACKBONE|DICT|INTERRES
   155   79   80 1    
   156   79  200 1    
   157   80   81 1    
   158   80   82 1    
   159   80  201 1    
   160   81  202 1    
   161   81  203 1    
   162   81  204 1    
   163   82   83 2    
   164   82   84 am   BACKBONE|DICT|INTERRES
   165   84   85 1    
   166   84  205 1    
   167   85   86 1    
   168   85   87 1    
   169   85  206 1    
   170   86  207 1    
   171   86  208 1    
   172   86  209 1    
   173   87   88 2    
   174   87   89 am   BACKBONE|DICT|INTERRES
   175   89   90 1    
   176   89  210 1    
   177   90   91 1    
   178   90   92 1    
   179   90  211 1    
   180   91  212 1    
   181   91  213 1    
   182   91  214 1    
   183   92   93 2    
   184   92   94 am   BACKBONE|DICT|INTERRES
   185   94   95 1    
   186   94  215 1    
   187   95   96 1    
   188   95   97 1    
   189   95  216 1    
   190   96  217 1    
   191   96  218 1    
   192   96  219 1    
   193   97   98 2    
   194   97   99 am   BACKBONE|DICT|INTERRES
   195   99  100 1    
   196   99  220 1    
   197  100  101 1    
   198  100  102 1    
   199  100  221 1    
   200  101  222 1    
   201  101  223 1    
   202  101  224 1    
   203  102  103 2    
   204  102  104 am   BACKBONE|DICT|INTERRES
   205  104  105 1    
   206  104  225 1    
   207  105  106 1    
   208  105  107 1    
   209  105  226 1    
   210  106  227 1    
   211  106  228 1    
   212  106  229 1    
   213  107  108 2    
   214  107  109 am   BACKBONE|DICT|INTERRES
   215  109  110 1    
   216  109  230 1    
   217  110  111 1    
   218  110  112 1    
   219  110  231 1    
   220  111  232 1    
   221  111  233 1    
   222  111  234 1    
   223  112  113 2    
   224  112  114 am   BACKBONE|DICT|INTERRES
   225  114  115 1    
   226  114  235 1    
   227  115  116 1    
   228  115  117 1    
   229  115  236 1    
   230  116  237 1    
   231  116  238 1    
   232  116  239 1    
   233  117  118 2    
   234  117  119 am   BACKBONE|DICT|INTERRES
   235  119  120 1    
   236  119  240 1    
   237  120  121 1    
   238  120  124 1    
   239  120  241 1    
   240  121  122 am   BACKBONE|DICT|INTERRES
   241  121  123 2    
   242  122  242 1    
   243  122  243 1    
   244  124  125 1    
   245  124  244 1    
   246  124  245 1    
   247  125  126 1    
   248  126  246 1    
   249  126  247 1    
@<TRIPOS>SUBSTRUCTURE
     1 UNK         1 GROUP             0       ****    0 ROOT    
