@<TRIPOS>MOLECULE
3R540
247   249    1
SMALL
USER_CHARGES


@<TRIPOS>ATOM
      1 CA          4.8703  -14.7745  -46.7594 C.3       0 UNK        -0.1800 
      2 C           3.4538  -15.0049  -47.2627 C.2       0 UNK         0.5000 
      3 O           2.5203  -14.9973  -46.4596 O.2       0 UNK        -0.5000 
      4 N           3.3009  -15.2135  -48.5768 N.am      1 UNK        -0.5000 
      5 CA          2.0447  -15.4501  -49.3006 C.3       1 UNK         0.1400 
      6 C6          2.2981  -15.5283  -50.8288 C.3       23 UNK        -0.0398 
      7 S7          2.8549  -17.1999  -51.3105 S.3       23 UNK        -0.2404 
      8 C8          1.4934  -17.7915  -52.3766 C.3       23 UNK        -0.0205 
      9 C9          0.1123  -17.5377  -51.7856 C.ar      23 UNK        -0.0193 
     10 C10        -0.7637  -16.6444  -52.4109 C.ar      23 UNK        -0.1150 
     11 C11        -2.0243  -16.3865  -51.8669 C.ar      23 UNK        -0.0193 
     12 C12        -2.4070  -17.0273  -50.6862 C.ar      23 UNK        -0.1150 
     13 C13        -1.5426  -17.9249  -50.0538 C.ar      23 UNK        -0.0193 
     14 C14        -0.2868  -18.1824  -50.6122 C.ar      23 UNK        -0.1150 
     15 C15        -1.9821  -18.6396  -48.7881 C.3       23 UNK        -0.0205 
     16 S16        -0.9015  -18.2647  -47.3754 S.3       23 UNK        -0.2404 
     17 C17        -1.6754  -19.3535  -46.1418 C.3       23 UNK        -0.0398 
     18 CA         -1.0654  -20.7845  -46.1249 C.3       11 UNK         0.1400 
     19 N          -0.2504  -21.0235  -44.9284 N.am      11 UNK        -0.5000 
     20 C           0.4153  -22.1536  -44.6432 C.2       10 UNK         0.5000 
     21 O           0.4751  -23.1247  -45.3953 O.2       10 UNK        -0.5000 
     22 CA          1.0735  -22.2357  -43.2544 C.3       10 UNK         0.1400 
     23 CB          2.5166  -21.7146  -43.3073 C.3       10 UNK        -0.1800 
     24 N           0.3305  -21.4880  -42.2423 N.am      10 UNK        -0.5000 
     25 C          -0.9111  -21.7582  -41.8183 C.2       9 UNK         0.5000 
     26 O          -1.5563  -22.7350  -42.2045 O.2       9 UNK        -0.5000 
     27 CA         -1.5623  -20.7270  -40.8682 C.3       9 UNK         0.1400 
     28 CB         -2.3888  -21.3944  -39.7508 C.3       9 UNK        -0.1800 
     29 N          -0.6211  -19.7309  -40.3329 N.am      9 UNK        -0.5000 
     30 C           0.3844  -19.9231  -39.4651 C.2       8 UNK         0.5000 
     31 O           0.6139  -20.9963  -38.9075 O.2       8 UNK        -0.5000 
     32 CA          1.3337  -18.7333  -39.2112 C.3       8 UNK         0.1400 
     33 CB          2.6868  -18.9903  -39.8941 C.3       8 UNK        -0.1800 
     34 N           0.8125  -17.4463  -39.6800 N.am      8 UNK        -0.5000 
     35 C          -0.1190  -16.7211  -39.0452 C.2       7 UNK         0.5000 
     36 O          -0.6283  -17.0501  -37.9735 O.2       7 UNK        -0.5000 
     37 CA         -0.5813  -15.4260  -39.7430 C.3       7 UNK         0.1400 
     38 CB          0.4007  -14.2758  -39.4738 C.3       7 UNK        -0.1800 
     39 N          -0.7516  -15.5916  -41.1879 N.am      7 UNK        -0.5000 
     40 C          -1.6592  -16.3948  -41.7607 C.2       6 UNK         0.5000 
     41 O          -2.4885  -17.0524  -41.1326 O.2       6 UNK        -0.5000 
     42 CA         -1.5845  -16.5423  -43.2881 C.3       6 UNK         0.1400 
     43 CB         -2.3340  -15.4134  -44.0104 C.3       6 UNK        -0.1800 
     44 N          -0.1969  -16.6072  -43.7506 N.am      6 UNK        -0.5000 
     45 C           0.5832  -17.6880  -43.6097 C.2       5 UNK         0.5000 
     46 O           0.1760  -18.7596  -43.1649 O.2       5 UNK        -0.5000 
     47 CA          2.0623  -17.5653  -44.0096 C.3       5 UNK         0.1400 
     48 CB          2.2760  -18.0581  -45.4477 C.3       5 UNK        -0.1800 
     49 N           2.5707  -16.2026  -43.8637 N.am      5 UNK        -0.5000 
     50 C           2.8137  -15.6242  -42.6790 C.2       4 UNK         0.5000 
     51 O           2.6546  -16.1960  -41.6009 O.2       4 UNK        -0.5000 
     52 CA          3.2510  -14.1475  -42.6914 C.3       4 UNK         0.1400 
     53 CB          4.7770  -14.0371  -42.8207 C.3       4 UNK        -0.1800 
     54 N           2.6140  -13.3527  -43.7442 N.am      4 UNK        -0.5000 
     55 C           1.2934  -13.1680  -43.8735 C.2       3 UNK         0.5000 
     56 O           0.4644  -13.6767  -43.1177 O.2       3 UNK        -0.5000 
     57 CA          0.8073  -12.3071  -45.0486 C.3       3 UNK         0.1400 
     58 CB          1.8990  -11.4147  -45.6735 C.3       3 UNK        -0.1800 
     59 N           0.2717  -13.1946  -46.0743 N.am      3 UNK        -0.5000 
     60 C          -0.8794  -13.0173  -46.7346 C.2       2 UNK         0.5000 
     61 O          -1.6489  -12.0809  -46.5115 O.2       2 UNK        -0.5000 
     62 CA         -1.2456  -14.0611  -47.8169 C.3       2 UNK         0.1400 
     63 CB         -2.0361  -13.4463  -48.9907 C.3       2 UNK        -0.1800 
     64 N          -0.1069  -14.8441  -48.3114 N.am      2 UNK        -0.5000 
     65 C           0.9723  -14.3922  -48.9686 C.2       1 UNK         0.5000 
     66 O           1.1600  -13.2157  -49.2850 O.2       1 UNK        -0.5000 
     67 C          -2.1827  -21.8358  -46.2728 C.2       11 UNK         0.5000 
     68 O          -2.3752  -22.3689  -47.3655 O.2       11 UNK        -0.5000 
     69 N          -2.8808  -22.1163  -45.1633 N.am      12 UNK        -0.5000 
     70 CA         -3.9607  -23.0973  -45.0913 C.3       12 UNK         0.1400 
     71 CB         -4.7852  -22.8590  -43.8170 C.3       12 UNK        -0.1800 
     72 C          -3.4326  -24.5395  -45.1419 C.2       12 UNK         0.5000 
     73 O          -4.0302  -25.3751  -45.8194 O.2       12 UNK        -0.5000 
     74 N          -2.3103  -24.7961  -44.4538 N.am      13 UNK        -0.5000 
     75 CA         -1.6401  -26.0979  -44.4141 C.3       13 UNK         0.1400 
     76 CB         -0.5185  -26.0651  -43.3654 C.3       13 UNK        -0.1800 
     77 C          -1.0925  -26.5331  -45.7869 C.2       13 UNK         0.5000 
     78 O          -1.2582  -27.6922  -46.1685 O.2       13 UNK        -0.5000 
     79 N          -0.4750  -25.5912  -46.5122 N.am      14 UNK        -0.5000 
     80 CA          0.0476  -25.7942  -47.8645 C.3       14 UNK         0.1400 
     81 CB          1.1546  -24.7599  -48.1264 C.3       14 UNK        -0.1800 
     82 C          -1.0327  -25.6853  -48.9568 C.2       14 UNK         0.5000 
     83 O          -0.7549  -26.0358  -50.1041 O.2       14 UNK        -0.5000 
     84 N          -2.2123  -25.1468  -48.6091 N.am      15 UNK        -0.5000 
     85 CA         -3.3226  -24.7840  -49.5003 C.3       15 UNK         0.1400 
     86 CB         -4.0150  -26.0483  -50.0477 C.3       15 UNK        -0.1800 
     87 C          -2.8679  -23.8133  -50.6117 C.2       15 UNK         0.5000 
     88 O          -3.1679  -24.0245  -51.7878 O.2       15 UNK        -0.5000 
     89 N          -2.0669  -22.8142  -50.2094 N.am      16 UNK        -0.5000 
     90 CA         -1.3570  -21.8263  -51.0356 C.3       16 UNK         0.1400 
     91 CB         -2.3666  -20.9219  -51.7697 C.3       16 UNK        -0.1800 
     92 C          -0.3236  -22.4195  -52.0215 C.2       16 UNK         0.5000 
     93 O           0.1803  -21.6824  -52.8689 O.2       16 UNK        -0.5000 
     94 N          -0.0310  -23.7256  -51.9052 N.am      17 UNK        -0.5000 
     95 CA          0.6623  -24.5654  -52.8884 C.3       17 UNK         0.1400 
     96 CB          2.1300  -24.1279  -53.0802 C.3       17 UNK        -0.1800 
     97 C          -0.1362  -24.6736  -54.2083 C.2       17 UNK         0.5000 
     98 O           0.4555  -24.6705  -55.2895 O.2       17 UNK        -0.5000 
     99 N          -1.4690  -24.7708  -54.0678 N.am      18 UNK        -0.5000 
    100 CA        -2.5210  -24.7321  -55.0887 C.3       18 UNK         0.1400 
    101 CB        -2.2652  -25.7344  -56.2335 C.3       18 UNK        -0.1800 
    102 C         -2.7857  -23.3060  -55.6117 C.2       18 UNK         0.5000 
    103 O         -1.9619  -22.4069  -55.4357 O.2       18 UNK        -0.5000 
    104 N         -3.9578  -23.1310  -56.2416 N.am      19 UNK        -0.5000 
    105 CA        -4.4865  -21.8725  -56.7865 C.3       19 UNK         0.1400 
    106 CB        -3.6356  -21.3842  -57.9783 C.3       19 UNK        -0.1800 
    107 C         -4.6934  -20.7937  -55.6999 C.2       19 UNK         0.5000 
    108 O         -4.3161  -19.6365  -55.8864 O.2       19 UNK        -0.5000 
    109 N         -5.3038  -21.2055  -54.5785 N.am      20 UNK        -0.5000 
    110 CA        -5.5731  -20.3733  -53.4002 C.3       20 UNK         0.1400 
    111 CB        -5.9793  -21.2881  -52.2332 C.3       20 UNK        -0.1800 
    112 C         -6.6335  -19.2747  -53.6177 C.2       20 UNK         0.5000 
    113 O         -6.7255  -18.3555  -52.8025 O.2       20 UNK        -0.5000 
    114 N         -7.4097  -19.3683  -54.7059 N.am      21 UNK        -0.5000 
    115 CA        -8.3822  -18.3686  -55.1513 C.3       21 UNK         0.1400 
    116 CB        -9.4068  -19.0561  -56.0720 C.3       21 UNK        -0.1800 
    117 C         -7.6832  -17.1668  -55.8256 C.2       21 UNK         0.5000 
    118 O         -7.8796  -16.9189  -57.0171 O.2       21 UNK        -0.5000 
    119 N         -6.8437  -16.4715  -55.0517 N.am      22 UNK        -0.5000 
    120 CA        -6.0452  -15.3075  -55.4600 C.3       22 UNK         0.1400 
    121 C         -6.9155  -14.0905  -55.8824 C.2       22 UNK         0.5000 
    122 N         -6.4964  -13.3411  -56.8930 N.am      22 UNK        -0.7600 
    123 O         -7.9418  -13.7934  -55.2742 O.2       22 UNK        -0.5000 
    124 C124       -5.0495  -14.8918  -54.3472 C.3       23 UNK        -0.0398 
    125 S125       -3.9128  -16.2372  -53.8707 S.3       23 UNK        -0.2404 
    126 C126       -2.9709  -15.4144  -52.5519 C.3       23 UNK        -0.0205 
    127 H127        5.5986  -14.7979  -47.5702 H         1 UNK         0.0600 
    128 H128        4.9396  -13.8044  -46.2678 H         1 UNK         0.0600 
    129 H129        5.1391  -15.5462  -46.0382 H         1 UNK         0.0600 
    130 H130        4.1249  -15.2042  -49.1598 H         1 UNK         0.3000 
    131 H131        1.6632  -16.4153  -48.9592 H         1 UNK         0.0600 
    132 H132        3.0530  -14.8022  -51.1347 H         1 UNK         0.0800 
    133 H133        1.4100  -15.2623  -51.4022 H         1 UNK         0.0800 
    134 H134        1.6156  -18.8622  -52.5478 H         1 UNK         0.0800 
    135 H135        1.5851  -17.3152  -53.3540 H         1 UNK         0.0800 
    136 H136       -0.4662  -16.1454  -53.3225 H         1 UNK         0.1150 
    137 H137       -3.3835  -16.8316  -50.2660 H         1 UNK         0.1150 
    138 H138        0.3858  -18.8762  -50.1277 H         1 UNK         0.1150 
    139 H139       -1.9857  -19.7147  -48.9651 H         1 UNK         0.0800 
    140 H140       -3.0073  -18.3671  -48.5325 H         1 UNK         0.0800 
    141 H141       -1.5711  -18.8808  -45.1702 H         1 UNK         0.0800 
    142 H142       -2.7528  -19.3501  -46.3228 H         1 UNK         0.0800 
    143 H143       -0.4047  -20.9132  -46.9850 H         1 UNK         0.0600 
    144 H144       -0.2120  -20.2719  -44.2456 H         1 UNK         0.3000 
    145 H145        1.0958  -23.2831  -42.9504 H         1 UNK         0.0600 
    146 H146        3.0088  -21.8178  -42.3400 H         1 UNK         0.0600 
    147 H147        3.1068  -22.2745  -44.0340 H         1 UNK         0.0600 
    148 H148        2.5556  -20.6635  -43.5926 H         1 UNK         0.0600 
    149 H149        0.7335  -20.6110  -41.9449 H         1 UNK         0.3000 
    150 H150       -2.2579  -20.1597  -41.4882 H         1 UNK         0.0600 
    151 H151       -3.1999  -21.9908  -40.1703 H         1 UNK         0.0600 
    152 H152       -2.8404  -20.6492  -39.0959 H         1 UNK         0.0600 
    153 H153       -1.7828  -22.0607  -39.1369 H         1 UNK         0.0600 
    154 H154       -0.7048  -18.8087  -40.7391 H         1 UNK         0.3000 
    155 H155        1.5013  -18.6712  -38.1339 H         1 UNK         0.0600 
    156 H156        3.1336  -19.9227  -39.5466 H         1 UNK         0.0600 
    157 H157        3.3960  -18.1914  -39.6765 H         1 UNK         0.0600 
    158 H158        2.5833  -19.0593  -40.9775 H         1 UNK         0.0600 
    159 H159        1.2445  -17.0606  -40.5144 H         1 UNK         0.3000 
    160 H160       -1.5506  -15.1496  -39.3229 H         1 UNK         0.0600 
    161 H161        1.3935  -14.4909  -39.8690 H         1 UNK         0.0600 
    162 H162        0.0545  -13.3471  -39.9281 H         1 UNK         0.0600 
    163 H163        0.5060  -14.0960  -38.4033 H         1 UNK         0.0600 
    164 H164       -0.1401  -15.0486  -41.7893 H         1 UNK         0.3000 
    165 H165       -2.0876  -17.4767  -43.5383 H         1 UNK         0.0600 
    166 H166       -2.3292  -15.5718  -45.0881 H         1 UNK         0.0600 
    167 H167       -3.3769  -15.3764  -43.6936 H         1 UNK         0.0600 
    168 H168       -1.8994  -14.4345  -43.8114 H         1 UNK         0.0600 
    169 H169        0.2191  -15.7417  -44.0646 H         1 UNK         0.3000 
    170 H170        2.6367  -18.2143  -43.3460 H         1 UNK         0.0600 
    171 H171        1.9568  -19.0949  -45.5593 H         1 UNK         0.0600 
    172 H172        1.7081  -17.4665  -46.1650 H         1 UNK         0.0600 
    173 H173        3.3275  -18.0088  -45.7304 H         1 UNK         0.0600 
    174 H174        2.6715  -15.6603  -44.7180 H         1 UNK         0.3000 
    175 H175        2.9598  -13.7132  -41.7329 H         1 UNK         0.0600 
    176 H176        5.1322  -14.4415  -43.7685 H         1 UNK         0.0600 
    177 H177        5.1057  -13.0000  -42.7526 H         1 UNK         0.0600 
    178 H178        5.2761  -14.5881  -42.0224 H         1 UNK         0.0600 
    179 H179        3.2268  -12.9216  -44.4199 H         1 UNK         0.3000 
    180 H180        0.0219  -11.6615  -44.6506 H         1 UNK         0.0600 
    181 H181        2.3669  -10.7762  -44.9230 H         1 UNK         0.0600 
    182 H182        2.6816  -12.0008  -46.1569 H         1 UNK         0.0600 
    183 H183        1.4713  -10.7581  -46.4314 H         1 UNK         0.0600 
    184 H184        0.8645  -13.9833  -46.3176 H         1 UNK         0.3000 
    185 H185       -1.9041  -14.7790  -47.3272 H         1 UNK         0.0600 
    186 H186       -2.9741  -13.0093  -48.6466 H         1 UNK         0.0600 
    187 H187       -1.4730  -12.6579  -49.4905 H         1 UNK         0.0600 
    188 H188       -2.2873  -14.2015  -49.7344 H         1 UNK         0.0600 
    189 H189       -0.1479  -15.8309  -48.0921 H         1 UNK         0.3000 
    190 H190       -2.6206  -21.6694  -44.2967 H         1 UNK         0.3000 
    191 H191       -4.6169  -22.9504  -45.9521 H         1 UNK         0.0600 
    192 H192       -5.6173  -23.5615  -43.7551 H         1 UNK         0.0600 
    193 H193       -5.2076  -21.8541  -43.8029 H         1 UNK         0.0600 
    194 H194       -4.1848  -22.9830  -42.9151 H         1 UNK         0.0600 
    195 H195       -1.9056  -24.0560  -43.8923 H         1 UNK         0.3000 
    196 H196       -2.3769  -26.8394  -44.0983 H         1 UNK         0.0600 
    197 H197       -0.0659  -27.0507  -43.2501 H         1 UNK         0.0600 
    198 H198       -0.8969  -25.7632  -42.3885 H         1 UNK         0.0600 
    199 H199        0.2749  -25.3735  -43.6473 H         1 UNK         0.0600 
    200 H200       -0.3220  -24.6719  -46.1030 H         1 UNK         0.3000 
    201 H201        0.4882  -26.7910  -47.9320 H         1 UNK         0.0600 
    202 H202        0.7656  -23.7409  -48.1017 H         1 UNK         0.0600 
    203 H203        1.6129  -24.9122  -49.1046 H         1 UNK         0.0600 
    204 H204        1.9472  -24.8329  -47.3815 H         1 UNK         0.0600 
    205 H205       -2.3264  -24.8669  -47.6447 H         1 UNK         0.3000 
    206 H206       -4.0475  -24.2419  -48.8914 H         1 UNK         0.0600 
    207 H207       -3.3559  -26.6234  -50.6988 H         1 UNK         0.0600 
    208 H208       -4.3377  -26.7008  -49.2364 H         1 UNK         0.0600 
    209 H209       -4.9013  -25.7875  -50.6272 H         1 UNK         0.0600 
    210 H210       -1.9318  -22.7228  -49.2054 H         1 UNK         0.3000 
    211 H211       -0.7871  -21.2074  -50.3427 H         1 UNK         0.0600 
    212 H212       -2.8737  -21.4623  -52.5693 H         1 UNK         0.0600 
    213 H213       -1.8696  -20.0671  -52.2296 H         1 UNK         0.0600 
    214 H214       -3.1228  -20.5300  -51.0900 H         1 UNK         0.0600 
    215 H215       -0.4816  -24.2462  -51.1617 H         1 UNK         0.3000 
    216 H216        0.6787  -25.5706  -52.4653 H         1 UNK         0.0600 
    217 H217        2.2082  -23.1671  -53.5889 H         1 UNK         0.0600 
    218 H218        2.6755  -24.8567  -53.6805 H         1 UNK         0.0600 
    219 H219        2.6449  -24.0455  -52.1231 H         1 UNK         0.0600 
    220 H220       -1.8349  -24.6850  -53.1245 H         1 UNK         0.3000 
    221 H221       -3.4266  -25.0490  -54.5690 H         1 UNK         0.0600 
    222 H222       -1.4528  -25.4124  -56.8853 H         1 UNK         0.0600 
    223 H223       -2.0169  -26.7228  -55.8469 H         1 UNK         0.0600 
    224 H224       -3.1511  -25.8457  -56.8593 H         1 UNK         0.0600 
    225 H225       -4.5687  -23.9305  -56.3375 H         1 UNK         0.3000 
    226 H226       -5.4802  -22.1019  -57.1740 H         1 UNK         0.0600 
    227 H227       -3.5301  -22.1636  -58.7329 H         1 UNK         0.0600 
    228 H228       -4.1009  -20.5250  -58.4629 H         1 UNK         0.0600 
    229 H229       -2.6356  -21.0802  -57.6681 H         1 UNK         0.0600 
    230 H230       -5.5743  -22.1757  -54.5100 H         1 UNK         0.3000 
    231 H231       -4.6464  -19.8619  -53.1333 H         1 UNK         0.0600 
    232 H232       -6.9156  -21.8084  -52.4383 H         1 UNK         0.0600 
    233 H233       -5.2165  -22.0400  -52.0317 H         1 UNK         0.0600 
    234 H234       -6.1160  -20.7139  -51.3159 H         1 UNK         0.0600 
    235 H235       -7.2497  -20.1446  -55.3298 H         1 UNK         0.3000 
    236 H236       -8.9217  -17.9864  -54.2821 H         1 UNK         0.0600 
    237 H237       -9.9236  -19.8633  -55.5526 H         1 UNK         0.0600 
    238 H238      -10.1667  -18.3492  -56.4074 H         1 UNK         0.0600 
    239 H239       -8.9337  -19.4775  -56.9599 H         1 UNK         0.0600 
    240 H240       -6.7143  -16.7874  -54.0968 H         1 UNK         0.3000 
    241 H241       -5.4643  -15.6185  -56.3307 H         1 UNK         0.0600 
    242 H242       -5.6538  -13.5608  -57.4023 H         1 UNK         0.3800 
    243 H243       -7.0431  -12.5393  -57.1679 H         1 UNK         0.3800 
    244 H244       -5.5905  -14.5620  -53.4583 H         1 UNK         0.0800 
    245 H245       -4.4462  -14.0431  -54.6750 H         1 UNK         0.0800 
    246 H246       -2.4081  -14.5792  -52.9715 H         1 UNK         0.0800 
    247 H247       -3.6619  -14.9876  -51.8232 H         1 UNK         0.0800 
@<TRIPOS>BOND
     1    1    2 1    
     2    1  127 1    
     3    1  128 1    
     4    1  129 1    
     5    2    3 2    
     6    2    4 am   BACKBONE|DICT|INTERRES
     7    4    5 1    
     8    4  130 1    
     9    5    6 1    
    10    5   65 1    
    11    5  131 1    
    12    6    7 1    
    13    6  132 1    
    14    6  133 1    
    15    7    8 1    
    16    8    9 1    
    17    8  134 1    
    18    8  135 1    
    19    9   10 ar   
    20    9   14 ar   
    21   10   11 ar   
    22   10  136 1    
    23   11   12 ar   
    24   11  126 1    
    25   12   13 ar   
    26   12  137 1    
    27   13   14 ar   
    28   13   15 1    
    29   14  138 1    
    30   15   16 1    
    31   15  139 1    
    32   15  140 1    
    33   16   17 1    
    34   17   18 1    
    35   17  141 1    
    36   17  142 1    
    37   18   19 1    
    38   18   67 1    
    39   18  143 1    
    40   19   20 am   BACKBONE|DICT|INTERRES
    41   19  144 1    
    42   20   21 2    
    43   20   22 1    
    44   22   23 1    
    45   22   24 1    
    46   22  145 1    
    47   23  146 1    
    48   23  147 1    
    49   23  148 1    
    50   24   25 am   BACKBONE|DICT|INTERRES
    51   24  149 1    
    52   25   26 2    
    53   25   27 1    
    54   27   28 1    
    55   27   29 1    
    56   27  150 1    
    57   28  151 1    
    58   28  152 1    
    59   28  153 1    
    60   29   30 am   BACKBONE|DICT|INTERRES
    61   29  154 1    
    62   30   31 2    
    63   30   32 1    
    64   32   33 1    
    65   32   34 1    
    66   32  155 1    
    67   33  156 1    
    68   33  157 1    
    69   33  158 1    
    70   34   35 am   BACKBONE|DICT|INTERRES
    71   34  159 1    
    72   35   36 2    
    73   35   37 1    
    74   37   38 1    
    75   37   39 1    
    76   37  160 1    
    77   38  161 1    
    78   38  162 1    
    79   38  163 1    
    80   39   40 am   BACKBONE|DICT|INTERRES
    81   39  164 1    
    82   40   41 2    
    83   40   42 1    
    84   42   43 1    
    85   42   44 1    
    86   42  165 1    
    87   43  166 1    
    88   43  167 1    
    89   43  168 1    
    90   44   45 am   BACKBONE|DICT|INTERRES
    91   44  169 1    
    92   45   46 2    
    93   45   47 1    
    94   47   48 1    
    95   47   49 1    
    96   47  170 1    
    97   48  171 1    
    98   48  172 1    
    99   48  173 1    
   100   49   50 am   BACKBONE|DICT|INTERRES
   101   49  174 1    
   102   50   51 2    
   103   50   52 1    
   104   52   53 1    
   105   52   54 1    
   106   52  175 1    
   107   53  176 1    
   108   53  177 1    
   109   53  178 1    
   110   54   55 am   BACKBONE|DICT|INTERRES
   111   54  179 1    
   112   55   56 2    
   113   55   57 1    
   114   57   58 1    
   115   57   59 1    
   116   57  180 1    
   117   58  181 1    
   118   58  182 1    
   119   58  183 1    
   120   59   60 am   BACKBONE|DICT|INTERRES
   121   59  184 1    
   122   60   61 2    
   123   60   62 1    
   124   62   63 1    
   125   62   64 1    
   126   62  185 1    
   127   63  186 1    
   128   63  187 1    
   129   63  188 1    
   130   64   65 am   BACKBONE|DICT|INTERRES
   131   64  189 1    
   132   65   66 2    
   133   67   68 2    
   134   67   69 am   BACKBONE|DICT|INTERRES
   135   69   70 1    
   136   69  190 1    
   137   70   71 1    
   138   70   72 1    
   139   70  191 1    
   140   71  192 1    
   141   71  193 1    
   142   71  194 1    
   143   72   73 2    
   144   72   74 am   BACKBONE|DICT|INTERRES
   145   74   75 1    
   146   74  195 1    
   147   75   76 1    
   148   75   77 1    
   149   75  196 1    
   150   76  197 1    
   151   76  198 1    
   152   76  199 1    
   153   77   78 2    
   154   77   79 am   BACKBONE|DICT|INTERRES
   155   79   80 1    
   156   79  200 1    
   157   80   81 1    
   158   80   82 1    
   159   80  201 1    
   160   81  202 1    
   161   81  203 1    
   162   81  204 1    
   163   82   83 2    
   164   82   84 am   BACKBONE|DICT|INTERRES
   165   84   85 1    
   166   84  205 1    
   167   85   86 1    
   168   85   87 1    
   169   85  206 1    
   170   86  207 1    
   171   86  208 1    
   172   86  209 1    
   173   87   88 2    
   174   87   89 am   BACKBONE|DICT|INTERRES
   175   89   90 1    
   176   89  210 1    
   177   90   91 1    
   178   90   92 1    
   179   90  211 1    
   180   91  212 1    
   181   91  213 1    
   182   91  214 1    
   183   92   93 2    
   184   92   94 am   BACKBONE|DICT|INTERRES
   185   94   95 1    
   186   94  215 1    
   187   95   96 1    
   188   95   97 1    
   189   95  216 1    
   190   96  217 1    
   191   96  218 1    
   192   96  219 1    
   193   97   98 2    
   194   97   99 am   BACKBONE|DICT|INTERRES
   195   99  100 1    
   196   99  220 1    
   197  100  101 1    
   198  100  102 1    
   199  100  221 1    
   200  101  222 1    
   201  101  223 1    
   202  101  224 1    
   203  102  103 2    
   204  102  104 am   BACKBONE|DICT|INTERRES
   205  104  105 1    
   206  104  225 1    
   207  105  106 1    
   208  105  107 1    
   209  105  226 1    
   210  106  227 1    
   211  106  228 1    
   212  106  229 1    
   213  107  108 2    
   214  107  109 am   BACKBONE|DICT|INTERRES
   215  109  110 1    
   216  109  230 1    
   217  110  111 1    
   218  110  112 1    
   219  110  231 1    
   220  111  232 1    
   221  111  233 1    
   222  111  234 1    
   223  112  113 2    
   224  112  114 am   BACKBONE|DICT|INTERRES
   225  114  115 1    
   226  114  235 1    
   227  115  116 1    
   228  115  117 1    
   229  115  236 1    
   230  116  237 1    
   231  116  238 1    
   232  116  239 1    
   233  117  118 2    
   234  117  119 am   BACKBONE|DICT|INTERRES
   235  119  120 1    
   236  119  240 1    
   237  120  121 1    
   238  120  124 1    
   239  120  241 1    
   240  121  122 am   BACKBONE|DICT|INTERRES
   241  121  123 2    
   242  122  242 1    
   243  122  243 1    
   244  124  125 1    
   245  124  244 1    
   246  124  245 1    
   247  125  126 1    
   248  126  246 1    
   249  126  247 1    
@<TRIPOS>SUBSTRUCTURE
     1 UNK         1 GROUP             0       ****    0 ROOT    
