@<TRIPOS>MOLECULE
3R540
247   249    1
SMALL
USER_CHARGES


@<TRIPOS>ATOM
      1 CA          2.8594  -12.5878  -52.3592 C.3       0 UNK        -0.1800 
      2 C           2.8867  -12.3763  -50.8519 C.2       0 UNK         0.5000 
      3 O           2.9427  -11.2331  -50.3989 O.2       0 UNK        -0.5000 
      4 N           2.8479  -13.4752  -50.0850 N.am      1 UNK        -0.5000 
      5 CA          2.8583  -13.5206  -48.6153 C.3       1 UNK         0.1400 
      6 C6          1.5966  -12.9018  -47.9472 C.3       23 UNK        -0.0398 
      7 S7          0.0173  -13.5525  -48.5906 S.3       23 UNK        -0.2404 
      8 C8         -0.0591  -15.1888  -47.7957 C.3       23 UNK        -0.0205 
      9 C9         -1.3188  -15.9435  -48.1937 C.ar      23 UNK        -0.0193 
     10 C10        -1.5130  -16.3248  -49.5237 C.ar      23 UNK        -0.1150 
     11 C11        -2.6782  -16.9903  -49.9151 C.ar      23 UNK        -0.0193 
     12 C12        -3.6477  -17.2964  -48.9533 C.ar      23 UNK        -0.1150 
     13 C13        -3.4705  -16.9136  -47.6187 C.ar      23 UNK        -0.0193 
     14 C14        -2.3011  -16.2426  -47.2456 C.ar      23 UNK        -0.1150 
     15 C15        -4.5761  -17.1395  -46.5952 C.3       23 UNK        -0.0205 
     16 S16        -4.1605  -18.4095  -45.3592 S.3       23 UNK        -0.2404 
     17 C17        -4.4506  -19.9610  -46.2723 C.3       23 UNK        -0.0398 
     18 CA         -3.1627  -20.7998  -46.4390 C.3       11 UNK         0.1400 
     19 N          -2.5215  -21.1219  -45.1551 N.am      11 UNK        -0.5000 
     20 C          -1.3456  -21.7522  -45.0207 C.2       10 UNK         0.5000 
     21 O          -0.7091  -22.1945  -45.9787 O.2       10 UNK        -0.5000 
     22 CA         -0.8104  -21.9383  -43.5911 C.3       10 UNK         0.1400 
     23 CB          0.7152  -22.1432  -43.5493 C.3       10 UNK        -0.1800 
     24 N          -1.1657  -20.7998  -42.7472 N.am      10 UNK        -0.5000 
     25 C          -1.5579  -20.8766  -41.4678 C.2       9 UNK         0.5000 
     26 O          -1.7668  -21.9439  -40.8890 O.2       9 UNK        -0.5000 
     27 CA         -1.7387  -19.5562  -40.6896 C.3       9 UNK         0.1400 
     28 CB         -0.8917  -19.5506  -39.4053 C.3       9 UNK        -0.1800 
     29 N          -1.3623  -18.3961  -41.4962 N.am      9 UNK        -0.5000 
     30 C          -2.2206  -17.5577  -42.0907 C.2       8 UNK         0.5000 
     31 O          -3.4409  -17.6147  -41.9377 O.2       8 UNK        -0.5000 
     32 CA         -1.6282  -16.4765  -43.0197 C.3       8 UNK         0.1400 
     33 CB         -1.7247  -15.0916  -42.3630 C.3       8 UNK        -0.1800 
     34 N          -0.2394  -16.7290  -43.4226 N.am      8 UNK        -0.5000 
     35 C           0.1418  -17.7311  -44.2283 C.2       7 UNK         0.5000 
     36 O          -0.6452  -18.5319  -44.7268 O.2       7 UNK        -0.5000 
     37 CA          1.6495  -17.9277  -44.4645 C.3       7 UNK         0.1400 
     38 CB          2.1346  -17.1011  -45.6625 C.3       7 UNK        -0.1800 
     39 N           2.4806  -17.6338  -43.2970 N.am      7 UNK        -0.5000 
     40 C           2.4297  -18.2934  -42.1309 C.2       6 UNK         0.5000 
     41 O           1.5915  -19.1550  -41.8696 O.2       6 UNK        -0.5000 
     42 CA          3.4839  -17.9180  -41.0789 C.3       6 UNK         0.1400 
     43 CB          4.8565  -18.5007  -41.4517 C.3       6 UNK        -0.1800 
     44 N           3.5901  -16.4675  -40.9551 N.am      6 UNK        -0.5000 
     45 C           2.9089  -15.7322  -40.0670 C.2       5 UNK         0.5000 
     46 O           2.1904  -16.2096  -39.1881 O.2       5 UNK        -0.5000 
     47 CA          3.0371  -14.1997  -40.1848 C.3       5 UNK         0.1400 
     48 CB          4.1551  -13.6820  -39.2673 C.3       5 UNK        -0.1800 
     49 N           3.2827  -13.7264  -41.5495 N.am      5 UNK        -0.5000 
     50 C           2.4426  -13.8935  -42.5800 C.2       4 UNK         0.5000 
     51 O           1.3663  -14.4825  -42.5005 O.2       4 UNK        -0.5000 
     52 CA          2.9020  -13.3536  -43.9450 C.3       4 UNK         0.1400 
     53 CB          2.5565  -11.8606  -44.0564 C.3       4 UNK        -0.1800 
     54 N           4.3240  -13.5542  -44.2537 N.am      4 UNK        -0.5000 
     55 C           5.0141  -14.7003  -44.1458 C.2       3 UNK         0.5000 
     56 O           4.5461  -15.7409  -43.6810 O.2       3 UNK        -0.5000 
     57 CA          6.4471  -14.6796  -44.7000 C.3       3 UNK         0.1400 
     58 CB          7.1672  -16.0325  -44.5500 C.3       3 UNK        -0.1800 
     59 N           6.3790  -14.3248  -46.1142 N.am      3 UNK        -0.5000 
     60 C           7.0196  -13.3065  -46.6995 C.2       2 UNK         0.5000 
     61 O           7.8378  -12.5878  -46.1245 O.2       2 UNK        -0.5000 
     62 CA          6.6642  -13.0247  -48.1750 C.3       2 UNK         0.1400 
     63 CB          7.6796  -13.6985  -49.1105 C.3       2 UNK        -0.1800 
     64 N           5.3100  -13.4455  -48.5576 N.am      2 UNK        -0.5000 
     65 C           4.1751  -12.9478  -48.0430 C.2       1 UNK         0.5000 
     66 O           4.1527  -12.0797  -47.1699 O.2       1 UNK        -0.5000 
     67 C          -3.4546  -22.0532  -47.2913 C.2       11 UNK         0.5000 
     68 O          -3.3668  -21.9825  -48.5141 O.2       11 UNK        -0.5000 
     69 N          -3.7439  -23.1832  -46.6288 N.am      12 UNK        -0.5000 
     70 CA         -3.9625  -24.4918  -47.2494 C.3       12 UNK         0.1400 
     71 CB         -4.7066  -25.3946  -46.2537 C.3       12 UNK        -0.1800 
     72 C          -2.6764  -25.1775  -47.7570 C.2       12 UNK         0.5000 
     73 O          -2.7792  -26.1673  -48.4840 O.2       12 UNK        -0.5000 
     74 N          -1.5024  -24.6610  -47.3682 N.am      13 UNK        -0.5000 
     75 CA         -0.2027  -25.0628  -47.9030 C.3       13 UNK         0.1400 
     76 CB          0.8150  -25.1766  -46.7570 C.3       13 UNK        -0.1800 
     77 C           0.2780  -24.0565  -48.9627 C.2       13 UNK         0.5000 
     78 O           0.8522  -24.4745  -49.9687 O.2       13 UNK        -0.5000 
     79 N           0.0302  -22.7570  -48.7296 N.am      14 UNK        -0.5000 
     80 CA          0.3546  -21.6608  -49.6470 C.3       14 UNK         0.1400 
     81 CB          0.0874  -20.3129  -48.9565 C.3       14 UNK        -0.1800 
     82 C          -0.4178  -21.7543  -50.9762 C.2       14 UNK         0.5000 
     83 O           0.1825  -21.6098  -52.0421 O.2       14 UNK        -0.5000 
     84 N          -1.7215  -22.0331  -50.8811 N.am      15 UNK        -0.5000 
     85 CA         -2.6111  -22.3233  -51.9943 C.3       15 UNK         0.1400 
     86 CB         -3.8345  -21.4034  -51.8946 C.3       15 UNK        -0.1800 
     87 C          -3.0484  -23.7858  -51.8729 C.2       15 UNK         0.5000 
     88 O          -3.4419  -24.2031  -50.7829 O.2       15 UNK        -0.5000 
     89 N          -3.0022  -24.5295  -52.9859 N.am      16 UNK        -0.5000 
     90 CA         -3.3870  -25.9404  -53.0785 C.3       16 UNK         0.1400 
     91 CB         -3.1930  -26.4234  -54.5248 C.3       16 UNK        -0.1800 
     92 C          -4.8295  -26.1855  -52.5939 C.2       16 UNK         0.5000 
     93 O          -5.7785  -25.7698  -53.2627 O.2       16 UNK        -0.5000 
     94 N          -4.9461  -26.7966  -51.4053 N.am      17 UNK        -0.5000 
     95 CA         -6.1810  -27.0643  -50.6588 C.3       17 UNK         0.1400 
     96 CB         -7.0392  -28.1152  -51.3937 C.3       17 UNK        -0.1800 
     97 C          -6.9790  -25.7889  -50.3046 C.2       17 UNK         0.5000 
     98 O          -8.2024  -25.8518  -50.1729 O.2       17 UNK        -0.5000 
     99 N          -6.2801  -24.6484  -50.1886 N.am      18 UNK        -0.5000 
    100 CA        -6.7606  -23.2807  -49.9464 C.3       18 UNK         0.1400 
    101 CB        -7.5320  -23.1696  -48.6178 C.3       18 UNK        -0.1800 
    102 C         -7.5663  -22.6760  -51.1157 C.2       18 UNK         0.5000 
    103 O         -7.3503  -21.5149  -51.4659 O.2       18 UNK        -0.5000 
    104 N         -8.4590  -23.4756  -51.7123 N.am      19 UNK        -0.5000 
    105 CA        -9.4017  -23.1224  -52.7766 C.3       19 UNK         0.1400 
    106 CB       -10.2699  -24.3516  -53.0856 C.3       19 UNK        -0.1800 
    107 C         -8.7628  -22.5804  -54.0700 C.2       19 UNK         0.5000 
    108 O         -9.4316  -21.8585  -54.8105 O.2       19 UNK        -0.5000 
    109 N         -7.4878  -22.9136  -54.3162 N.am      20 UNK        -0.5000 
    110 CA        -6.6960  -22.4025  -55.4376 C.3       20 UNK         0.1400 
    111 CB        -5.3985  -23.2164  -55.5415 C.3       20 UNK        -0.1800 
    112 C         -6.3772  -20.8946  -55.3471 C.2       20 UNK         0.5000 
    113 O         -6.0228  -20.2997  -56.3663 O.2       20 UNK        -0.5000 
    114 N         -6.4779  -20.3095  -54.1405 N.am      21 UNK        -0.5000 
    115 CA        -6.3002  -18.8843  -53.8235 C.3       21 UNK         0.1400 
    116 CB        -7.4915  -18.0732  -54.3720 C.3       21 UNK        -0.1800 
    117 C         -4.9357  -18.2979  -54.2557 C.2       21 UNK         0.5000 
    118 O         -4.8423  -17.1068  -54.5554 O.2       21 UNK        -0.5000 
    119 N         -3.9079  -19.1568  -54.2823 N.am      22 UNK        -0.5000 
    120 CA        -2.5394  -18.8905  -54.7581 C.3       22 UNK         0.1400 
    121 C         -2.4383  -18.6462  -56.2974 C.2       22 UNK         0.5000 
    122 N         -3.4441  -18.9874  -57.0961 N.am      22 UNK        -0.7600 
    123 O         -1.4177  -18.1711  -56.7883 O.2       22 UNK        -0.5000 
    124 C124       -1.7903  -17.8098  -53.9251 C.3       23 UNK        -0.0398 
    125 S125       -1.5879  -18.2474  -52.1609 S.3       23 UNK        -0.2404 
    126 C126       -2.9282  -17.2836  -51.3890 C.3       23 UNK        -0.0205 
    127 H127        3.7591  -12.1718  -52.8128 H         1 UNK         0.0600 
    128 H128        1.9943  -12.0858  -52.7923 H         1 UNK         0.0600 
    129 H129        2.8044  -13.6449  -52.6206 H         1 UNK         0.0600 
    130 H130        2.7958  -14.3759  -50.5397 H         1 UNK         0.3000 
    131 H131        2.8711  -14.5791  -48.3531 H         1 UNK         0.0600 
    132 H132        1.6167  -13.0619  -46.8689 H         1 UNK         0.0800 
    133 H133        1.5862  -11.8197  -48.0878 H         1 UNK         0.0800 
    134 H134       -0.0065  -15.0685  -46.7125 H         1 UNK         0.0800 
    135 H135        0.8085  -15.7757  -48.0962 H         1 UNK         0.0800 
    136 H136       -0.7671  -16.0720  -50.2643 H         1 UNK         0.1150 
    137 H137       -4.5615  -17.7907  -49.2516 H         1 UNK         0.1150 
    138 H138       -2.1674  -15.9354  -46.2186 H         1 UNK         0.1150 
    139 H139       -4.7604  -16.2008  -46.0709 H         1 UNK         0.0800 
    140 H140       -5.5172  -17.3962  -47.0839 H         1 UNK         0.0800 
    141 H141       -4.8787  -19.7268  -47.2489 H         1 UNK         0.0800 
    142 H142       -5.2120  -20.5295  -45.7355 H         1 UNK         0.0800 
    143 H143       -2.4493  -20.1923  -46.9982 H         1 UNK         0.0600 
    144 H144       -2.9723  -20.7586  -44.3282 H         1 UNK         0.3000 
    145 H145       -1.2859  -22.8450  -43.2123 H         1 UNK         0.0600 
    146 H146        1.0680  -22.2734  -42.5262 H         1 UNK         0.0600 
    147 H147        1.0111  -23.0311  -44.1083 H         1 UNK         0.0600 
    148 H148        1.2433  -21.2904  -43.9768 H         1 UNK         0.0600 
    149 H149       -1.0435  -19.8888  -43.1767 H         1 UNK         0.3000 
    150 H150       -2.7894  -19.4964  -40.3999 H         1 UNK         0.0600 
    151 H151       -1.1809  -20.3648  -38.7398 H         1 UNK         0.0600 
    152 H152       -1.0211  -18.6200  -38.8524 H         1 UNK         0.0600 
    153 H153        0.1708  -19.6657  -39.6215 H         1 UNK         0.0600 
    154 H154       -0.3712  -18.3019  -41.6868 H         1 UNK         0.3000 
    155 H155       -2.2417  -16.4627  -43.9218 H         1 UNK         0.0600 
    156 H156       -1.1255  -15.0376  -41.4532 H         1 UNK         0.0600 
    157 H157       -2.7548  -14.8559  -42.0929 H         1 UNK         0.0600 
    158 H158       -1.3808  -14.3094  -43.0400 H         1 UNK         0.0600 
    159 H159        0.4605  -16.0941  -43.0466 H         1 UNK         0.3000 
    160 H160        1.8023  -18.9811  -44.7076 H         1 UNK         0.0600 
    161 H161        1.9817  -16.0347  -45.5039 H         1 UNK         0.0600 
    162 H162        1.5967  -17.3878  -46.5662 H         1 UNK         0.0600 
    163 H163        3.1957  -17.2638  -45.8523 H         1 UNK         0.0600 
    164 H164        3.2095  -16.9358  -43.4275 H         1 UNK         0.3000 
    165 H165        3.1818  -18.3570  -40.1256 H         1 UNK         0.0600 
    166 H166        5.5979  -18.2787  -40.6842 H         1 UNK         0.0600 
    167 H167        4.8050  -19.5857  -41.5504 H         1 UNK         0.0600 
    168 H168        5.2262  -18.1021  -42.3973 H         1 UNK         0.0600 
    169 H169        4.1098  -15.9922  -41.6837 H         1 UNK         0.3000 
    170 H170        2.0918  -13.7675  -39.8500 H         1 UNK         0.0600 
    171 H171        3.9901  -13.9947  -38.2353 H         1 UNK         0.0600 
    172 H172        5.1322  -14.0589  -39.5723 H         1 UNK         0.0600 
    173 H173        4.1976  -12.5927  -39.2720 H         1 UNK         0.0600 
    174 H174        4.1539  -13.2441  -41.7146 H         1 UNK         0.3000 
    175 H175        2.3329  -13.8865  -44.7068 H         1 UNK         0.0600 
    176 H176        3.1448  -11.2591  -43.3625 H         1 UNK         0.0600 
    177 H177        2.7355  -11.4811  -45.0613 H         1 UNK         0.0600 
    178 H178        1.5034  -11.6844  -43.8324 H         1 UNK         0.0600 
    179 H179        4.7878  -12.7687  -44.6890 H         1 UNK         0.3000 
    180 H180        7.0004  -13.9289  -44.1324 H         1 UNK         0.0600 
    181 H181        6.6476  -16.8283  -45.0852 H         1 UNK         0.0600 
    182 H182        7.2317  -16.3274  -43.5019 H         1 UNK         0.0600 
    183 H183        8.1852  -15.9795  -44.9362 H         1 UNK         0.0600 
    184 H184        5.7128  -14.8445  -46.6671 H         1 UNK         0.3000 
    185 H185        6.7286  -11.9448  -48.3231 H         1 UNK         0.0600 
    186 H186        8.6974  -13.3857  -48.8732 H         1 UNK         0.0600 
    187 H187        7.6429  -14.7855  -49.0282 H         1 UNK         0.0600 
    188 H188        7.4946  -13.4329  -50.1515 H         1 UNK         0.0600 
    189 H189        5.2452  -14.1379  -49.2898 H         1 UNK         0.3000 
    190 H190       -3.7813  -23.1507  -45.6205 H         1 UNK         0.3000 
    191 H191       -4.6021  -24.3474  -48.1190 H         1 UNK         0.0600 
    192 H192       -4.1151  -25.5748  -45.3553 H         1 UNK         0.0600 
    193 H193       -4.9332  -26.3645  -46.6985 H         1 UNK         0.0600 
    194 H194       -5.6547  -24.9505  -45.9501 H         1 UNK         0.0600 
    195 H195       -1.5007  -23.8403  -46.7742 H         1 UNK         0.3000 
    196 H196       -0.2757  -26.0420  -48.3806 H         1 UNK         0.0600 
    197 H197        1.7771  -25.5319  -47.1277 H         1 UNK         0.0600 
    198 H198        0.4771  -25.8829  -45.9986 H         1 UNK         0.0600 
    199 H199        0.9887  -24.2179  -46.2689 H         1 UNK         0.0600 
    200 H200       -0.3804  -22.4945  -47.8392 H         1 UNK         0.3000 
    201 H201        1.4213  -21.7225  -49.8716 H         1 UNK         0.0600 
    202 H202        0.6159  -20.2377  -48.0057 H         1 UNK         0.0600 
    203 H203       -0.9747  -20.1637  -48.7639 H         1 UNK         0.0600 
    204 H204        0.4190  -19.4836  -49.5827 H         1 UNK         0.0600 
    205 H205       -2.1408  -22.1619  -49.9628 H         1 UNK         0.3000 
    206 H206       -2.1153  -22.1607  -52.9533 H         1 UNK         0.0600 
    207 H207       -3.5451  -20.3576  -51.9509 H         1 UNK         0.0600 
    208 H208       -4.5476  -21.6094  -52.6906 H         1 UNK         0.0600 
    209 H209       -4.3557  -21.5268  -50.9482 H         1 UNK         0.0600 
    210 H210       -2.6755  -24.1072  -53.8420 H         1 UNK         0.3000 
    211 H211       -2.7040  -26.5084  -52.4434 H         1 UNK         0.0600 
    212 H212       -3.8021  -25.8546  -55.2276 H         1 UNK         0.0600 
    213 H213       -3.4717  -27.4731  -54.6253 H         1 UNK         0.0600 
    214 H214       -2.1518  -26.3337  -54.8348 H         1 UNK         0.0600 
    215 H215       -4.0940  -27.0209  -50.9082 H         1 UNK         0.3000 
    216 H216       -5.8717  -27.4967  -49.7063 H         1 UNK         0.0600 
    217 H217       -7.8828  -28.4324  -50.7797 H         1 UNK         0.0600 
    218 H218       -6.4572  -29.0069  -51.6265 H         1 UNK         0.0600 
    219 H219       -7.4439  -27.7251  -52.3282 H         1 UNK         0.0600 
    220 H220       -5.2799  -24.7045  -50.3668 H         1 UNK         0.3000 
    221 H221       -5.8618  -22.6769  -49.8342 H         1 UNK         0.0600 
    222 H222       -8.4729  -23.7194  -48.6410 H         1 UNK         0.0600 
    223 H223       -6.9419  -23.5488  -47.7840 H         1 UNK         0.0600 
    224 H224       -7.7713  -22.1287  -48.3973 H         1 UNK         0.0600 
    225 H225       -8.5460  -24.4133  -51.3294 H         1 UNK         0.3000 
    226 H226      -10.0488  -22.3350  -52.3854 H         1 UNK         0.0600 
    227 H227      -10.8126  -24.6843  -52.2006 H         1 UNK         0.0600 
    228 H228      -11.0104  -24.1275  -53.8547 H         1 UNK         0.0600 
    229 H229       -9.6662  -25.1874  -53.4423 H         1 UNK         0.0600 
    230 H230       -7.0253  -23.5501  -53.6807 H         1 UNK         0.3000 
    231 H231       -7.2688  -22.5568  -56.3543 H         1 UNK         0.0600 
    232 H232       -5.6129  -24.2723  -55.7064 H         1 UNK         0.0600 
    233 H233       -4.8006  -23.1330  -54.6351 H         1 UNK         0.0600 
    234 H234       -4.7839  -22.8764  -56.3761 H         1 UNK         0.0600 
    235 H235       -6.7752  -20.8838  -53.3579 H         1 UNK         0.3000 
    236 H236       -6.3252  -18.8129  -52.7352 H         1 UNK         0.0600 
    237 H237       -7.4995  -18.0576  -55.4624 H         1 UNK         0.0600 
    238 H238       -8.4402  -18.4924  -54.0364 H         1 UNK         0.0600 
    239 H239       -7.4563  -17.0387  -54.0285 H         1 UNK         0.0600 
    240 H240       -4.1000  -20.1135  -54.0315 H         1 UNK         0.3000 
    241 H241       -2.0020  -19.8272  -54.6066 H         1 UNK         0.0600 
    242 H242       -3.3570  -18.8333  -58.0879 H         1 UNK         0.3800 
    243 H243       -4.3014  -19.3885  -56.7288 H         1 UNK         0.3800 
    244 H244       -2.2736  -16.8376  -54.0232 H         1 UNK         0.0800 
    245 H245       -0.7812  -17.6714  -54.3158 H         1 UNK         0.0800 
    246 H246       -3.8666  -17.8229  -51.5193 H         1 UNK         0.0800 
    247 H247       -3.0438  -16.3299  -51.9050 H         1 UNK         0.0800 
@<TRIPOS>BOND
     1    1    2 1    
     2    1  127 1    
     3    1  128 1    
     4    1  129 1    
     5    2    3 2    
     6    2    4 am   BACKBONE|DICT|INTERRES
     7    4    5 1    
     8    4  130 1    
     9    5    6 1    
    10    5   65 1    
    11    5  131 1    
    12    6    7 1    
    13    6  132 1    
    14    6  133 1    
    15    7    8 1    
    16    8    9 1    
    17    8  134 1    
    18    8  135 1    
    19    9   10 ar   
    20    9   14 ar   
    21   10   11 ar   
    22   10  136 1    
    23   11   12 ar   
    24   11  126 1    
    25   12   13 ar   
    26   12  137 1    
    27   13   14 ar   
    28   13   15 1    
    29   14  138 1    
    30   15   16 1    
    31   15  139 1    
    32   15  140 1    
    33   16   17 1    
    34   17   18 1    
    35   17  141 1    
    36   17  142 1    
    37   18   19 1    
    38   18   67 1    
    39   18  143 1    
    40   19   20 am   BACKBONE|DICT|INTERRES
    41   19  144 1    
    42   20   21 2    
    43   20   22 1    
    44   22   23 1    
    45   22   24 1    
    46   22  145 1    
    47   23  146 1    
    48   23  147 1    
    49   23  148 1    
    50   24   25 am   BACKBONE|DICT|INTERRES
    51   24  149 1    
    52   25   26 2    
    53   25   27 1    
    54   27   28 1    
    55   27   29 1    
    56   27  150 1    
    57   28  151 1    
    58   28  152 1    
    59   28  153 1    
    60   29   30 am   BACKBONE|DICT|INTERRES
    61   29  154 1    
    62   30   31 2    
    63   30   32 1    
    64   32   33 1    
    65   32   34 1    
    66   32  155 1    
    67   33  156 1    
    68   33  157 1    
    69   33  158 1    
    70   34   35 am   BACKBONE|DICT|INTERRES
    71   34  159 1    
    72   35   36 2    
    73   35   37 1    
    74   37   38 1    
    75   37   39 1    
    76   37  160 1    
    77   38  161 1    
    78   38  162 1    
    79   38  163 1    
    80   39   40 am   BACKBONE|DICT|INTERRES
    81   39  164 1    
    82   40   41 2    
    83   40   42 1    
    84   42   43 1    
    85   42   44 1    
    86   42  165 1    
    87   43  166 1    
    88   43  167 1    
    89   43  168 1    
    90   44   45 am   BACKBONE|DICT|INTERRES
    91   44  169 1    
    92   45   46 2    
    93   45   47 1    
    94   47   48 1    
    95   47   49 1    
    96   47  170 1    
    97   48  171 1    
    98   48  172 1    
    99   48  173 1    
   100   49   50 am   BACKBONE|DICT|INTERRES
   101   49  174 1    
   102   50   51 2    
   103   50   52 1    
   104   52   53 1    
   105   52   54 1    
   106   52  175 1    
   107   53  176 1    
   108   53  177 1    
   109   53  178 1    
   110   54   55 am   BACKBONE|DICT|INTERRES
   111   54  179 1    
   112   55   56 2    
   113   55   57 1    
   114   57   58 1    
   115   57   59 1    
   116   57  180 1    
   117   58  181 1    
   118   58  182 1    
   119   58  183 1    
   120   59   60 am   BACKBONE|DICT|INTERRES
   121   59  184 1    
   122   60   61 2    
   123   60   62 1    
   124   62   63 1    
   125   62   64 1    
   126   62  185 1    
   127   63  186 1    
   128   63  187 1    
   129   63  188 1    
   130   64   65 am   BACKBONE|DICT|INTERRES
   131   64  189 1    
   132   65   66 2    
   133   67   68 2    
   134   67   69 am   BACKBONE|DICT|INTERRES
   135   69   70 1    
   136   69  190 1    
   137   70   71 1    
   138   70   72 1    
   139   70  191 1    
   140   71  192 1    
   141   71  193 1    
   142   71  194 1    
   143   72   73 2    
   144   72   74 am   BACKBONE|DICT|INTERRES
   145   74   75 1    
   146   74  195 1    
   147   75   76 1    
   148   75   77 1    
   149   75  196 1    
   150   76  197 1    
   151   76  198 1    
   152   76  199 1    
   153   77   78 2    
   154   77   79 am   BACKBONE|DICT|INTERRES
   155   79   80 1    
   156   79  200 1    
   157   80   81 1    
   158   80   82 1    
   159   80  201 1    
   160   81  202 1    
   161   81  203 1    
   162   81  204 1    
   163   82   83 2    
   164   82   84 am   BACKBONE|DICT|INTERRES
   165   84   85 1    
   166   84  205 1    
   167   85   86 1    
   168   85   87 1    
   169   85  206 1    
   170   86  207 1    
   171   86  208 1    
   172   86  209 1    
   173   87   88 2    
   174   87   89 am   BACKBONE|DICT|INTERRES
   175   89   90 1    
   176   89  210 1    
   177   90   91 1    
   178   90   92 1    
   179   90  211 1    
   180   91  212 1    
   181   91  213 1    
   182   91  214 1    
   183   92   93 2    
   184   92   94 am   BACKBONE|DICT|INTERRES
   185   94   95 1    
   186   94  215 1    
   187   95   96 1    
   188   95   97 1    
   189   95  216 1    
   190   96  217 1    
   191   96  218 1    
   192   96  219 1    
   193   97   98 2    
   194   97   99 am   BACKBONE|DICT|INTERRES
   195   99  100 1    
   196   99  220 1    
   197  100  101 1    
   198  100  102 1    
   199  100  221 1    
   200  101  222 1    
   201  101  223 1    
   202  101  224 1    
   203  102  103 2    
   204  102  104 am   BACKBONE|DICT|INTERRES
   205  104  105 1    
   206  104  225 1    
   207  105  106 1    
   208  105  107 1    
   209  105  226 1    
   210  106  227 1    
   211  106  228 1    
   212  106  229 1    
   213  107  108 2    
   214  107  109 am   BACKBONE|DICT|INTERRES
   215  109  110 1    
   216  109  230 1    
   217  110  111 1    
   218  110  112 1    
   219  110  231 1    
   220  111  232 1    
   221  111  233 1    
   222  111  234 1    
   223  112  113 2    
   224  112  114 am   BACKBONE|DICT|INTERRES
   225  114  115 1    
   226  114  235 1    
   227  115  116 1    
   228  115  117 1    
   229  115  236 1    
   230  116  237 1    
   231  116  238 1    
   232  116  239 1    
   233  117  118 2    
   234  117  119 am   BACKBONE|DICT|INTERRES
   235  119  120 1    
   236  119  240 1    
   237  120  121 1    
   238  120  124 1    
   239  120  241 1    
   240  121  122 am   BACKBONE|DICT|INTERRES
   241  121  123 2    
   242  122  242 1    
   243  122  243 1    
   244  124  125 1    
   245  124  244 1    
   246  124  245 1    
   247  125  126 1    
   248  126  246 1    
   249  126  247 1    
@<TRIPOS>SUBSTRUCTURE
     1 UNK         1 GROUP             0       ****    0 ROOT    
