@<TRIPOS>MOLECULE
3R540
247   249    1
SMALL
USER_CHARGES


@<TRIPOS>ATOM
      1 CA          6.0747  -18.7419  -46.5184 C.3       0 UNK        -0.1800 
      2 C           5.1749  -17.5179  -46.4368 C.2       0 UNK         0.5000 
      3 O           4.5128  -17.3094  -45.4210 O.2       0 UNK        -0.5000 
      4 N           5.1588  -16.6905  -47.4902 N.am      1 UNK        -0.5000 
      5 CA          4.3748  -15.4527  -47.5992 C.3       1 UNK         0.1400 
      6 C6          4.0861  -15.1089  -49.0884 C.3       23 UNK        -0.0398 
      7 S7          2.5758  -14.1142  -49.3655 S.3       23 UNK        -0.2404 
      8 C8          1.2143  -15.2065  -48.8327 C.3       23 UNK        -0.0205 
      9 C9          1.0291  -16.4365  -49.7115 C.ar      23 UNK        -0.0193 
     10 C10         0.0502  -16.4492  -50.7089 C.ar      23 UNK        -0.1150 
     11 C11        -0.1610  -17.5957  -51.4799 C.ar      23 UNK        -0.0193 
     12 C12         0.6167  -18.7325  -51.2494 C.ar      23 UNK        -0.1150 
     13 C13         1.5996  -18.7410  -50.2560 C.ar      23 UNK        -0.0193 
     14 C14         1.7994  -17.5824  -49.4937 C.ar      23 UNK        -0.1150 
     15 C15         2.4167  -20.0208  -50.0673 C.3       23 UNK        -0.0205 
     16 S16         3.4018  -20.1600  -48.5323 S.3       23 UNK        -0.2404 
     17 C17         2.1565  -19.9901  -47.2075 C.3       23 UNK        -0.0398 
     18 CA          1.5310  -21.3291  -46.7562 C.3       11 UNK         0.1400 
     19 N           0.9950  -21.2399  -45.3977 N.am      11 UNK        -0.5000 
     20 C           0.4929  -22.2629  -44.6935 C.2       10 UNK         0.5000 
     21 O           0.4796  -23.4286  -45.0897 O.2       10 UNK        -0.5000 
     22 CA         -0.1537  -21.9114  -43.3411 C.3       10 UNK         0.1400 
     23 CB          0.9119  -21.7415  -42.2482 C.3       10 UNK        -0.1800 
     24 N          -0.9830  -20.7064  -43.4157 N.am      10 UNK        -0.5000 
     25 C          -2.0895  -20.6006  -44.1664 C.2       9 UNK         0.5000 
     26 O          -2.5519  -21.5244  -44.8355 O.2       9 UNK        -0.5000 
     27 CA         -2.7724  -19.2230  -44.2152 C.3       9 UNK         0.1400 
     28 CB         -3.6243  -18.9940  -42.9580 C.3       9 UNK        -0.1800 
     29 N          -1.8211  -18.1232  -44.3808 N.am      9 UNK        -0.5000 
     30 C          -1.0315  -17.9563  -45.4515 C.2       8 UNK         0.5000 
     31 O          -1.0449  -18.6982  -46.4315 O.2       8 UNK        -0.5000 
     32 CA         -0.0164  -16.8012  -45.4053 C.3       8 UNK         0.1400 
     33 CB         -0.6885  -15.4622  -45.7423 C.3       8 UNK        -0.1800 
     34 N           0.6726  -16.6963  -44.1211 N.am      8 UNK        -0.5000 
     35 C           1.4367  -17.6598  -43.5865 C.2       7 UNK         0.5000 
     36 O           1.6569  -18.7428  -44.1273 O.2       7 UNK        -0.5000 
     37 CA          1.9805  -17.3948  -42.1741 C.3       7 UNK         0.1400 
     38 CB          3.1739  -16.4265  -42.2067 C.3       7 UNK        -0.1800 
     39 N           0.9369  -16.8720  -41.2926 N.am      7 UNK        -0.5000 
     40 C          -0.1300  -17.5755  -40.8851 C.2       6 UNK         0.5000 
     41 O          -0.3256  -18.7566  -41.1740 O.2       6 UNK        -0.5000 
     42 CA         -1.1740  -16.8146  -40.0481 C.3       6 UNK         0.1400 
     43 CB         -0.7481  -16.7526  -38.5737 C.3       6 UNK        -0.1800 
     44 N          -1.4088  -15.4573  -40.5444 N.am      6 UNK        -0.5000 
     45 C          -1.9776  -15.1731  -41.7247 C.2       5 UNK         0.5000 
     46 O          -2.3881  -16.0266  -42.5084 O.2       5 UNK        -0.5000 
     47 CA         -2.0627  -13.6874  -42.1155 C.3       5 UNK         0.1400 
     48 CB         -3.3309  -13.0468  -41.5323 C.3       5 UNK        -0.1800 
     49 N          -0.8906  -12.9125  -41.7024 N.am      5 UNK        -0.5000 
     50 C           0.3554  -13.1240  -42.1451 C.2       4 UNK         0.5000 
     51 O           0.6662  -14.0354  -42.9162 O.2       4 UNK        -0.5000 
     52 CA          1.4416  -12.1893  -41.5873 C.3       4 UNK         0.1400 
     53 CB          2.1741  -12.8638  -40.4173 C.3       4 UNK        -0.1800 
     54 N           2.4205  -11.8125  -42.6037 N.am      4 UNK        -0.5000 
     55 C           2.1776  -11.0757  -43.6931 C.2       3 UNK         0.5000 
     56 O           1.0728  -10.5979  -43.9554 O.2       3 UNK        -0.5000 
     57 CA          3.3570  -10.8030  -44.6518 C.3       3 UNK         0.1400 
     58 CB          4.1169   -9.5307  -44.2317 C.3       3 UNK        -0.1800 
     59 N           4.2878  -11.9218  -44.8667 N.am      3 UNK        -0.5000 
     60 C           5.1083  -12.5377  -44.0043 C.2       2 UNK         0.5000 
     61 O           5.1685  -12.2596  -42.8053 O.2       2 UNK        -0.5000 
     62 CA          5.9992  -13.6618  -44.5781 C.3       2 UNK         0.1400 
     63 CB          6.6277  -14.5350  -43.4767 C.3       2 UNK        -0.1800 
     64 N           5.2941  -14.5410  -45.5131 N.am      2 UNK        -0.5000 
     65 C           5.0262  -14.2959  -46.8012 C.2       1 UNK         0.5000 
     66 O           5.2864  -13.2210  -47.3436 O.2       1 UNK        -0.5000 
     67 C           0.4605  -21.8119  -47.7547 C.2       11 UNK         0.5000 
     68 O           0.7109  -22.7621  -48.4930 O.2       11 UNK        -0.5000 
     69 N          -0.7199  -21.1772  -47.7390 N.am      12 UNK        -0.5000 
     70 CA         -1.8610  -21.5133  -48.5905 C.3       12 UNK         0.1400 
     71 CB         -2.9718  -20.4727  -48.3903 C.3       12 UNK        -0.1800 
     72 C          -2.3894  -22.9397  -48.3539 C.2       12 UNK         0.5000 
     73 O          -2.7325  -23.6235  -49.3184 O.2       12 UNK        -0.5000 
     74 N          -2.4054  -23.3813  -47.0884 N.am      13 UNK        -0.5000 
     75 CA         -2.7410  -24.7494  -46.6961 C.3       13 UNK         0.1400 
     76 CB         -2.8845  -24.8335  -45.1692 C.3       13 UNK        -0.1800 
     77 C          -1.7168  -25.7767  -47.2127 C.2       13 UNK         0.5000 
     78 O          -2.1189  -26.8066  -47.7540 O.2       13 UNK        -0.5000 
     79 N          -0.4193  -25.4657  -47.0757 N.am      14 UNK        -0.5000 
     80 CA          0.6899  -26.2855  -47.5720 C.3       14 UNK         0.1400 
     81 CB          2.0160  -25.7489  -47.0117 C.3       14 UNK        -0.1800 
     82 C           0.7373  -26.3664  -49.1105 C.2       14 UNK         0.5000 
     83 O           1.0061  -27.4369  -49.6567 O.2       14 UNK        -0.5000 
     84 N           0.4440  -25.2431  -49.7784 N.am      15 UNK        -0.5000 
     85 CA          0.3294  -25.1234  -51.2337 C.3       15 UNK         0.1400 
     86 CB          0.3764  -23.6339  -51.6126 C.3       15 UNK        -0.1800 
     87 C          -0.9423  -25.7795  -51.8097 C.2       15 UNK         0.5000 
     88 O          -1.0108  -25.9823  -53.0225 O.2       15 UNK        -0.5000 
     89 N          -1.9161  -26.0865  -50.9400 N.am      16 UNK        -0.5000 
     90 CA         -3.2386  -26.6429  -51.2304 C.3       16 UNK         0.1400 
     91 CB         -3.1267  -28.0700  -51.8067 C.3       16 UNK        -0.1800 
     92 C          -4.0881  -25.6913  -52.0967 C.2       16 UNK         0.5000 
     93 O          -4.6210  -26.0969  -53.1319 O.2       16 UNK        -0.5000 
     94 N          -4.1829  -24.4307  -51.6504 N.am      17 UNK        -0.5000 
     95 CA         -5.0018  -23.3710  -52.2406 C.3       17 UNK         0.1400 
     96 CB         -4.8298  -22.0935  -51.4045 C.3       17 UNK        -0.1800 
     97 C          -6.4932  -23.7482  -52.3075 C.2       17 UNK         0.5000 
     98 O          -7.0381  -24.2662  -51.3293 O.2       17 UNK        -0.5000 
     99 N          -7.1312  -23.4476  -53.4416 N.am      18 UNK        -0.5000 
    100 CA        -8.5521  -23.6759  -53.6830 C.3       18 UNK         0.1400 
    101 CB        -8.7300  -24.3231  -55.0674 C.3       18 UNK        -0.1800 
    102 C         -9.2946  -22.3403  -53.5271 C.2       18 UNK         0.5000 
    103 O         -9.7320  -21.7472  -54.5156 O.2       18 UNK        -0.5000 
    104 N         -9.3774  -21.8742  -52.2725 N.am      19 UNK        -0.5000 
    105 CA        -9.9706  -20.6077  -51.8347 C.3       19 UNK         0.1400 
    106 CB       -11.5065  -20.6372  -52.0071 C.3       19 UNK        -0.1800 
    107 C         -9.2815  -19.4044  -52.5097 C.2       19 UNK         0.5000 
    108 O         -8.1351  -19.1052  -52.1726 O.2       19 UNK        -0.5000 
    109 N         -9.9731  -18.7545  -53.4557 N.am      20 UNK        -0.5000 
    110 CA        -9.4649  -17.6368  -54.2524 C.3       20 UNK         0.1400 
    111 CB       -10.6288  -17.0101  -55.0350 C.3       20 UNK        -0.1800 
    112 C         -8.3227  -18.0324  -55.2087 C.2       20 UNK         0.5000 
    113 O         -7.4766  -17.1908  -55.5160 O.2       20 UNK        -0.5000 
    114 N         -8.2935  -19.2997  -55.6456 N.am      21 UNK        -0.5000 
    115 CA        -7.2167  -19.8744  -56.4489 C.3       21 UNK         0.1400 
    116 CB        -7.7792  -21.0022  -57.3282 C.3       21 UNK        -0.1800 
    117 C         -6.0684  -20.3295  -55.5293 C.2       21 UNK         0.5000 
    118 O         -5.9005  -21.5240  -55.2695 O.2       21 UNK        -0.5000 
    119 N         -5.3337  -19.3396  -55.0143 N.am      22 UNK        -0.5000 
    120 CA        -4.1298  -19.4990  -54.1934 C.3       22 UNK         0.1400 
    121 C         -2.9178  -20.0082  -55.0239 C.2       22 UNK         0.5000 
    122 N         -2.0719  -20.8532  -54.4503 N.am      22 UNK        -0.7600 
    123 O         -2.7209  -19.6183  -56.1730 O.2       22 UNK        -0.5000 
    124 C124       -3.8171  -18.1756  -53.4514 C.3       23 UNK        -0.0398 
    125 S125       -2.7575  -18.3965  -51.9822 S.3       23 UNK        -0.2404 
    126 C126       -1.2240  -17.6102  -52.5654 C.3       23 UNK        -0.0205 
    127 H127        6.9122  -18.6377  -45.8289 H         1 UNK         0.0600 
    128 H128        6.4714  -18.8854  -47.5236 H         1 UNK         0.0600 
    129 H129        5.5157  -19.6365  -46.2441 H         1 UNK         0.0600 
    130 H130        5.7566  -16.8967  -48.2780 H         1 UNK         0.3000 
    131 H131        3.4235  -15.6473  -47.1054 H         1 UNK         0.0600 
    132 H132        4.9316  -14.5848  -49.5372 H         1 UNK         0.0800 
    133 H133        3.9885  -16.0175  -49.6813 H         1 UNK         0.0800 
    134 H134        0.2947  -14.6193  -48.8312 H         1 UNK         0.0800 
    135 H135        1.3614  -15.5086  -47.7991 H         1 UNK         0.0800 
    136 H136       -0.5556  -15.5701  -50.8783 H         1 UNK         0.1150 
    137 H137        0.4505  -19.6182  -51.8471 H         1 UNK         0.1150 
    138 H138        2.5492  -17.5653  -48.7178 H         1 UNK         0.1150 
    139 H139        1.7557  -20.8844  -50.1376 H         1 UNK         0.0800 
    140 H140        3.1045  -20.1045  -50.9094 H         1 UNK         0.0800 
    141 H141        1.3869  -19.2674  -47.4754 H         1 UNK         0.0800 
    142 H142        2.6912  -19.5409  -46.3704 H         1 UNK         0.0800 
    143 H143        2.3201  -22.0836  -46.7271 H         1 UNK         0.0600 
    144 H144        1.0074  -20.3180  -44.9681 H         1 UNK         0.3000 
    145 H145       -0.8003  -22.7442  -43.0571 H         1 UNK         0.0600 
    146 H146        1.5310  -22.6355  -42.1641 H         1 UNK         0.0600 
    147 H147        1.5741  -20.9007  -42.4557 H         1 UNK         0.0600 
    148 H148        0.4523  -21.5705  -41.2746 H         1 UNK         0.0600 
    149 H149       -0.6788  -19.9078  -42.8687 H         1 UNK         0.3000 
    150 H150       -3.4391  -19.2161  -45.0798 H         1 UNK         0.0600 
    151 H151       -4.3371  -19.8070  -42.8146 H         1 UNK         0.0600 
    152 H152       -4.1976  -18.0701  -43.0346 H         1 UNK         0.0600 
    153 H153       -3.0092  -18.9326  -42.0598 H         1 UNK         0.0600 
    154 H154       -1.7933  -17.4331  -43.6349 H         1 UNK         0.3000 
    155 H155        0.7431  -17.0077  -46.1611 H         1 UNK         0.0600 
    156 H156       -1.4540  -15.2020  -45.0114 H         1 UNK         0.0600 
    157 H157        0.0379  -14.6496  -45.7667 H         1 UNK         0.0600 
    158 H158       -1.1693  -15.5027  -46.7204 H         1 UNK         0.0600 
    159 H159        0.5637  -15.8217  -43.6142 H         1 UNK         0.3000 
    160 H160        2.3266  -18.3454  -41.7628 H         1 UNK         0.0600 
    161 H161        2.9124  -15.4663  -42.6519 H         1 UNK         0.0600 
    162 H162        3.9914  -16.8448  -42.7943 H         1 UNK         0.0600 
    163 H163        3.5598  -16.2394  -41.2047 H         1 UNK         0.0600 
    164 H164        0.9911  -15.8935  -41.0546 H         1 UNK         0.3000 
    165 H165       -2.1148  -17.3659  -40.1087 H         1 UNK         0.0600 
    166 H166       -1.5184  -16.2846  -37.9605 H         1 UNK         0.0600 
    167 H167       -0.5803  -17.7538  -38.1743 H         1 UNK         0.0600 
    168 H168        0.1755  -16.1875  -38.4424 H         1 UNK         0.0600 
    169 H169       -1.1009  -14.6941  -39.9603 H         1 UNK         0.3000 
    170 H170       -2.1268  -13.6365  -43.2043 H         1 UNK         0.0600 
    171 H171       -4.2221  -13.5950  -41.8412 H         1 UNK         0.0600 
    172 H172       -3.3135  -13.0363  -40.4418 H         1 UNK         0.0600 
    173 H173       -3.4481  -12.0192  -41.8769 H         1 UNK         0.0600 
    174 H174       -1.0605  -12.1501  -41.0623 H         1 UNK         0.3000 
    175 H175        0.9694  -11.2748  -41.2227 H         1 UNK         0.0600 
    176 H176        2.7002  -13.7638  -40.7371 H         1 UNK         0.0600 
    177 H177        2.9072  -12.1908  -39.9723 H         1 UNK         0.0600 
    178 H178        1.4772  -13.1512  -39.6289 H         1 UNK         0.0600 
    179 H179        3.3736  -12.1412  -42.4732 H         1 UNK         0.3000 
    180 H180        2.9144  -10.6075  -45.6298 H         1 UNK         0.0600 
    181 H181        4.5897   -9.6421  -43.2555 H         1 UNK         0.0600 
    182 H182        3.4415   -8.6764  -44.1699 H         1 UNK         0.0600 
    183 H183        4.8934   -9.2786  -44.9540 H         1 UNK         0.0600 
    184 H184        4.3453  -12.2447  -45.8267 H         1 UNK         0.3000 
    185 H185        6.8137  -13.1715  -45.1150 H         1 UNK         0.0600 
    186 H186        7.2404  -13.9373  -42.8007 H         1 UNK         0.0600 
    187 H187        5.8656  -15.0340  -42.8771 H         1 UNK         0.0600 
    188 H188        7.2743  -15.3026  -43.9024 H         1 UNK         0.0600 
    189 H189        5.0250  -15.4541  -45.1575 H         1 UNK         0.3000 
    190 H190       -0.8413  -20.3732  -47.1257 H         1 UNK         0.3000 
    191 H191       -1.5266  -21.4530  -49.6280 H         1 UNK         0.0600 
    192 H192       -3.3149  -20.4453  -47.3558 H         1 UNK         0.0600 
    193 H193       -3.8356  -20.6893  -49.0179 H         1 UNK         0.0600 
    194 H194       -2.6241  -19.4736  -48.6547 H         1 UNK         0.0600 
    195 H195       -2.1693  -22.7357  -46.3405 H         1 UNK         0.3000 
    196 H196       -3.7087  -24.9947  -47.1388 H         1 UNK         0.0600 
    197 H197       -3.1499  -25.8442  -44.8567 H         1 UNK         0.0600 
    198 H198       -3.6682  -24.1658  -44.8109 H         1 UNK         0.0600 
    199 H199       -1.9591  -24.5641  -44.6600 H         1 UNK         0.0600 
    200 H200       -0.1682  -24.6095  -46.5906 H         1 UNK         0.3000 
    201 H201        0.5497  -27.2998  -47.1928 H         1 UNK         0.0600 
    202 H202        2.0171  -25.7637  -45.9217 H         1 UNK         0.0600 
    203 H203        2.2040  -24.7235  -47.3309 H         1 UNK         0.0600 
    204 H204        2.8568  -26.3573  -47.3468 H         1 UNK         0.0600 
    205 H205        0.3221  -24.3834  -49.2459 H         1 UNK         0.3000 
    206 H206        1.1894  -25.6201  -51.6872 H         1 UNK         0.0600 
    207 H207        1.2996  -23.1684  -51.2675 H         1 UNK         0.0600 
    208 H208        0.3304  -23.5010  -52.6942 H         1 UNK         0.0600 
    209 H209       -0.4594  -23.0846  -51.1781 H         1 UNK         0.0600 
    210 H210       -1.7584  -25.8419  -49.9714 H         1 UNK         0.3000 
    211 H211       -3.7510  -26.7194  -50.2702 H         1 UNK         0.0600 
    212 H212       -2.6612  -28.0783  -52.7925 H         1 UNK         0.0600 
    213 H213       -4.1123  -28.5257  -51.9084 H         1 UNK         0.0600 
    214 H214       -2.5379  -28.7126  -51.1521 H         1 UNK         0.0600 
    215 H215       -3.6905  -24.1876  -50.7931 H         1 UNK         0.3000 
    216 H216       -4.6347  -23.1848  -53.2521 H         1 UNK         0.0600 
    217 H217       -5.4807  -21.2946  -51.7618 H         1 UNK         0.0600 
    218 H218       -3.8031  -21.7290  -51.4406 H         1 UNK         0.0600 
    219 H219       -5.0865  -22.2698  -50.3593 H         1 UNK         0.0600 
    220 H220       -6.6354  -22.9338  -54.1668 H         1 UNK         0.3000 
    221 H221       -8.9701  -24.3669  -52.9479 H         1 UNK         0.0600 
    222 H222       -8.2134  -23.7678  -55.8479 H         1 UNK         0.0600 
    223 H223       -8.3313  -25.3376  -55.0725 H         1 UNK         0.0600 
    224 H224       -9.7835  -24.3874  -55.3423 H         1 UNK         0.0600 
    225 H225       -8.9358  -22.4188  -51.5439 H         1 UNK         0.3000 
    226 H226       -9.7628  -20.5185  -50.7674 H         1 UNK         0.0600 
    227 H227      -11.9448  -21.4468  -51.4236 H         1 UNK         0.0600 
    228 H228      -11.9588  -19.7092  -51.6549 H         1 UNK         0.0600 
    229 H229      -11.8090  -20.7826  -53.0445 H         1 UNK         0.0600 
    230 H230      -10.8969  -19.0904  -53.6861 H         1 UNK         0.3000 
    231 H231       -9.0711  -16.8853  -53.5650 H         1 UNK         0.0600 
    232 H232      -10.2897  -16.1548  -55.6209 H         1 UNK         0.0600 
    233 H233      -11.4096  -16.6530  -54.3633 H         1 UNK         0.0600 
    234 H234      -11.0792  -17.7237  -55.7261 H         1 UNK         0.0600 
    235 H235       -8.9856  -19.9543  -55.2959 H         1 UNK         0.3000 
    236 H236       -6.8152  -19.1153  -57.1240 H         1 UNK         0.0600 
    237 H237       -8.4800  -20.6090  -58.0646 H         1 UNK         0.0600 
    238 H238       -6.9837  -21.5108  -57.8742 H         1 UNK         0.0600 
    239 H239       -8.3074  -21.7477  -56.7394 H         1 UNK         0.0600 
    240 H240       -5.5822  -18.3913  -55.2653 H         1 UNK         0.3000 
    241 H241       -4.3623  -20.2578  -53.4484 H         1 UNK         0.0600 
    242 H242       -2.1952  -21.1588  -53.4991 H         1 UNK         0.3800 
    243 H243       -1.2796  -21.1823  -54.9791 H         1 UNK         0.3800 
    244 H244       -3.3880  -17.4371  -54.1310 H         1 UNK         0.0800 
    245 H245       -4.7456  -17.7329  -53.0870 H         1 UNK         0.0800 
    246 H246       -0.8502  -18.1446  -53.4403 H         1 UNK         0.0800 
    247 H247       -1.4386  -16.5916  -52.8926 H         1 UNK         0.0800 
@<TRIPOS>BOND
     1    1    2 1    
     2    1  127 1    
     3    1  128 1    
     4    1  129 1    
     5    2    3 2    
     6    2    4 am   BACKBONE|DICT|INTERRES
     7    4    5 1    
     8    4  130 1    
     9    5    6 1    
    10    5   65 1    
    11    5  131 1    
    12    6    7 1    
    13    6  132 1    
    14    6  133 1    
    15    7    8 1    
    16    8    9 1    
    17    8  134 1    
    18    8  135 1    
    19    9   10 ar   
    20    9   14 ar   
    21   10   11 ar   
    22   10  136 1    
    23   11   12 ar   
    24   11  126 1    
    25   12   13 ar   
    26   12  137 1    
    27   13   14 ar   
    28   13   15 1    
    29   14  138 1    
    30   15   16 1    
    31   15  139 1    
    32   15  140 1    
    33   16   17 1    
    34   17   18 1    
    35   17  141 1    
    36   17  142 1    
    37   18   19 1    
    38   18   67 1    
    39   18  143 1    
    40   19   20 am   BACKBONE|DICT|INTERRES
    41   19  144 1    
    42   20   21 2    
    43   20   22 1    
    44   22   23 1    
    45   22   24 1    
    46   22  145 1    
    47   23  146 1    
    48   23  147 1    
    49   23  148 1    
    50   24   25 am   BACKBONE|DICT|INTERRES
    51   24  149 1    
    52   25   26 2    
    53   25   27 1    
    54   27   28 1    
    55   27   29 1    
    56   27  150 1    
    57   28  151 1    
    58   28  152 1    
    59   28  153 1    
    60   29   30 am   BACKBONE|DICT|INTERRES
    61   29  154 1    
    62   30   31 2    
    63   30   32 1    
    64   32   33 1    
    65   32   34 1    
    66   32  155 1    
    67   33  156 1    
    68   33  157 1    
    69   33  158 1    
    70   34   35 am   BACKBONE|DICT|INTERRES
    71   34  159 1    
    72   35   36 2    
    73   35   37 1    
    74   37   38 1    
    75   37   39 1    
    76   37  160 1    
    77   38  161 1    
    78   38  162 1    
    79   38  163 1    
    80   39   40 am   BACKBONE|DICT|INTERRES
    81   39  164 1    
    82   40   41 2    
    83   40   42 1    
    84   42   43 1    
    85   42   44 1    
    86   42  165 1    
    87   43  166 1    
    88   43  167 1    
    89   43  168 1    
    90   44   45 am   BACKBONE|DICT|INTERRES
    91   44  169 1    
    92   45   46 2    
    93   45   47 1    
    94   47   48 1    
    95   47   49 1    
    96   47  170 1    
    97   48  171 1    
    98   48  172 1    
    99   48  173 1    
   100   49   50 am   BACKBONE|DICT|INTERRES
   101   49  174 1    
   102   50   51 2    
   103   50   52 1    
   104   52   53 1    
   105   52   54 1    
   106   52  175 1    
   107   53  176 1    
   108   53  177 1    
   109   53  178 1    
   110   54   55 am   BACKBONE|DICT|INTERRES
   111   54  179 1    
   112   55   56 2    
   113   55   57 1    
   114   57   58 1    
   115   57   59 1    
   116   57  180 1    
   117   58  181 1    
   118   58  182 1    
   119   58  183 1    
   120   59   60 am   BACKBONE|DICT|INTERRES
   121   59  184 1    
   122   60   61 2    
   123   60   62 1    
   124   62   63 1    
   125   62   64 1    
   126   62  185 1    
   127   63  186 1    
   128   63  187 1    
   129   63  188 1    
   130   64   65 am   BACKBONE|DICT|INTERRES
   131   64  189 1    
   132   65   66 2    
   133   67   68 2    
   134   67   69 am   BACKBONE|DICT|INTERRES
   135   69   70 1    
   136   69  190 1    
   137   70   71 1    
   138   70   72 1    
   139   70  191 1    
   140   71  192 1    
   141   71  193 1    
   142   71  194 1    
   143   72   73 2    
   144   72   74 am   BACKBONE|DICT|INTERRES
   145   74   75 1    
   146   74  195 1    
   147   75   76 1    
   148   75   77 1    
   149   75  196 1    
   150   76  197 1    
   151   76  198 1    
   152   76  199 1    
   153   77   78 2    
   154   77   79 am   BACKBONE|DICT|INTERRES
   155   79   80 1    
   156   79  200 1    
   157   80   81 1    
   158   80   82 1    
   159   80  201 1    
   160   81  202 1    
   161   81  203 1    
   162   81  204 1    
   163   82   83 2    
   164   82   84 am   BACKBONE|DICT|INTERRES
   165   84   85 1    
   166   84  205 1    
   167   85   86 1    
   168   85   87 1    
   169   85  206 1    
   170   86  207 1    
   171   86  208 1    
   172   86  209 1    
   173   87   88 2    
   174   87   89 am   BACKBONE|DICT|INTERRES
   175   89   90 1    
   176   89  210 1    
   177   90   91 1    
   178   90   92 1    
   179   90  211 1    
   180   91  212 1    
   181   91  213 1    
   182   91  214 1    
   183   92   93 2    
   184   92   94 am   BACKBONE|DICT|INTERRES
   185   94   95 1    
   186   94  215 1    
   187   95   96 1    
   188   95   97 1    
   189   95  216 1    
   190   96  217 1    
   191   96  218 1    
   192   96  219 1    
   193   97   98 2    
   194   97   99 am   BACKBONE|DICT|INTERRES
   195   99  100 1    
   196   99  220 1    
   197  100  101 1    
   198  100  102 1    
   199  100  221 1    
   200  101  222 1    
   201  101  223 1    
   202  101  224 1    
   203  102  103 2    
   204  102  104 am   BACKBONE|DICT|INTERRES
   205  104  105 1    
   206  104  225 1    
   207  105  106 1    
   208  105  107 1    
   209  105  226 1    
   210  106  227 1    
   211  106  228 1    
   212  106  229 1    
   213  107  108 2    
   214  107  109 am   BACKBONE|DICT|INTERRES
   215  109  110 1    
   216  109  230 1    
   217  110  111 1    
   218  110  112 1    
   219  110  231 1    
   220  111  232 1    
   221  111  233 1    
   222  111  234 1    
   223  112  113 2    
   224  112  114 am   BACKBONE|DICT|INTERRES
   225  114  115 1    
   226  114  235 1    
   227  115  116 1    
   228  115  117 1    
   229  115  236 1    
   230  116  237 1    
   231  116  238 1    
   232  116  239 1    
   233  117  118 2    
   234  117  119 am   BACKBONE|DICT|INTERRES
   235  119  120 1    
   236  119  240 1    
   237  120  121 1    
   238  120  124 1    
   239  120  241 1    
   240  121  122 am   BACKBONE|DICT|INTERRES
   241  121  123 2    
   242  122  242 1    
   243  122  243 1    
   244  124  125 1    
   245  124  244 1    
   246  124  245 1    
   247  125  126 1    
   248  126  246 1    
   249  126  247 1    
@<TRIPOS>SUBSTRUCTURE
     1 UNK         1 GROUP             0       ****    0 ROOT    
