@<TRIPOS>MOLECULE
3R540
247   249    1
SMALL
USER_CHARGES


@<TRIPOS>ATOM
      1 CA         -1.2031  -12.0499  -44.7581 C.3       0 UNK        -0.1800 
      2 C          -0.4035  -11.8587  -46.0383 C.2       0 UNK         0.5000 
      3 O           0.5282  -11.0551  -46.0676 O.2       0 UNK        -0.5000 
      4 N          -0.7518  -12.6042  -47.0953 N.am      1 UNK        -0.5000 
      5 CA         -0.1370  -12.5327  -48.4298 C.3       1 UNK         0.1400 
      6 C6         -0.9797  -13.2860  -49.4879 C.3       23 UNK        -0.0398 
      7 S7         -1.2076  -15.0654  -49.1322 S.3       23 UNK        -0.2404 
      8 C8         -0.8815  -15.7777  -50.7725 C.3       23 UNK        -0.0205 
      9 C9         -1.0080  -17.2918  -50.7472 C.ar      23 UNK        -0.0193 
     10 C10        -2.2718  -17.8916  -50.7757 C.ar      23 UNK        -0.1150 
     11 C11        -2.3967  -19.2823  -50.7268 C.ar      23 UNK        -0.0193 
     12 C12        -1.2442  -20.0675  -50.6298 C.ar      23 UNK        -0.1150 
     13 C13         0.0245  -19.4859  -50.6395 C.ar      23 UNK        -0.0193 
     14 C14         0.1369  -18.0939  -50.6987 C.ar      23 UNK        -0.1150 
     15 C15         1.2598  -20.3793  -50.6221 C.3       23 UNK        -0.0205 
     16 S16         2.4264  -20.0242  -49.2671 S.3       23 UNK        -0.2404 
     17 C17         1.3737  -20.0605  -47.7802 C.3       23 UNK        -0.0398 
     18 CA          1.1401  -21.4826  -47.2002 C.3       11 UNK         0.1400 
     19 N           1.1250  -21.4802  -45.7338 N.am      11 UNK        -0.5000 
     20 C           0.9959  -22.5592  -44.9477 C.2       10 UNK         0.5000 
     21 O           0.9460  -23.7153  -45.3689 O.2       10 UNK        -0.5000 
     22 CA          0.8386  -22.2956  -43.4378 C.3       10 UNK         0.1400 
     23 CB          2.2034  -22.0719  -42.7701 C.3       10 UNK        -0.1800 
     24 N          -0.0452  -21.1617  -43.1548 N.am      10 UNK        -0.5000 
     25 C          -1.3527  -21.1344  -43.4536 C.2       9 UNK         0.5000 
     26 O          -1.9586  -22.0840  -43.9481 O.2       9 UNK        -0.5000 
     27 CA         -2.1030  -19.8134  -43.2081 C.3       9 UNK         0.1400 
     28 CB         -2.4743  -19.6612  -41.7257 C.3       9 UNK        -0.1800 
     29 N          -1.3457  -18.6440  -43.6538 N.am      9 UNK        -0.5000 
     30 C          -0.9857  -18.4092  -44.9239 C.2       8 UNK         0.5000 
     31 O          -1.3017  -19.1306  -45.8691 O.2       8 UNK        -0.5000 
     32 CA         -0.0646  -17.2019  -45.1722 C.3       8 UNK         0.1400 
     33 CB         -0.8670  -15.8951  -45.2401 C.3       8 UNK        -0.1800 
     34 N           0.9849  -17.0815  -44.1595 N.am      8 UNK        -0.5000 
     35 C           1.9489  -17.9907  -43.9530 C.2       7 UNK         0.5000 
     36 O           2.0659  -19.0245  -44.6067 O.2       7 UNK        -0.5000 
     37 CA          2.9142  -17.7285  -42.7876 C.3       7 UNK         0.1400 
     38 CB          3.9909  -16.7057  -43.1794 C.3       7 UNK        -0.1800 
     39 N           2.2036  -17.2790  -41.5924 N.am      7 UNK        -0.5000 
     40 C           1.3667  -18.0490  -40.8817 C.2       6 UNK         0.5000 
     41 O           1.1467  -19.2348  -41.1303 O.2       6 UNK        -0.5000 
     42 CA          0.6166  -17.3601  -39.7281 C.3       6 UNK         0.1400 
     43 CB          1.4828  -17.3265  -38.4603 C.3       6 UNK        -0.1800 
     44 N           0.2000  -15.9986  -40.0697 N.am      6 UNK        -0.5000 
     45 C          -0.7166  -15.7011  -41.0016 C.2       5 UNK         0.5000 
     46 O          -1.3291  -16.5453  -41.6535 O.2       5 UNK        -0.5000 
     47 CA         -0.9492  -14.2077  -41.2865 C.3       5 UNK         0.1400 
     48 CB         -1.9485  -13.6108  -40.2849 C.3       5 UNK        -0.1800 
     49 N           0.2895  -13.4252  -41.2688 N.am      5 UNK        -0.5000 
     50 C           1.2777  -13.5642  -42.1605 C.2       4 UNK         0.5000 
     51 O           1.2666  -14.3939  -43.0745 O.2       4 UNK        -0.5000 
     52 CA          2.4789  -12.6263  -42.0105 C.3       4 UNK         0.1400 
     53 CB          3.5998  -13.2812  -41.1853 C.3       4 UNK        -0.1800 
     54 N           2.9466  -12.3007  -43.3505 N.am      4 UNK        -0.5000 
     55 C           3.6614  -11.2262  -43.6981 C.2       3 UNK         0.5000 
     56 O           4.1063  -10.4177  -42.8816 O.2       3 UNK        -0.5000 
     57 CA          3.8711  -10.9733  -45.2058 C.3       3 UNK         0.1400 
     58 CB          5.3210  -10.5692  -45.5469 C.3       3 UNK        -0.1800 
     59 N           3.3749  -12.0518  -46.0722 N.am      3 UNK        -0.5000 
     60 C           3.9226  -13.2526  -46.3186 C.2       2 UNK         0.5000 
     61 O           4.9863  -13.6300  -45.8276 O.2       2 UNK        -0.5000 
     62 CA          3.1414  -14.2084  -47.2505 C.3       2 UNK         0.1400 
     63 CB          3.1048  -15.6361  -46.6850 C.3       2 UNK        -0.1800 
     64 N           1.7624  -13.7718  -47.4763 N.am      2 UNK        -0.5000 
     65 C           1.3490  -12.9613  -48.4593 C.2       1 UNK         0.5000 
     66 O           2.0901  -12.5239  -49.3399 O.2       1 UNK        -0.5000 
     67 C          -0.1503  -22.1065  -47.7676 C.2       11 UNK         0.5000 
     68 O          -0.0834  -23.0217  -48.5888 O.2       11 UNK        -0.5000 
     69 N          -1.3027  -21.6243  -47.2822 N.am      12 UNK        -0.5000 
     70 CA         -2.6265  -22.1030  -47.6637 C.3       12 UNK         0.1400 
     71 CB         -3.7036  -21.1680  -47.0975 C.3       12 UNK        -0.1800 
     72 C          -2.8836  -23.5627  -47.2670 C.2       12 UNK         0.5000 
     73 O          -3.4289  -24.3078  -48.0788 O.2       12 UNK        -0.5000 
     74 N          -2.4524  -23.9610  -46.0630 N.am      13 UNK        -0.5000 
     75 CA         -2.5327  -25.3375  -45.5720 C.3       13 UNK         0.1400 
     76 CB         -2.0931  -25.3904  -44.1012 C.3       13 UNK        -0.1800 
     77 C          -1.7136  -26.3252  -46.4233 C.2       13 UNK         0.5000 
     78 O          -2.1951  -27.4231  -46.7045 O.2       13 UNK        -0.5000 
     79 N          -0.5112  -25.9080  -46.8442 N.am      14 UNK        -0.5000 
     80 CA          0.3630  -26.6743  -47.7321 C.3       14 UNK         0.1400 
     81 CB          1.7652  -26.0462  -47.7342 C.3       14 UNK        -0.1800 
     82 C          -0.1914  -26.7811  -49.1655 C.2       14 UNK         0.5000 
     83 O          -0.1298  -27.8564  -49.7628 O.2       14 UNK        -0.5000 
     84 N          -0.7246  -25.6692  -49.6884 N.am      15 UNK        -0.5000 
     85 CA         -1.2680  -25.5652  -51.0447 C.3       15 UNK         0.1400 
     86 CB         -1.2782  -24.0858  -51.4489 C.3       15 UNK        -0.1800 
     87 C          -2.6792  -26.1654  -51.2121 C.2       15 UNK         0.5000 
     88 O          -3.1024  -26.3817  -52.3476 O.2       15 UNK        -0.5000 
     89 N          -3.3839  -26.3912  -50.0943 N.am      16 UNK        -0.5000 
     90 CA         -4.7880  -26.8093  -49.9801 C.3       16 UNK         0.1400 
     91 CB         -5.0495  -28.1571  -50.6851 C.3       16 UNK        -0.1800 
     92 C          -5.7947  -25.7037  -50.3773 C.2       16 UNK         0.5000 
     93 O          -6.9437  -26.0088  -50.7020 O.2       16 UNK        -0.5000 
     94 N          -5.3506  -24.4420  -50.2789 N.am      17 UNK        -0.5000 
     95 CA         -6.1053  -23.1934  -50.4155 C.3       17 UNK         0.1400 
     96 CB         -6.9622  -22.9785  -49.1479 C.3       17 UNK        -0.1800 
     97 C          -6.8979  -23.0514  -51.7379 C.2       17 UNK         0.5000 
     98 O          -6.4454  -23.5244  -52.7825 O.2       17 UNK        -0.5000 
     99 N          -8.0464  -22.3619  -51.6647 N.am      18 UNK        -0.5000 
    100 CA        -9.0939  -22.1519  -52.6741 C.3       18 UNK         0.1400 
    101 CB        -9.7013  -23.4969  -53.1163 C.3       18 UNK        -0.1800 
    102 C         -8.7175  -21.2980  -53.9023 C.2       18 UNK         0.5000 
    103 O         -9.5653  -20.5427  -54.3798 O.2       18 UNK        -0.5000 
    104 N         -7.4918  -21.4429  -54.4168 N.am      19 UNK        -0.5000 
    105 CA        -7.0572  -20.8660  -55.6917 C.3       19 UNK         0.1400 
    106 CB        -5.7556  -21.5530  -56.1301 C.3       19 UNK        -0.1800 
    107 C         -6.8801  -19.3346  -55.6827 C.2       19 UNK         0.5000 
    108 O         -7.1384  -18.7042  -56.7087 O.2       19 UNK        -0.5000 
    109 N         -6.4374  -18.7893  -54.5387 N.am      20 UNK        -0.5000 
    110 CA        -5.9305  -17.4291  -54.3007 C.3       20 UNK         0.1400 
    111 CB        -6.9448  -16.3402  -54.7005 C.3       20 UNK        -0.1800 
    112 C         -4.5569  -17.2197  -54.9729 C.2       20 UNK         0.5000 
    113 O         -4.4230  -17.4333  -56.1790 O.2       20 UNK        -0.5000 
    114 N         -3.5499  -16.8395  -54.1674 N.am      21 UNK        -0.5000 
    115 CA        -2.1135  -16.8580  -54.5011 C.3       21 UNK         0.1400 
    116 CB        -1.7659  -15.7991  -55.5678 C.3       21 UNK        -0.1800 
    117 C         -1.6709  -18.2885  -54.8794 C.2       21 UNK         0.5000 
    118 O         -1.1446  -18.5289  -55.9670 O.2       21 UNK        -0.5000 
    119 N         -2.0073  -19.2189  -53.9804 N.am      22 UNK        -0.5000 
    120 CA        -2.1494  -20.6597  -54.2307 C.3       22 UNK         0.1400 
    121 C         -0.8239  -21.4473  -54.4394 C.2       22 UNK         0.5000 
    122 N          0.3412  -20.8651  -54.1877 N.am      22 UNK        -0.7600 
    123 O         -0.8564  -22.6062  -54.8422 O.2       22 UNK        -0.5000 
    124 C124       -3.0489  -21.3490  -53.1587 C.3       23 UNK        -0.0398 
    125 S125       -4.3712  -20.2912  -52.4523 S.3       23 UNK        -0.2404 
    126 C126       -3.7708  -19.9393  -50.7628 C.3       23 UNK        -0.0205 
    127 H127       -0.5358  -12.0770  -43.8983 H         1 UNK         0.0600 
    128 H128       -1.7763  -12.9769  -44.7731 H         1 UNK         0.0600 
    129 H129       -1.8957  -11.2195  -44.6230 H         1 UNK         0.0600 
    130 H130       -1.5207  -13.2546  -47.0130 H         1 UNK         0.3000 
    131 H131       -0.1450  -11.4783  -48.7145 H         1 UNK         0.0600 
    132 H132       -1.9694  -12.8320  -49.5532 H         1 UNK         0.0800 
    133 H133       -0.5376  -13.1567  -50.4775 H         1 UNK         0.0800 
    134 H134        0.1160  -15.4848  -51.1045 H         1 UNK         0.0800 
    135 H135       -1.5864  -15.3591  -51.4919 H         1 UNK         0.0800 
    136 H136       -3.1574  -17.2734  -50.8196 H         1 UNK         0.1150 
    137 H137       -1.3278  -21.1415  -50.5632 H         1 UNK         0.1150 
    138 H138        1.1166  -17.6371  -50.6950 H         1 UNK         0.1150 
    139 H139        0.9774  -21.4316  -50.5700 H         1 UNK         0.0800 
    140 H140        1.7864  -20.2591  -51.5693 H         1 UNK         0.0800 
    141 H141        0.4431  -19.5179  -47.9549 H         1 UNK         0.0800 
    142 H142        1.9135  -19.4509  -47.0585 H         1 UNK         0.0800 
    143 H143        1.9727  -22.1255  -47.4928 H         1 UNK         0.0600 
    144 H144        1.2201  -20.5724  -45.2858 H         1 UNK         0.3000 
    145 H145        0.3892  -23.1855  -42.9926 H         1 UNK         0.0600 
    146 H146        2.0988  -21.9543  -41.6913 H         1 UNK         0.0600 
    147 H147        2.8654  -22.9212  -42.9427 H         1 UNK         0.0600 
    148 H148        2.7029  -21.1830  -43.1549 H         1 UNK         0.0600 
    149 H149        0.3766  -20.3516  -42.7137 H         1 UNK         0.3000 
    150 H150       -3.0286  -19.8470  -43.7863 H         1 UNK         0.0600 
    151 H151       -3.0523  -20.5183  -41.3779 H         1 UNK         0.0600 
    152 H152       -3.0819  -18.7712  -41.5618 H         1 UNK         0.0600 
    153 H153       -1.5896  -19.5826  -41.0938 H         1 UNK         0.0600 
    154 H154       -1.0933  -17.9666  -42.9398 H         1 UNK         0.3000 
    155 H155        0.4212  -17.3499  -46.1389 H         1 UNK         0.0600 
    156 H156       -1.3833  -15.6894  -44.3024 H         1 UNK         0.0600 
    157 H157       -1.6193  -15.9404  -46.0284 H         1 UNK         0.0600 
    158 H158       -0.2167  -15.0485  -45.4551 H         1 UNK         0.0600 
    159 H159        0.9823  -16.2338  -43.5997 H         1 UNK         0.3000 
    160 H160        3.4145  -18.6699  -42.5501 H         1 UNK         0.0600 
    161 H161        3.5615  -15.7369  -43.4331 H         1 UNK         0.0600 
    162 H162        4.5531  -17.0484  -44.0490 H         1 UNK         0.0600 
    163 H163        4.7058  -16.5558  -42.3704 H         1 UNK         0.0600 
    164 H164        2.2967  -16.3064  -41.3436 H         1 UNK         0.3000 
    165 H165       -0.2793  -17.9473  -39.5151 H         1 UNK         0.0600 
    166 H166        0.9324  -16.9068  -37.6180 H         1 UNK         0.0600 
    167 H167        1.7945  -18.3321  -38.1747 H         1 UNK         0.0600 
    168 H168        2.3854  -16.7308  -38.6024 H         1 UNK         0.0600 
    169 H169        0.6557  -15.2424  -39.5809 H         1 UNK         0.3000 
    170 H170       -1.3835  -14.1277  -42.2853 H         1 UNK         0.0600 
    171 H171       -2.8865  -14.1677  -40.2912 H         1 UNK         0.0600 
    172 H172       -1.5610  -13.6314  -39.2656 H         1 UNK         0.0600 
    173 H173       -2.1851  -12.5762  -40.5340 H         1 UNK         0.0600 
    174 H174        0.3697  -12.7233  -40.5469 H         1 UNK         0.3000 
    175 H175        2.1484  -11.7107  -41.5154 H         1 UNK         0.0600 
    176 H176        3.9930  -14.1723  -41.6730 H         1 UNK         0.0600 
    177 H177        4.4315  -12.5930  -41.0344 H         1 UNK         0.0600 
    178 H178        3.2408  -13.5751  -40.1983 H         1 UNK         0.0600 
    179 H179        2.5960  -12.9149  -44.0734 H         1 UNK         0.3000 
    180 H180        3.2411  -10.1142  -45.4408 H         1 UNK         0.0600 
    181 H181        6.0406  -11.3259  -45.2343 H         1 UNK         0.0600 
    182 H182        5.5935   -9.6406  -45.0443 H         1 UNK         0.0600 
    183 H183        5.4452  -10.4054  -46.6173 H         1 UNK         0.0600 
    184 H184        2.4686  -11.8598  -46.4836 H         1 UNK         0.3000 
    185 H185        3.6746  -14.2375  -48.2028 H         1 UNK         0.0600 
    186 H186        4.1086  -16.0501  -46.5833 H         1 UNK         0.0600 
    187 H187        2.6428  -15.6476  -45.7001 H         1 UNK         0.0600 
    188 H188        2.5412  -16.3085  -47.3323 H         1 UNK         0.0600 
    189 H189        1.0787  -14.0715  -46.7977 H         1 UNK         0.3000 
    190 H190       -1.2739  -20.8436  -46.6299 H         1 UNK         0.3000 
    191 H191       -2.6750  -22.0683  -48.7502 H         1 UNK         0.0600 
    192 H192       -3.6790  -21.1415  -46.0077 H         1 UNK         0.0600 
    193 H193       -4.7010  -21.4897  -47.3982 H         1 UNK         0.0600 
    194 H194       -3.5671  -20.1484  -47.4591 H         1 UNK         0.0600 
    195 H195       -2.0636  -23.2705  -45.4256 H         1 UNK         0.3000 
    196 H196       -3.5790  -25.6457  -45.6239 H         1 UNK         0.0600 
    197 H197       -2.1603  -26.4059  -43.7091 H         1 UNK         0.0600 
    198 H198       -2.7264  -24.7588  -43.4780 H         1 UNK         0.0600 
    199 H199       -1.0627  -25.0570  -43.9769 H         1 UNK         0.0600 
    200 H200       -0.1695  -25.0034  -46.5352 H         1 UNK         0.3000 
    201 H201        0.4484  -27.6870  -47.3322 H         1 UNK         0.0600 
    202 H202        2.1943  -26.0394  -46.7320 H         1 UNK         0.0600 
    203 H203        1.7464  -25.0171  -48.0945 H         1 UNK         0.0600 
    204 H204        2.4447  -26.6078  -48.3763 H         1 UNK         0.0600 
    205 H205       -0.6786  -24.8078  -49.1509 H         1 UNK         0.3000 
    206 H206       -0.6029  -26.0979  -51.7276 H         1 UNK         0.0600 
    207 H207       -0.2794  -23.6518  -51.3989 H         1 UNK         0.0600 
    208 H208       -1.6310  -23.9695  -52.4739 H         1 UNK         0.0600 
    209 H209       -1.9326  -23.5036  -50.7996 H         1 UNK         0.0600 
    210 H210       -2.9542  -26.1123  -49.2202 H         1 UNK         0.3000 
    211 H211       -4.9475  -26.9731  -48.9134 H         1 UNK         0.0600 
    212 H212       -5.0245  -28.0615  -51.7706 H         1 UNK         0.0600 
    213 H213       -6.0310  -28.5507  -50.4188 H         1 UNK         0.0600 
    214 H214       -4.3116  -28.9048  -50.3944 H         1 UNK         0.0600 
    215 H215       -4.4062  -24.3377  -49.9290 H         1 UNK         0.3000 
    216 H216       -5.3565  -22.4057  -50.4383 H         1 UNK         0.0600 
    217 H217       -7.3561  -21.9631  -49.0937 H         1 UNK         0.0600 
    218 H218       -6.3701  -23.1332  -48.2456 H         1 UNK         0.0600 
    219 H219       -7.8041  -23.6711  -49.1089 H         1 UNK         0.0600 
    220 H220       -8.2752  -21.9783  -50.7585 H         1 UNK         0.3000 
    221 H221       -9.8804  -21.6008  -52.1560 H         1 UNK         0.0600 
    222 H222       -8.9763  -24.1152  -53.6464 H         1 UNK         0.0600 
    223 H223      -10.0643  -24.0661  -52.2605 H         1 UNK         0.0600 
    224 H224      -10.5481  -23.3418  -53.7862 H         1 UNK         0.0600 
    225 H225       -6.8759  -22.1177  -53.9709 H         1 UNK         0.3000 
    226 H226       -7.8210  -21.0978  -56.4374 H         1 UNK         0.0600 
    227 H227       -5.8952  -22.6279  -56.2466 H         1 UNK         0.0600 
    228 H228       -5.4085  -21.1630  -57.0879 H         1 UNK         0.0600 
    229 H229       -4.9603  -21.3953  -55.4038 H         1 UNK         0.0600 
    230 H230       -6.2591  -19.4371  -53.7826 H         1 UNK         0.3000 
    231 H231       -5.7923  -17.3597  -53.2205 H         1 UNK         0.0600 
    232 H232       -7.9215  -16.5267  -54.2539 H         1 UNK         0.0600 
    233 H233       -7.0746  -16.2753  -55.7809 H         1 UNK         0.0600 
    234 H234       -6.6107  -15.3601  -54.3584 H         1 UNK         0.0600 
    235 H235       -3.7647  -16.6556  -53.1982 H         1 UNK         0.3000 
    236 H236       -1.5704  -16.5958  -53.5935 H         1 UNK         0.0600 
    237 H237       -0.6885  -15.7527  -55.7293 H         1 UNK         0.0600 
    238 H238       -2.2288  -16.0166  -56.5305 H         1 UNK         0.0600 
    239 H239       -2.0912  -14.8066  -55.2564 H         1 UNK         0.0600 
    240 H240       -2.4112  -18.9133  -53.1069 H         1 UNK         0.3000 
    241 H241       -2.6771  -20.7373  -55.1827 H         1 UNK         0.0600 
    242 H242        1.1959  -21.3765  -54.3378 H         1 UNK         0.3800 
    243 H243        0.3703  -19.9043  -53.8876 H         1 UNK         0.3800 
    244 H244       -3.5230  -22.2303  -53.5937 H         1 UNK         0.0800 
    245 H245       -2.4504  -21.7355  -52.3406 H         1 UNK         0.0800 
    246 H246       -3.7513  -20.8668  -50.1992 H         1 UNK         0.0800 
    247 H247       -4.4970  -19.2999  -50.2586 H         1 UNK         0.0800 
@<TRIPOS>BOND
     1    1    2 1    
     2    1  127 1    
     3    1  128 1    
     4    1  129 1    
     5    2    3 2    
     6    2    4 am   BACKBONE|DICT|INTERRES
     7    4    5 1    
     8    4  130 1    
     9    5    6 1    
    10    5   65 1    
    11    5  131 1    
    12    6    7 1    
    13    6  132 1    
    14    6  133 1    
    15    7    8 1    
    16    8    9 1    
    17    8  134 1    
    18    8  135 1    
    19    9   10 ar   
    20    9   14 ar   
    21   10   11 ar   
    22   10  136 1    
    23   11   12 ar   
    24   11  126 1    
    25   12   13 ar   
    26   12  137 1    
    27   13   14 ar   
    28   13   15 1    
    29   14  138 1    
    30   15   16 1    
    31   15  139 1    
    32   15  140 1    
    33   16   17 1    
    34   17   18 1    
    35   17  141 1    
    36   17  142 1    
    37   18   19 1    
    38   18   67 1    
    39   18  143 1    
    40   19   20 am   BACKBONE|DICT|INTERRES
    41   19  144 1    
    42   20   21 2    
    43   20   22 1    
    44   22   23 1    
    45   22   24 1    
    46   22  145 1    
    47   23  146 1    
    48   23  147 1    
    49   23  148 1    
    50   24   25 am   BACKBONE|DICT|INTERRES
    51   24  149 1    
    52   25   26 2    
    53   25   27 1    
    54   27   28 1    
    55   27   29 1    
    56   27  150 1    
    57   28  151 1    
    58   28  152 1    
    59   28  153 1    
    60   29   30 am   BACKBONE|DICT|INTERRES
    61   29  154 1    
    62   30   31 2    
    63   30   32 1    
    64   32   33 1    
    65   32   34 1    
    66   32  155 1    
    67   33  156 1    
    68   33  157 1    
    69   33  158 1    
    70   34   35 am   BACKBONE|DICT|INTERRES
    71   34  159 1    
    72   35   36 2    
    73   35   37 1    
    74   37   38 1    
    75   37   39 1    
    76   37  160 1    
    77   38  161 1    
    78   38  162 1    
    79   38  163 1    
    80   39   40 am   BACKBONE|DICT|INTERRES
    81   39  164 1    
    82   40   41 2    
    83   40   42 1    
    84   42   43 1    
    85   42   44 1    
    86   42  165 1    
    87   43  166 1    
    88   43  167 1    
    89   43  168 1    
    90   44   45 am   BACKBONE|DICT|INTERRES
    91   44  169 1    
    92   45   46 2    
    93   45   47 1    
    94   47   48 1    
    95   47   49 1    
    96   47  170 1    
    97   48  171 1    
    98   48  172 1    
    99   48  173 1    
   100   49   50 am   BACKBONE|DICT|INTERRES
   101   49  174 1    
   102   50   51 2    
   103   50   52 1    
   104   52   53 1    
   105   52   54 1    
   106   52  175 1    
   107   53  176 1    
   108   53  177 1    
   109   53  178 1    
   110   54   55 am   BACKBONE|DICT|INTERRES
   111   54  179 1    
   112   55   56 2    
   113   55   57 1    
   114   57   58 1    
   115   57   59 1    
   116   57  180 1    
   117   58  181 1    
   118   58  182 1    
   119   58  183 1    
   120   59   60 am   BACKBONE|DICT|INTERRES
   121   59  184 1    
   122   60   61 2    
   123   60   62 1    
   124   62   63 1    
   125   62   64 1    
   126   62  185 1    
   127   63  186 1    
   128   63  187 1    
   129   63  188 1    
   130   64   65 am   BACKBONE|DICT|INTERRES
   131   64  189 1    
   132   65   66 2    
   133   67   68 2    
   134   67   69 am   BACKBONE|DICT|INTERRES
   135   69   70 1    
   136   69  190 1    
   137   70   71 1    
   138   70   72 1    
   139   70  191 1    
   140   71  192 1    
   141   71  193 1    
   142   71  194 1    
   143   72   73 2    
   144   72   74 am   BACKBONE|DICT|INTERRES
   145   74   75 1    
   146   74  195 1    
   147   75   76 1    
   148   75   77 1    
   149   75  196 1    
   150   76  197 1    
   151   76  198 1    
   152   76  199 1    
   153   77   78 2    
   154   77   79 am   BACKBONE|DICT|INTERRES
   155   79   80 1    
   156   79  200 1    
   157   80   81 1    
   158   80   82 1    
   159   80  201 1    
   160   81  202 1    
   161   81  203 1    
   162   81  204 1    
   163   82   83 2    
   164   82   84 am   BACKBONE|DICT|INTERRES
   165   84   85 1    
   166   84  205 1    
   167   85   86 1    
   168   85   87 1    
   169   85  206 1    
   170   86  207 1    
   171   86  208 1    
   172   86  209 1    
   173   87   88 2    
   174   87   89 am   BACKBONE|DICT|INTERRES
   175   89   90 1    
   176   89  210 1    
   177   90   91 1    
   178   90   92 1    
   179   90  211 1    
   180   91  212 1    
   181   91  213 1    
   182   91  214 1    
   183   92   93 2    
   184   92   94 am   BACKBONE|DICT|INTERRES
   185   94   95 1    
   186   94  215 1    
   187   95   96 1    
   188   95   97 1    
   189   95  216 1    
   190   96  217 1    
   191   96  218 1    
   192   96  219 1    
   193   97   98 2    
   194   97   99 am   BACKBONE|DICT|INTERRES
   195   99  100 1    
   196   99  220 1    
   197  100  101 1    
   198  100  102 1    
   199  100  221 1    
   200  101  222 1    
   201  101  223 1    
   202  101  224 1    
   203  102  103 2    
   204  102  104 am   BACKBONE|DICT|INTERRES
   205  104  105 1    
   206  104  225 1    
   207  105  106 1    
   208  105  107 1    
   209  105  226 1    
   210  106  227 1    
   211  106  228 1    
   212  106  229 1    
   213  107  108 2    
   214  107  109 am   BACKBONE|DICT|INTERRES
   215  109  110 1    
   216  109  230 1    
   217  110  111 1    
   218  110  112 1    
   219  110  231 1    
   220  111  232 1    
   221  111  233 1    
   222  111  234 1    
   223  112  113 2    
   224  112  114 am   BACKBONE|DICT|INTERRES
   225  114  115 1    
   226  114  235 1    
   227  115  116 1    
   228  115  117 1    
   229  115  236 1    
   230  116  237 1    
   231  116  238 1    
   232  116  239 1    
   233  117  118 2    
   234  117  119 am   BACKBONE|DICT|INTERRES
   235  119  120 1    
   236  119  240 1    
   237  120  121 1    
   238  120  124 1    
   239  120  241 1    
   240  121  122 am   BACKBONE|DICT|INTERRES
   241  121  123 2    
   242  122  242 1    
   243  122  243 1    
   244  124  125 1    
   245  124  244 1    
   246  124  245 1    
   247  125  126 1    
   248  126  246 1    
   249  126  247 1    
@<TRIPOS>SUBSTRUCTURE
     1 UNK         1 GROUP             0       ****    0 ROOT    
