@<TRIPOS>MOLECULE
3R540
247   249    1
SMALL
USER_CHARGES


@<TRIPOS>ATOM
      1 CA         -0.6037  -18.2810  -49.7401 C.3       0 UNK        -0.1800 
      2 C           0.0323  -16.8993  -49.7735 C.2       0 UNK         0.5000 
      3 O          -0.3529  -16.0584  -50.5859 O.2       0 UNK        -0.5000 
      4 N           1.0088  -16.6586  -48.8888 N.am      1 UNK        -0.5000 
      5 CA          1.7071  -15.3838  -48.6837 C.3       1 UNK         0.1400 
      6 C6          3.0150  -15.5830  -47.8695 C.3       23 UNK        -0.0398 
      7 S7          4.3133  -16.7090  -48.5081 S.3       23 UNK        -0.2404 
      8 C8          4.0364  -16.9454  -50.3018 C.3       23 UNK        -0.0205 
      9 C9          3.3362  -18.2539  -50.6672 C.ar      23 UNK        -0.0193 
     10 C10         2.4503  -18.2846  -51.7485 C.ar      23 UNK        -0.1150 
     11 C11         1.8423  -19.4804  -52.1433 C.ar      23 UNK        -0.0193 
     12 C12         2.1243  -20.6552  -51.4398 C.ar      23 UNK        -0.1150 
     13 C13         3.0048  -20.6484  -50.3555 C.ar      23 UNK        -0.0193 
     14 C14         3.6180  -19.4448  -49.9871 C.ar      23 UNK        -0.1150 
     15 C15         3.3133  -21.9675  -49.6493 C.3       23 UNK        -0.0205 
     16 S16         3.7566  -21.8208  -47.8846 S.3       23 UNK        -0.2404 
     17 C17         2.1915  -21.2579  -47.1368 C.3       23 UNK        -0.0398 
     18 CA          1.3654  -22.4368  -46.5597 C.3       11 UNK         0.1400 
     19 N           0.7574  -22.1198  -45.2650 N.am      11 UNK        -0.5000 
     20 C           0.2310  -23.0347  -44.4385 C.2       10 UNK         0.5000 
     21 O           0.2174  -24.2434  -44.6766 O.2       10 UNK        -0.5000 
     22 CA         -0.4232  -22.5079  -43.1480 C.3       10 UNK         0.1400 
     23 CB          0.6368  -22.1438  -42.0973 C.3       10 UNK        -0.1800 
     24 N          -1.2919  -21.3559  -43.3902 N.am      10 UNK        -0.5000 
     25 C          -2.4201  -21.4040  -44.1123 C.2       9 UNK         0.5000 
     26 O          -2.8573  -22.4298  -44.6323 O.2       9 UNK        -0.5000 
     27 CA         -3.1655  -20.0759  -44.3268 C.3       9 UNK         0.1400 
     28 CB         -4.0289  -19.7277  -43.1060 C.3       9 UNK        -0.1800 
     29 N          -2.2719  -18.9582  -44.6224 N.am      9 UNK        -0.5000 
     30 C          -1.4503  -18.8935  -45.6793 C.2       8 UNK         0.5000 
     31 O          -1.3515  -19.7656  -46.5371 O.2       8 UNK        -0.5000 
     32 CA         -0.5387  -17.6657  -45.7624 C.3       8 UNK         0.1400 
     33 CB         -1.3593  -16.4269  -46.1494 C.3       8 UNK        -0.1800 
     34 N           0.1808  -17.4289  -44.5136 N.am      8 UNK        -0.5000 
     35 C           0.9899  -18.3055  -43.9006 C.2       7 UNK         0.5000 
     36 O           1.2579  -19.4219  -44.3437 O.2       7 UNK        -0.5000 
     37 CA          1.5567  -17.8776  -42.5380 C.3       7 UNK         0.1400 
     38 CB          2.8389  -17.0500  -42.7145 C.3       7 UNK        -0.1800 
     39 N           0.5742  -17.1113  -41.7723 N.am      7 UNK        -0.5000 
     40 C          -0.4965  -17.6471  -41.1703 C.2       6 UNK         0.5000 
     41 O          -0.7289  -18.8564  -41.1362 O.2       6 UNK        -0.5000 
     42 CA         -1.4918  -16.6582  -40.5330 C.3       6 UNK         0.1400 
     43 CB         -1.0074  -16.2192  -39.1431 C.3       6 UNK        -0.1800 
     44 N          -1.7257  -15.4734  -41.3634 N.am      6 UNK        -0.5000 
     45 C          -2.3500  -15.4998  -42.5490 C.2       5 UNK         0.5000 
     46 O          -2.8160  -16.5248  -43.0477 O.2       5 UNK        -0.5000 
     47 CA         -2.4465  -14.1706  -43.3277 C.3       5 UNK         0.1400 
     48 CB         -3.7051  -13.3978  -42.9076 C.3       5 UNK        -0.1800 
     49 N          -1.2827  -13.2785  -43.2355 N.am      5 UNK        -0.5000 
     50 C          -0.0021  -13.6170  -43.4394 C.2       4 UNK         0.5000 
     51 O           0.3830  -14.7746  -43.5947 O.2       4 UNK        -0.5000 
     52 CA          0.9982  -12.4584  -43.5421 C.3       4 UNK         0.1400 
     53 CB          2.4562  -12.9207  -43.3666 C.3       4 UNK        -0.1800 
     54 N           0.8457  -11.8744  -44.8689 N.am      4 UNK        -0.5000 
     55 C           0.5478  -10.5969  -45.1342 C.2       3 UNK         0.5000 
     56 O           0.4269   -9.7300  -44.2676 O.2       3 UNK        -0.5000 
     57 CA          0.3349  -10.2157  -46.6159 C.3       3 UNK         0.1400 
     58 CB          1.6224   -9.6195  -47.2052 C.3       3 UNK        -0.1800 
     59 N          -0.0971  -11.3337  -47.4589 N.am      3 UNK        -0.5000 
     60 C          -1.2596  -11.9876  -47.3328 C.2       2 UNK         0.5000 
     61 O          -2.1424  -11.6558  -46.5409 O.2       2 UNK        -0.5000 
     62 CA         -1.4815  -13.2278  -48.2230 C.3       2 UNK         0.1400 
     63 CB         -2.3324  -12.8496  -49.4448 C.3       2 UNK        -0.1800 
     64 N          -0.2898  -13.9471  -48.6963 N.am      2 UNK        -0.5000 
     65 C           0.7755  -14.3555  -47.9921 C.2       1 UNK         0.5000 
     66 O           1.0122  -13.9899  -46.8401 O.2       1 UNK        -0.5000 
     67 C           0.3179  -22.9471  -47.5687 C.2       11 UNK         0.5000 
     68 O           0.5642  -23.9392  -48.2527 O.2       11 UNK        -0.5000 
     69 N          -0.8496  -22.2925  -47.6122 N.am      12 UNK        -0.5000 
     70 CA         -1.9841  -22.6597  -48.4553 C.3       12 UNK         0.1400 
     71 CB         -3.0639  -21.5806  -48.3533 C.3       12 UNK        -0.1800 
     72 C          -2.5668  -24.0409  -48.1220 C.2       12 UNK         0.5000 
     73 O          -2.9212  -24.7743  -49.0428 O.2       12 UNK        -0.5000 
     74 N          -2.6174  -24.3953  -46.8303 N.am      13 UNK        -0.5000 
     75 CA         -3.0275  -25.7192  -46.3596 C.3       13 UNK         0.1400 
     76 CB         -3.1693  -25.7065  -44.8304 C.3       13 UNK        -0.1800 
     77 C          -2.0659  -26.8351  -46.8098 C.2       13 UNK         0.5000 
     78 O          -2.5257  -27.9200  -47.1670 O.2       13 UNK        -0.5000 
     79 N          -0.7578  -26.5418  -46.8155 N.am      14 UNK        -0.5000 
     80 CA          0.2854  -27.4418  -47.3085 C.3       14 UNK         0.1400 
     81 CB          1.6557  -26.9638  -46.8031 C.3       14 UNK        -0.1800 
     82 C           0.2739  -27.5660  -48.8445 C.2       14 UNK         0.5000 
     83 O           0.4252  -28.6709  -49.3669 O.2       14 UNK        -0.5000 
     84 N           0.0822  -26.4351  -49.5371 N.am      15 UNK        -0.5000 
     85 CA          0.0241  -26.3408  -50.9978 C.3       15 UNK         0.1400 
     86 CB          0.2203  -24.8709  -51.4051 C.3       15 UNK        -0.1800 
     87 C          -1.2805  -26.8885  -51.6111 C.2       15 UNK         0.5000 
     88 O          -1.2967  -27.1838  -52.8066 O.2       15 UNK        -0.5000 
     89 N          -2.3423  -26.9855  -50.7971 N.am      16 UNK        -0.5000 
     90 CA         -3.7328  -27.2746  -51.1661 C.3       16 UNK         0.1400 
     91 CB         -3.8802  -28.6935  -51.7548 C.3       16 UNK        -0.1800 
     92 C          -4.3117  -26.1629  -52.0674 C.2       16 UNK         0.5000 
     93 O          -4.8662  -26.4395  -53.1332 O.2       16 UNK        -0.5000 
     94 N          -4.1325  -24.9166  -51.6185 N.am      17 UNK        -0.5000 
     95 CA         -4.5052  -23.6834  -52.3053 C.3       17 UNK         0.1400 
     96 CB         -3.2101  -22.9853  -52.7572 C.3       17 UNK        -0.1800 
     97 C          -5.3410  -22.7824  -51.3756 C.2       17 UNK         0.5000 
     98 O          -5.6903  -23.1904  -50.2652 O.2       17 UNK        -0.5000 
     99 N          -5.6532  -21.5690  -51.8471 N.am      18 UNK        -0.5000 
    100 CA        -6.3006  -20.5127  -51.0685 C.3       18 UNK         0.1400 
    101 CB        -7.1772  -19.6698  -52.0074 C.3       18 UNK        -0.1800 
    102 C         -5.2458  -19.6260  -50.3817 C.2       18 UNK         0.5000 
    103 O         -4.1524  -19.4442  -50.9205 O.2       18 UNK        -0.5000 
    104 N         -5.5980  -19.0803  -49.2089 N.am      19 UNK        -0.5000 
    105 CA        -4.7334  -18.2001  -48.4153 C.3       19 UNK         0.1400 
    106 CB        -5.2790  -18.1081  -46.9825 C.3       19 UNK        -0.1800 
    107 C         -4.5862  -16.7955  -49.0260 C.2       19 UNK         0.5000 
    108 O         -3.5208  -16.1908  -48.9160 O.2       19 UNK        -0.5000 
    109 N         -5.6457  -16.3057  -49.6826 N.am      20 UNK        -0.5000 
    110 CA        -5.6992  -15.0089  -50.3611 C.3       20 UNK         0.1400 
    111 CB        -7.1621  -14.5296  -50.3872 C.3       20 UNK        -0.1800 
    112 C         -5.0654  -15.0824  -51.7673 C.2       20 UNK         0.5000 
    113 O         -5.7207  -14.7453  -52.7551 O.2       20 UNK        -0.5000 
    114 N         -3.8066  -15.5416  -51.8101 N.am      21 UNK        -0.5000 
    115 CA        -2.9918  -15.9113  -52.9712 C.3       21 UNK         0.1400 
    116 CB        -2.8718  -14.7618  -53.9908 C.3       21 UNK        -0.1800 
    117 C         -3.4684  -17.2183  -53.6338 C.2       21 UNK         0.5000 
    118 O         -4.6666  -17.5006  -53.6922 O.2       21 UNK        -0.5000 
    119 N         -2.5032  -17.9981  -54.1321 N.am      22 UNK        -0.5000 
    120 CA        -2.7294  -19.3370  -54.7035 C.3       22 UNK         0.1400 
    121 C         -3.3958  -19.3533  -56.1114 C.2       22 UNK         0.5000 
    122 N         -3.5273  -18.2280  -56.8029 N.am      22 UNK        -0.7600 
    123 O         -3.8059  -20.4100  -56.5832 O.2       22 UNK        -0.5000 
    124 C124       -1.4369  -20.1937  -54.7036 C.3       23 UNK        -0.0398 
    125 S125       -0.6624  -20.3279  -53.0548 S.3       23 UNK        -0.2404 
    126 C126        0.9347  -19.5085  -53.3668 C.3       23 UNK        -0.0205 
    127 H127       -1.4201  -18.3009  -49.0196 H         1 UNK         0.0600 
    128 H128        0.1207  -19.0478  -49.4642 H         1 UNK         0.0600 
    129 H129       -1.0121  -18.5355  -50.7174 H         1 UNK         0.0600 
    130 H130        1.3137  -17.4078  -48.2866 H         1 UNK         0.3000 
    131 H131        1.9612  -14.9598  -49.6556 H         1 UNK         0.0600 
    132 H132        2.7729  -15.9360  -46.8647 H         1 UNK         0.0800 
    133 H133        3.5002  -14.6157  -47.7259 H         1 UNK         0.0800 
    134 H134        3.5200  -16.0870  -50.7285 H         1 UNK         0.0800 
    135 H135        5.0150  -16.9621  -50.7826 H         1 UNK         0.0800 
    136 H136        2.2467  -17.3751  -52.2962 H         1 UNK         0.1150 
    137 H137        1.6667  -21.5840  -51.7515 H         1 UNK         0.1150 
    138 H138        4.3317  -19.4353  -49.1767 H         1 UNK         0.1150 
    139 H139        2.4667  -22.6492  -49.7390 H         1 UNK         0.0800 
    140 H140        4.1441  -22.4435  -50.1712 H         1 UNK         0.0800 
    141 H141        1.6206  -20.6496  -47.8411 H         1 UNK         0.0800 
    142 H142        2.4806  -20.5740  -46.3388 H         1 UNK         0.0800 
    143 H143        2.0448  -23.2707  -46.3680 H         1 UNK         0.0600 
    144 H144        0.7551  -21.1421  -44.9846 H         1 UNK         0.3000 
    145 H145       -1.0408  -23.3105  -42.7392 H         1 UNK         0.0600 
    146 H146        0.1726  -21.8254  -41.1636 H         1 UNK         0.0600 
    147 H147        1.2705  -23.0020  -41.8705 H         1 UNK         0.0600 
    148 H148        1.2865  -21.3377  -42.4379 H         1 UNK         0.0600 
    149 H149       -0.9991  -20.4698  -43.0006 H         1 UNK         0.3000 
    150 H150       -3.8253  -20.2089  -45.1849 H         1 UNK         0.0600 
    151 H151       -4.7114  -20.5430  -42.8627 H         1 UNK         0.0600 
    152 H152       -4.6345  -18.8407  -43.2941 H         1 UNK         0.0600 
    153 H153       -3.4175  -19.5328  -42.2238 H         1 UNK         0.0600 
    154 H154       -2.3036  -18.1701  -43.9813 H         1 UNK         0.3000 
    155 H155        0.2138  -17.8458  -46.5303 H         1 UNK         0.0600 
    156 H156       -0.8400  -15.5043  -45.9029 H         1 UNK         0.0600 
    157 H157       -1.5534  -16.4201  -47.2203 H         1 UNK         0.0600 
    158 H158       -2.3284  -16.3954  -45.6529 H         1 UNK         0.0600 
    159 H159        0.0848  -16.5040  -44.1001 H         1 UNK         0.3000 
    160 H160        1.8089  -18.7807  -41.9783 H         1 UNK         0.0600 
    161 H161        2.6602  -16.1392  -43.2865 H         1 UNK         0.0600 
    162 H162        3.6003  -17.6235  -43.2445 H         1 UNK         0.0600 
    163 H163        3.2593  -16.7635  -41.7506 H         1 UNK         0.0600 
    164 H164        0.6390  -16.1045  -41.8419 H         1 UNK         0.3000 
    165 H165       -2.4437  -17.1800  -40.4115 H         1 UNK         0.0600 
    166 H166       -1.7450  -15.5851  -38.6508 H         1 UNK         0.0600 
    167 H167       -0.8403  -17.0827  -38.4978 H         1 UNK         0.0600 
    168 H168       -0.0701  -15.6641  -39.1983 H         1 UNK         0.0600 
    169 H169       -1.3644  -14.5935  -41.0261 H         1 UNK         0.3000 
    170 H170       -2.5567  -14.4245  -44.3824 H         1 UNK         0.0600 
    171 H171       -4.5949  -14.0240  -42.9878 H         1 UNK         0.0600 
    172 H172       -3.6384  -13.0514  -41.8755 H         1 UNK         0.0600 
    173 H173       -3.8648  -12.5280  -43.5454 H         1 UNK         0.0600 
    174 H174       -1.4955  -12.2963  -43.1366 H         1 UNK         0.3000 
    175 H175        0.7644  -11.7378  -42.7560 H         1 UNK         0.0600 
    176 H176        2.5973  -13.4146  -42.4045 H         1 UNK         0.0600 
    177 H177        2.7533  -13.6241  -44.1461 H         1 UNK         0.0600 
    178 H178        3.1421  -12.0745  -43.4037 H         1 UNK         0.0600 
    179 H179        0.8893  -12.5401  -45.6387 H         1 UNK         0.3000 
    180 H180       -0.4436   -9.4508  -46.6487 H         1 UNK         0.0600 
    181 H181        2.4330  -10.3493  -47.2188 H         1 UNK         0.0600 
    182 H182        1.9607   -8.7637  -46.6195 H         1 UNK         0.0600 
    183 H183        1.4654   -9.2710  -48.2262 H         1 UNK         0.0600 
    184 H184        0.5750  -11.6879  -48.1231 H         1 UNK         0.3000 
    185 H185       -2.0543  -13.9398  -47.6264 H         1 UNK         0.0600 
    186 H186       -3.2689  -12.3786  -49.1433 H         1 UNK         0.0600 
    187 H187       -1.8067  -12.1529  -50.0987 H         1 UNK         0.0600 
    188 H188       -2.5872  -13.7305  -50.0323 H         1 UNK         0.0600 
    189 H189       -0.3949  -14.3851  -49.6072 H         1 UNK         0.3000 
    190 H190       -0.9736  -21.4556  -47.0448 H         1 UNK         0.3000 
    191 H191       -1.6345  -22.6887  -49.4888 H         1 UNK         0.0600 
    192 H192       -3.3857  -21.4221  -47.3241 H         1 UNK         0.0600 
    193 H193       -3.9449  -21.8491  -48.9305 H         1 UNK         0.0600 
    194 H194       -2.6933  -20.6354  -48.7471 H         1 UNK         0.0600 
    195 H195       -2.3724  -23.7134  -46.1194 H         1 UNK         0.3000 
    196 H196       -4.0082  -25.9362  -46.7882 H         1 UNK         0.0600 
    197 H197       -3.4709  -26.6858  -44.4568 H         1 UNK         0.0600 
    198 H198       -3.9273  -24.9907  -44.5119 H         1 UNK         0.0600 
    199 H199       -2.2321  -25.4412  -44.3403 H         1 UNK         0.0600 
    200 H200       -0.4616  -25.6287  -46.4946 H         1 UNK         0.3000 
    201 H201        0.1036  -28.4352  -46.8927 H         1 UNK         0.0600 
    202 H202        1.6804  -26.9216  -45.7140 H         1 UNK         0.0600 
    203 H203        1.9058  -25.9721  -47.1800 H         1 UNK         0.0600 
    204 H204        2.4467  -27.6440  -47.1212 H         1 UNK         0.0600 
    205 H205        0.0449  -25.5557  -49.0265 H         1 UNK         0.3000 
    206 H206        0.8507  -26.9222  -51.4112 H         1 UNK         0.0600 
    207 H207       -0.5773  -24.2382  -51.0149 H         1 UNK         0.0600 
    208 H208        0.2240  -24.7599  -52.4901 H         1 UNK         0.0600 
    209 H209        1.1687  -24.4810  -51.0355 H         1 UNK         0.0600 
    210 H210       -2.2208  -26.6356  -49.8546 H         1 UNK         0.3000 
    211 H211       -4.3046  -27.2454  -50.2374 H         1 UNK         0.0600 
    212 H212       -3.3863  -28.7907  -52.7218 H         1 UNK         0.0600 
    213 H213       -4.9313  -28.9440  -51.9012 H         1 UNK         0.0600 
    214 H214       -3.4577  -29.4425  -51.0852 H         1 UNK         0.0600 
    215 H215       -3.7297  -24.7953  -50.6906 H         1 UNK         0.3000 
    216 H216       -5.1163  -23.9054  -53.1823 H         1 UNK         0.0600 
    217 H217       -2.6238  -22.6350  -51.9065 H         1 UNK         0.0600 
    218 H218       -3.4246  -22.1242  -53.3880 H         1 UNK         0.0600 
    219 H219       -2.5802  -23.6578  -53.3400 H         1 UNK         0.0600 
    220 H220       -5.2911  -21.2872  -52.7456 H         1 UNK         0.3000 
    221 H221       -6.9426  -20.9562  -50.3043 H         1 UNK         0.0600 
    222 H222       -7.9478  -20.2796  -52.4793 H         1 UNK         0.0600 
    223 H223       -6.5883  -19.2040  -52.7983 H         1 UNK         0.0600 
    224 H224       -7.6830  -18.8717  -51.4626 H         1 UNK         0.0600 
    225 H225       -6.5110  -19.2801  -48.8262 H         1 UNK         0.3000 
    226 H226       -3.7373  -18.6411  -48.3656 H         1 UNK         0.0600 
    227 H227       -5.3869  -19.0967  -46.5376 H         1 UNK         0.0600 
    228 H228       -4.6045  -17.5355  -46.3443 H         1 UNK         0.0600 
    229 H229       -6.2543  -17.6209  -46.9518 H         1 UNK         0.0600 
    230 H230       -6.4658  -16.8874  -49.7652 H         1 UNK         0.3000 
    231 H231       -5.1252  -14.2805  -49.7846 H         1 UNK         0.0600 
    232 H232       -7.7993  -15.2101  -50.9535 H         1 UNK         0.0600 
    233 H233       -7.2429  -13.5433  -50.8457 H         1 UNK         0.0600 
    234 H234       -7.5686  -14.4503  -49.3788 H         1 UNK         0.0600 
    235 H235       -3.4007  -15.7999  -50.9163 H         1 UNK         0.3000 
    236 H236       -1.9950  -16.0967  -52.5722 H         1 UNK         0.0600 
    237 H237       -2.5663  -13.8345  -53.5061 H         1 UNK         0.0600 
    238 H238       -2.1226  -14.9943  -54.7482 H         1 UNK         0.0600 
    239 H239       -3.8103  -14.5770  -54.5137 H         1 UNK         0.0600 
    240 H240       -1.5408  -17.7063  -54.0560 H         1 UNK         0.3000 
    241 H241       -3.4407  -19.8371  -54.0435 H         1 UNK         0.0600 
    242 H242       -3.9644  -18.2509  -57.7109 H         1 UNK         0.3800 
    243 H243       -3.2084  -17.3523  -56.4212 H         1 UNK         0.3800 
    244 H244       -0.7178  -19.7903  -55.4184 H         1 UNK         0.0800 
    245 H245       -1.6546  -21.2087  -55.0405 H         1 UNK         0.0800 
    246 H246        1.4550  -20.0318  -54.1701 H         1 UNK         0.0800 
    247 H247        0.7451  -18.4953  -53.7240 H         1 UNK         0.0800 
@<TRIPOS>BOND
     1    1    2 1    
     2    1  127 1    
     3    1  128 1    
     4    1  129 1    
     5    2    3 2    
     6    2    4 am   BACKBONE|DICT|INTERRES
     7    4    5 1    
     8    4  130 1    
     9    5    6 1    
    10    5   65 1    
    11    5  131 1    
    12    6    7 1    
    13    6  132 1    
    14    6  133 1    
    15    7    8 1    
    16    8    9 1    
    17    8  134 1    
    18    8  135 1    
    19    9   10 ar   
    20    9   14 ar   
    21   10   11 ar   
    22   10  136 1    
    23   11   12 ar   
    24   11  126 1    
    25   12   13 ar   
    26   12  137 1    
    27   13   14 ar   
    28   13   15 1    
    29   14  138 1    
    30   15   16 1    
    31   15  139 1    
    32   15  140 1    
    33   16   17 1    
    34   17   18 1    
    35   17  141 1    
    36   17  142 1    
    37   18   19 1    
    38   18   67 1    
    39   18  143 1    
    40   19   20 am   BACKBONE|DICT|INTERRES
    41   19  144 1    
    42   20   21 2    
    43   20   22 1    
    44   22   23 1    
    45   22   24 1    
    46   22  145 1    
    47   23  146 1    
    48   23  147 1    
    49   23  148 1    
    50   24   25 am   BACKBONE|DICT|INTERRES
    51   24  149 1    
    52   25   26 2    
    53   25   27 1    
    54   27   28 1    
    55   27   29 1    
    56   27  150 1    
    57   28  151 1    
    58   28  152 1    
    59   28  153 1    
    60   29   30 am   BACKBONE|DICT|INTERRES
    61   29  154 1    
    62   30   31 2    
    63   30   32 1    
    64   32   33 1    
    65   32   34 1    
    66   32  155 1    
    67   33  156 1    
    68   33  157 1    
    69   33  158 1    
    70   34   35 am   BACKBONE|DICT|INTERRES
    71   34  159 1    
    72   35   36 2    
    73   35   37 1    
    74   37   38 1    
    75   37   39 1    
    76   37  160 1    
    77   38  161 1    
    78   38  162 1    
    79   38  163 1    
    80   39   40 am   BACKBONE|DICT|INTERRES
    81   39  164 1    
    82   40   41 2    
    83   40   42 1    
    84   42   43 1    
    85   42   44 1    
    86   42  165 1    
    87   43  166 1    
    88   43  167 1    
    89   43  168 1    
    90   44   45 am   BACKBONE|DICT|INTERRES
    91   44  169 1    
    92   45   46 2    
    93   45   47 1    
    94   47   48 1    
    95   47   49 1    
    96   47  170 1    
    97   48  171 1    
    98   48  172 1    
    99   48  173 1    
   100   49   50 am   BACKBONE|DICT|INTERRES
   101   49  174 1    
   102   50   51 2    
   103   50   52 1    
   104   52   53 1    
   105   52   54 1    
   106   52  175 1    
   107   53  176 1    
   108   53  177 1    
   109   53  178 1    
   110   54   55 am   BACKBONE|DICT|INTERRES
   111   54  179 1    
   112   55   56 2    
   113   55   57 1    
   114   57   58 1    
   115   57   59 1    
   116   57  180 1    
   117   58  181 1    
   118   58  182 1    
   119   58  183 1    
   120   59   60 am   BACKBONE|DICT|INTERRES
   121   59  184 1    
   122   60   61 2    
   123   60   62 1    
   124   62   63 1    
   125   62   64 1    
   126   62  185 1    
   127   63  186 1    
   128   63  187 1    
   129   63  188 1    
   130   64   65 am   BACKBONE|DICT|INTERRES
   131   64  189 1    
   132   65   66 2    
   133   67   68 2    
   134   67   69 am   BACKBONE|DICT|INTERRES
   135   69   70 1    
   136   69  190 1    
   137   70   71 1    
   138   70   72 1    
   139   70  191 1    
   140   71  192 1    
   141   71  193 1    
   142   71  194 1    
   143   72   73 2    
   144   72   74 am   BACKBONE|DICT|INTERRES
   145   74   75 1    
   146   74  195 1    
   147   75   76 1    
   148   75   77 1    
   149   75  196 1    
   150   76  197 1    
   151   76  198 1    
   152   76  199 1    
   153   77   78 2    
   154   77   79 am   BACKBONE|DICT|INTERRES
   155   79   80 1    
   156   79  200 1    
   157   80   81 1    
   158   80   82 1    
   159   80  201 1    
   160   81  202 1    
   161   81  203 1    
   162   81  204 1    
   163   82   83 2    
   164   82   84 am   BACKBONE|DICT|INTERRES
   165   84   85 1    
   166   84  205 1    
   167   85   86 1    
   168   85   87 1    
   169   85  206 1    
   170   86  207 1    
   171   86  208 1    
   172   86  209 1    
   173   87   88 2    
   174   87   89 am   BACKBONE|DICT|INTERRES
   175   89   90 1    
   176   89  210 1    
   177   90   91 1    
   178   90   92 1    
   179   90  211 1    
   180   91  212 1    
   181   91  213 1    
   182   91  214 1    
   183   92   93 2    
   184   92   94 am   BACKBONE|DICT|INTERRES
   185   94   95 1    
   186   94  215 1    
   187   95   96 1    
   188   95   97 1    
   189   95  216 1    
   190   96  217 1    
   191   96  218 1    
   192   96  219 1    
   193   97   98 2    
   194   97   99 am   BACKBONE|DICT|INTERRES
   195   99  100 1    
   196   99  220 1    
   197  100  101 1    
   198  100  102 1    
   199  100  221 1    
   200  101  222 1    
   201  101  223 1    
   202  101  224 1    
   203  102  103 2    
   204  102  104 am   BACKBONE|DICT|INTERRES
   205  104  105 1    
   206  104  225 1    
   207  105  106 1    
   208  105  107 1    
   209  105  226 1    
   210  106  227 1    
   211  106  228 1    
   212  106  229 1    
   213  107  108 2    
   214  107  109 am   BACKBONE|DICT|INTERRES
   215  109  110 1    
   216  109  230 1    
   217  110  111 1    
   218  110  112 1    
   219  110  231 1    
   220  111  232 1    
   221  111  233 1    
   222  111  234 1    
   223  112  113 2    
   224  112  114 am   BACKBONE|DICT|INTERRES
   225  114  115 1    
   226  114  235 1    
   227  115  116 1    
   228  115  117 1    
   229  115  236 1    
   230  116  237 1    
   231  116  238 1    
   232  116  239 1    
   233  117  118 2    
   234  117  119 am   BACKBONE|DICT|INTERRES
   235  119  120 1    
   236  119  240 1    
   237  120  121 1    
   238  120  124 1    
   239  120  241 1    
   240  121  122 am   BACKBONE|DICT|INTERRES
   241  121  123 2    
   242  122  242 1    
   243  122  243 1    
   244  124  125 1    
   245  124  244 1    
   246  124  245 1    
   247  125  126 1    
   248  126  246 1    
   249  126  247 1    
@<TRIPOS>SUBSTRUCTURE
     1 UNK         1 GROUP             0       ****    0 ROOT    
