@<TRIPOS>MOLECULE
3R540
247   249    1
SMALL
USER_CHARGES


@<TRIPOS>ATOM
      1 CA          5.3497  -13.2198  -52.5772 C.3       0 UNK        -0.1800 
      2 C           4.6003  -12.8382  -51.3082 C.2       0 UNK         0.5000 
      3 O           4.7280  -11.7077  -50.8365 O.2       0 UNK        -0.5000 
      4 N           3.8280  -13.7777  -50.7515 N.am      1 UNK        -0.5000 
      5 CA          2.9904  -13.5773  -49.5666 C.3       1 UNK         0.1400 
      6 C6          2.4810  -14.9193  -48.9847 C.3       23 UNK        -0.0398 
      7 S7          3.7928  -16.0103  -48.3384 S.3       23 UNK        -0.2404 
      8 C8          3.9470  -17.2812  -49.6372 C.3       23 UNK        -0.0205 
      9 C9          2.6817  -18.1108  -49.8182 C.ar      23 UNK        -0.0193 
     10 C10         1.8120  -17.8351  -50.8760 C.ar      23 UNK        -0.1150 
     11 C11         0.6472  -18.5832  -51.0532 C.ar      23 UNK        -0.0193 
     12 C12         0.3789  -19.6504  -50.1928 C.ar      23 UNK        -0.1150 
     13 C13         1.2511  -19.9627  -49.1462 C.ar      23 UNK        -0.0193 
     14 C14         2.3913  -19.1694  -48.9513 C.ar      23 UNK        -0.1150 
     15 C15         0.9231  -21.1475  -48.2397 C.3       23 UNK        -0.0205 
     16 S16         2.3956  -22.0770  -47.6943 S.3       23 UNK        -0.2404 
     17 C17         1.8900  -23.8171  -47.9285 C.3       23 UNK        -0.0398 
     18 CA          1.1431  -24.4561  -46.7271 C.3       11 UNK         0.1400 
     19 N           1.7049  -24.0581  -45.4333 N.am      11 UNK        -0.5000 
     20 C           1.3761  -24.5755  -44.2435 C.2       10 UNK         0.5000 
     21 O           0.5777  -25.5013  -44.1035 O.2       10 UNK        -0.5000 
     22 CA          2.0132  -23.9265  -42.9995 C.3       10 UNK         0.1400 
     23 CB          3.2368  -24.7350  -42.5431 C.3       10 UNK        -0.1800 
     24 N           2.4058  -22.5222  -43.1736 N.am      10 UNK        -0.5000 
     25 C           1.5694  -21.5157  -43.4635 C.2       9 UNK         0.5000 
     26 O           0.3763  -21.6772  -43.7283 O.2       9 UNK        -0.5000 
     27 CA          2.1870  -20.1041  -43.4842 C.3       9 UNK         0.1400 
     28 CB          2.6585  -19.7289  -44.8970 C.3       9 UNK        -0.1800 
     29 N           1.2495  -19.0897  -43.0073 N.am      9 UNK        -0.5000 
     30 C           0.8309  -18.9692  -41.7406 C.2       8 UNK         0.5000 
     31 O           1.2370  -19.6780  -40.8179 O.2       8 UNK        -0.5000 
     32 CA         -0.2023  -17.8662  -41.4409 C.3       8 UNK         0.1400 
     33 CB          0.5000  -16.5712  -41.0045 C.3       8 UNK        -0.1800 
     34 N          -1.0835  -17.5788  -42.5726 N.am      8 UNK        -0.5000 
     35 C          -2.0783  -18.3790  -42.9806 C.2       7 UNK         0.5000 
     36 O          -2.3903  -19.4265  -42.4135 O.2       7 UNK        -0.5000 
     37 CA         -2.8710  -17.9247  -44.2218 C.3       7 UNK         0.1400 
     38 CB         -4.0062  -16.9792  -43.7968 C.3       7 UNK        -0.1800 
     39 N          -2.0407  -17.2698  -45.2359 N.am      7 UNK        -0.5000 
     40 C          -1.0378  -17.8651  -45.9003 C.2       6 UNK         0.5000 
     41 O          -0.7333  -19.0455  -45.7617 O.2       6 UNK        -0.5000 
     42 CA         -0.1889  -16.9820  -46.8286 C.3       6 UNK         0.1400 
     43 CB         -0.8953  -16.7472  -48.1700 C.3       6 UNK        -0.1800 
     44 N           0.1329  -15.6977  -46.2149 N.am      6 UNK        -0.5000 
     45 C           0.8722  -15.5358  -45.1102 C.2       5 UNK         0.5000 
     46 O           1.4218  -16.4574  -44.5092 O.2       5 UNK        -0.5000 
     47 CA          0.9618  -14.1054  -44.5531 C.3       5 UNK         0.1400 
     48 CB          2.0499  -13.2957  -45.2742 C.3       5 UNK        -0.1800 
     49 N          -0.3209  -13.4061  -44.6474 N.am      5 UNK        -0.5000 
     50 C          -1.3913  -13.6945  -43.8942 C.2       4 UNK         0.5000 
     51 O          -1.3916  -14.5532  -43.0127 O.2       4 UNK        -0.5000 
     52 CA         -2.6836  -12.9114  -44.1925 C.3       4 UNK         0.1400 
     53 CB         -2.6838  -11.5672  -43.4494 C.3       4 UNK        -0.1800 
     54 N          -2.8895  -12.6736  -45.6224 N.am      4 UNK        -0.5000 
     55 C          -3.1882  -13.6311  -46.5119 C.2       3 UNK         0.5000 
     56 O          -3.3321  -14.8167  -46.2161 O.2       3 UNK        -0.5000 
     57 CA         -3.2893  -13.1948  -47.9880 C.3       3 UNK         0.1400 
     58 CB         -4.6830  -12.6184  -48.2793 C.3       3 UNK        -0.1800 
     59 N          -2.2611  -12.2282  -48.4016 N.am      3 UNK        -0.5000 
     60 C          -0.9424  -12.4354  -48.2874 C.2       2 UNK         0.5000 
     61 O          -0.4641  -13.4341  -47.7466 O.2       2 UNK        -0.5000 
     62 CA          0.0048  -11.3362  -48.8101 C.3       2 UNK         0.1400 
     63 CB          0.0212  -10.1404  -47.8446 C.3       2 UNK        -0.1800 
     64 N           1.3648  -11.8699  -48.9139 N.am      2 UNK        -0.5000 
     65 C           1.7729  -12.6865  -49.8928 C.2       1 UNK         0.5000 
     66 O           1.1854  -12.8145  -50.9699 O.2       1 UNK        -0.5000 
     67 C          -0.3854  -24.2603  -46.8289 C.2       11 UNK         0.5000 
     68 O          -1.0260  -25.0150  -47.5590 O.2       11 UNK        -0.5000 
     69 N          -0.9606  -23.3139  -46.0693 N.am      12 UNK        -0.5000 
     70 CA         -2.4070  -23.0775  -46.0184 C.3       12 UNK         0.1400 
     71 CB         -2.6910  -21.6763  -45.4601 C.3       12 UNK        -0.1800 
     72 C          -3.2088  -24.1595  -45.2664 C.2       12 UNK         0.5000 
     73 O          -4.4390  -24.1334  -45.3192 O.2       12 UNK        -0.5000 
     74 N          -2.5255  -25.1108  -44.6111 N.am      13 UNK        -0.5000 
     75 CA         -3.1371  -26.3342  -44.0836 C.3       13 UNK         0.1400 
     76 CB         -2.1824  -26.9822  -43.0695 C.3       13 UNK        -0.1800 
     77 C          -3.5066  -27.3388  -45.1977 C.2       13 UNK         0.5000 
     78 O          -4.2989  -28.2489  -44.9500 O.2       13 UNK        -0.5000 
     79 N          -2.9328  -27.1574  -46.3937 N.am      14 UNK        -0.5000 
     80 CA         -3.2155  -27.9067  -47.6116 C.3       14 UNK         0.1400 
     81 CB         -1.8922  -28.5150  -48.1124 C.3       14 UNK        -0.1800 
     82 C          -3.8270  -26.9640  -48.6655 C.2       14 UNK         0.5000 
     83 O          -4.0041  -25.7702  -48.4151 O.2       14 UNK        -0.5000 
     84 N          -4.1177  -27.5147  -49.8501 N.am      15 UNK        -0.5000 
     85 CA         -4.6003  -26.7742  -51.0212 C.3       15 UNK         0.1400 
     86 CB         -5.3858  -27.7433  -51.9205 C.3       15 UNK        -0.1800 
     87 C          -3.4706  -26.0801  -51.8160 C.2       15 UNK         0.5000 
     88 O          -3.7498  -25.4772  -52.8541 O.2       15 UNK        -0.5000 
     89 N          -2.2210  -26.1959  -51.3409 N.am      16 UNK        -0.5000 
     90 CA         -0.9999  -25.6512  -51.9350 C.3       16 UNK         0.1400 
     91 CB          0.1855  -25.9630  -51.0091 C.3       16 UNK        -0.1800 
     92 C          -1.0995  -24.1403  -52.2144 C.2       16 UNK         0.5000 
     93 O          -1.3433  -23.3602  -51.2909 O.2       16 UNK        -0.5000 
     94 N          -0.9630  -23.7770  -53.4982 N.am      17 UNK        -0.5000 
     95 CA         -1.0884  -22.4247  -54.0594 C.3       17 UNK         0.1400 
     96 CB          0.0891  -21.5438  -53.5953 C.3       17 UNK        -0.1800 
     97 C          -2.4654  -21.7636  -53.8111 C.2       17 UNK         0.5000 
     98 O          -2.5652  -20.5371  -53.8340 O.2       17 UNK        -0.5000 
     99 N          -3.4968  -22.5913  -53.5775 N.am      18 UNK        -0.5000 
    100 CA        -4.8601  -22.2316  -53.1751 C.3       18 UNK         0.1400 
    101 CB        -5.5632  -21.3820  -54.2547 C.3       18 UNK        -0.1800 
    102 C         -4.9399  -21.6081  -51.7638 C.2       18 UNK         0.5000 
    103 O         -5.9083  -20.9081  -51.4627 O.2       18 UNK        -0.5000 
    104 N         -3.9436  -21.8934  -50.9098 N.am      19 UNK        -0.5000 
    105 CA        -3.8103  -21.4144  -49.5329 C.3       19 UNK         0.1400 
    106 CB        -4.8900  -22.0617  -48.6337 C.3       19 UNK        -0.1800 
    107 C         -3.7705  -19.8719  -49.4702 C.2       19 UNK         0.5000 
    108 O         -2.9545  -19.2634  -50.1589 O.2       19 UNK        -0.5000 
    109 N         -4.6481  -19.2624  -48.6638 N.am      20 UNK        -0.5000 
    110 CA        -4.7376  -17.8152  -48.4605 C.3       20 UNK         0.1400 
    111 CB        -5.6157  -17.5565  -47.2286 C.3       20 UNK        -0.1800 
    112 C         -5.2795  -17.0299  -49.6733 C.2       20 UNK         0.5000 
    113 O         -5.1384  -15.8058  -49.7043 O.2       20 UNK        -0.5000 
    114 N         -5.8992  -17.7235  -50.6421 N.am      21 UNK        -0.5000 
    115 CA        -6.5902  -17.1312  -51.7934 C.3       21 UNK         0.1400 
    116 CB        -7.3521  -18.2263  -52.5532 C.3       21 UNK        -0.1800 
    117 C         -5.6883  -16.3357  -52.7580 C.2       21 UNK         0.5000 
    118 O         -6.2124  -15.5490  -53.5483 O.2       21 UNK        -0.5000 
    119 N         -4.3649  -16.5256  -52.6737 N.am      22 UNK        -0.5000 
    120 CA        -3.3697  -15.6918  -53.3635 C.3       22 UNK         0.1400 
    121 C         -3.2483  -14.2351  -52.8176 C.2       22 UNK         0.5000 
    122 N         -3.7897  -13.9101  -51.6481 N.am      22 UNK        -0.7600 
    123 O         -2.6701  -13.3790  -53.4815 O.2       22 UNK        -0.5000 
    124 C124       -1.9934  -16.3957  -53.4604 C.3       23 UNK        -0.0398 
    125 S125       -1.1842  -16.6760  -51.8478 S.3       23 UNK        -0.2404 
    126 C126       -0.3119  -18.2356  -52.1790 C.3       23 UNK        -0.0205 
    127 H127        6.4236  -13.1073  -52.4273 H         1 UNK         0.0600 
    128 H128        5.0492  -12.5708  -53.3998 H         1 UNK         0.0600 
    129 H129        5.1538  -14.2519  -52.8695 H         1 UNK         0.0600 
    130 H130        3.7419  -14.6764  -51.2007 H         1 UNK         0.3000 
    131 H131        3.5937  -13.0778  -48.8051 H         1 UNK         0.0600 
    132 H132        1.8124  -14.7316  -48.1460 H         1 UNK         0.0800 
    133 H133        1.8752  -15.4440  -49.7211 H         1 UNK         0.0800 
    134 H134        4.2309  -16.8054  -50.5766 H         1 UNK         0.0800 
    135 H135        4.7735  -17.9439  -49.3769 H         1 UNK         0.0800 
    136 H136        2.0261  -17.0209  -51.5538 H         1 UNK         0.1150 
    137 H137       -0.5157  -20.2392  -50.3396 H         1 UNK         0.1150 
    138 H138        3.0647  -19.3799  -48.1327 H         1 UNK         0.1150 
    139 H139        0.3897  -20.7861  -47.3609 H         1 UNK         0.0800 
    140 H140        0.2383  -21.8234  -48.7545 H         1 UNK         0.0800 
    141 H141        1.3291  -23.9159  -48.8594 H         1 UNK         0.0800 
    142 H142        2.8095  -24.3791  -48.0969 H         1 UNK         0.0800 
    143 H143        1.2960  -25.5351  -46.8019 H         1 UNK         0.0600 
    144 H144        2.3503  -23.2818  -45.4580 H         1 UNK         0.3000 
    145 H145        1.2661  -23.9602  -42.2038 H         1 UNK         0.0600 
    146 H146        3.6373  -24.3508  -41.6047 H         1 UNK         0.0600 
    147 H147        2.9750  -25.7811  -42.3777 H         1 UNK         0.0600 
    148 H148        4.0350  -24.7100  -43.2859 H         1 UNK         0.0600 
    149 H149        3.3754  -22.3087  -42.9889 H         1 UNK         0.3000 
    150 H150        3.0546  -20.0931  -42.8213 H         1 UNK         0.0600 
    151 H151        3.4059  -20.4342  -45.2611 H         1 UNK         0.0600 
    152 H152        3.1127  -18.7380  -44.9132 H         1 UNK         0.0600 
    153 H153        1.8336  -19.7268  -45.6091 H         1 UNK         0.0600 
    154 H154        0.8737  -18.4587  -43.7041 H         1 UNK         0.3000 
    155 H155       -0.8183  -18.2105  -40.6076 H         1 UNK         0.0600 
    156 H156        1.1407  -16.7466  -40.1394 H         1 UNK         0.0600 
    157 H157       -0.2234  -15.8056  -40.7234 H         1 UNK         0.0600 
    158 H158        1.1257  -16.1647  -41.7992 H         1 UNK         0.0600 
    159 H159       -0.9327  -16.7026  -43.0575 H         1 UNK         0.3000 
    160 H160       -3.3143  -18.8109  -44.6797 H         1 UNK         0.0600 
    161 H161       -3.6222  -16.0861  -43.3038 H         1 UNK         0.0600 
    162 H162       -4.6827  -17.4729  -43.0983 H         1 UNK         0.0600 
    163 H163       -4.6009  -16.6530  -44.6481 H         1 UNK         0.0600 
    164 H164       -2.2663  -16.3034  -45.4512 H         1 UNK         0.3000 
    165 H165        0.7491  -17.5060  -47.0247 H         1 UNK         0.0600 
    166 H166       -0.2403  -16.2387  -48.8759 H         1 UNK         0.0600 
    167 H167       -1.1912  -17.6913  -48.6285 H         1 UNK         0.0600 
    168 H168       -1.7909  -16.1382  -48.0555 H         1 UNK         0.0600 
    169 H169       -0.2451  -14.8706  -46.6725 H         1 UNK         0.3000 
    170 H170        1.2381  -14.1761  -43.4988 H         1 UNK         0.0600 
    171 H171        3.0136  -13.8039  -45.2206 H         1 UNK         0.0600 
    172 H172        1.8151  -13.1509  -46.3271 H         1 UNK         0.0600 
    173 H173        2.1742  -12.3124  -44.8203 H         1 UNK         0.0600 
    174 H174       -0.4215  -12.7366  -45.3953 H         1 UNK         0.3000 
    175 H175       -3.5227  -13.5044  -43.8221 H         1 UNK         0.0600 
    176 H176       -1.8804  -10.9148  -43.7939 H         1 UNK         0.0600 
    177 H177       -3.6279  -11.0402  -43.5885 H         1 UNK         0.0600 
    178 H178       -2.5502  -11.7147  -42.3769 H         1 UNK         0.0600 
    179 H179       -2.7806  -11.7259  -45.9516 H         1 UNK         0.3000 
    180 H180       -3.1578  -14.0896  -48.5999 H         1 UNK         0.0600 
    181 H181       -4.8700  -11.7060  -47.7119 H         1 UNK         0.0600 
    182 H182       -5.4617  -13.3360  -48.0160 H         1 UNK         0.0600 
    183 H183       -4.8054  -12.3869  -49.3369 H         1 UNK         0.0600 
    184 H184       -2.5896  -11.3748  -48.8296 H         1 UNK         0.3000 
    185 H185       -0.3398  -11.0052  -49.7920 H         1 UNK         0.0600 
    186 H186       -0.9669   -9.6862  -47.7623 H         1 UNK         0.0600 
    187 H187        0.3323  -10.4345  -46.8411 H         1 UNK         0.0600 
    188 H188        0.7038   -9.3646  -48.1920 H         1 UNK         0.0600 
    189 H189        1.9090  -11.8306  -48.0655 H         1 UNK         0.3000 
    190 H190       -0.3884  -22.7531  -45.4463 H         1 UNK         0.3000 
    191 H191       -2.7765  -23.1007  -47.0445 H         1 UNK         0.0600 
    192 H192       -2.1854  -21.5046  -44.5096 H         1 UNK         0.0600 
    193 H193       -3.7570  -21.5145  -45.2969 H         1 UNK         0.0600 
    194 H194       -2.3626  -20.9162  -46.1661 H         1 UNK         0.0600 
    195 H195       -1.5134  -25.0664  -44.5870 H         1 UNK         0.3000 
    196 H196       -4.0567  -26.0659  -43.5593 H         1 UNK         0.0600 
    197 H197       -2.6545  -27.8360  -42.5820 H         1 UNK         0.0600 
    198 H198       -1.8954  -26.2785  -42.2879 H         1 UNK         0.0600 
    199 H199       -1.2721  -27.3437  -43.5487 H         1 UNK         0.0600 
    200 H200       -2.3569  -26.3349  -46.5353 H         1 UNK         0.3000 
    201 H201       -3.9307  -28.7088  -47.4194 H         1 UNK         0.0600 
    202 H202       -1.4358  -29.1417  -47.3458 H         1 UNK         0.0600 
    203 H203       -1.1699  -27.7428  -48.3813 H         1 UNK         0.0600 
    204 H204       -2.0450  -29.1451  -48.9889 H         1 UNK         0.0600 
    205 H205       -3.9513  -28.5017  -49.9866 H         1 UNK         0.3000 
    206 H206       -5.2858  -25.9911  -50.6904 H         1 UNK         0.0600 
    207 H207       -6.2105  -28.2050  -51.3770 H         1 UNK         0.0600 
    208 H208       -5.8170  -27.2241  -52.7775 H         1 UNK         0.0600 
    209 H209       -4.7488  -28.5403  -52.3061 H         1 UNK         0.0600 
    210 H210       -2.1058  -26.6755  -50.4620 H         1 UNK         0.3000 
    211 H211       -0.8377  -26.1747  -52.8792 H         1 UNK         0.0600 
    212 H212        1.1133  -25.5463  -51.4031 H         1 UNK         0.0600 
    213 H213        0.3309  -27.0380  -50.9014 H         1 UNK         0.0600 
    214 H214        0.0322  -25.5461  -50.0140 H         1 UNK         0.0600 
    215 H215       -0.7980  -24.5051  -54.1797 H         1 UNK         0.3000 
    216 H216       -1.0061  -22.5364  -55.1413 H         1 UNK         0.0600 
    217 H217        0.0853  -20.5800  -54.1050 H         1 UNK         0.0600 
    218 H218        1.0460  -22.0180  -53.8124 H         1 UNK         0.0600 
    219 H219        0.0486  -21.3512  -52.5237 H         1 UNK         0.0600 
    220 H220       -3.3094  -23.5889  -53.5611 H         1 UNK         0.3000 
    221 H221       -5.4029  -23.1751  -53.1065 H         1 UNK         0.0600 
    222 H222       -6.6247  -21.2696  -54.0320 H         1 UNK         0.0600 
    223 H223       -5.4877  -21.8500  -55.2361 H         1 UNK         0.0600 
    224 H224       -5.1382  -20.3807  -54.3261 H         1 UNK         0.0600 
    225 H225       -3.1556  -22.4354  -51.2498 H         1 UNK         0.3000 
    226 H226       -2.8351  -21.7568  -49.1834 H         1 UNK         0.0600 
    227 H227       -4.8250  -23.1490  -48.6747 H         1 UNK         0.0600 
    228 H228       -4.7660  -21.7770  -47.5891 H         1 UNK         0.0600 
    229 H229       -5.9010  -21.7842  -48.9331 H         1 UNK         0.0600 
    230 H230       -5.3109  -19.8300  -48.1565 H         1 UNK         0.3000 
    231 H231       -3.7358  -17.4409  -48.2479 H         1 UNK         0.0600 
    232 H232       -5.6178  -16.4971  -46.9679 H         1 UNK         0.0600 
    233 H233       -5.2488  -18.1064  -46.3626 H         1 UNK         0.0600 
    234 H234       -6.6502  -17.8560  -47.4011 H         1 UNK         0.0600 
    235 H235       -5.9311  -18.7330  -50.5720 H         1 UNK         0.3000 
    236 H236       -7.3249  -16.4281  -51.3959 H         1 UNK         0.0600 
    237 H237       -7.9991  -18.7990  -51.8885 H         1 UNK         0.0600 
    238 H238       -7.9838  -17.7950  -53.3306 H         1 UNK         0.0600 
    239 H239       -6.6676  -18.9199  -53.0397 H         1 UNK         0.0600 
    240 H240       -4.0054  -17.1806  -51.9929 H         1 UNK         0.3000 
    241 H241       -3.7221  -15.5790  -54.3906 H         1 UNK         0.0600 
    242 H242       -3.7132  -12.9614  -51.3235 H         1 UNK         0.3800 
    243 H243       -4.2625  -14.6046  -51.0793 H         1 UNK         0.3800 
    244 H244       -2.1189  -17.3544  -53.9666 H         1 UNK         0.0800 
    245 H245       -1.3139  -15.8168  -54.0881 H         1 UNK         0.0800 
    246 H246       -1.0508  -19.0265  -52.3099 H         1 UNK         0.0800 
    247 H247        0.2417  -18.1586  -53.1157 H         1 UNK         0.0800 
@<TRIPOS>BOND
     1    1    2 1    
     2    1  127 1    
     3    1  128 1    
     4    1  129 1    
     5    2    3 2    
     6    2    4 am   BACKBONE|DICT|INTERRES
     7    4    5 1    
     8    4  130 1    
     9    5    6 1    
    10    5   65 1    
    11    5  131 1    
    12    6    7 1    
    13    6  132 1    
    14    6  133 1    
    15    7    8 1    
    16    8    9 1    
    17    8  134 1    
    18    8  135 1    
    19    9   10 ar   
    20    9   14 ar   
    21   10   11 ar   
    22   10  136 1    
    23   11   12 ar   
    24   11  126 1    
    25   12   13 ar   
    26   12  137 1    
    27   13   14 ar   
    28   13   15 1    
    29   14  138 1    
    30   15   16 1    
    31   15  139 1    
    32   15  140 1    
    33   16   17 1    
    34   17   18 1    
    35   17  141 1    
    36   17  142 1    
    37   18   19 1    
    38   18   67 1    
    39   18  143 1    
    40   19   20 am   BACKBONE|DICT|INTERRES
    41   19  144 1    
    42   20   21 2    
    43   20   22 1    
    44   22   23 1    
    45   22   24 1    
    46   22  145 1    
    47   23  146 1    
    48   23  147 1    
    49   23  148 1    
    50   24   25 am   BACKBONE|DICT|INTERRES
    51   24  149 1    
    52   25   26 2    
    53   25   27 1    
    54   27   28 1    
    55   27   29 1    
    56   27  150 1    
    57   28  151 1    
    58   28  152 1    
    59   28  153 1    
    60   29   30 am   BACKBONE|DICT|INTERRES
    61   29  154 1    
    62   30   31 2    
    63   30   32 1    
    64   32   33 1    
    65   32   34 1    
    66   32  155 1    
    67   33  156 1    
    68   33  157 1    
    69   33  158 1    
    70   34   35 am   BACKBONE|DICT|INTERRES
    71   34  159 1    
    72   35   36 2    
    73   35   37 1    
    74   37   38 1    
    75   37   39 1    
    76   37  160 1    
    77   38  161 1    
    78   38  162 1    
    79   38  163 1    
    80   39   40 am   BACKBONE|DICT|INTERRES
    81   39  164 1    
    82   40   41 2    
    83   40   42 1    
    84   42   43 1    
    85   42   44 1    
    86   42  165 1    
    87   43  166 1    
    88   43  167 1    
    89   43  168 1    
    90   44   45 am   BACKBONE|DICT|INTERRES
    91   44  169 1    
    92   45   46 2    
    93   45   47 1    
    94   47   48 1    
    95   47   49 1    
    96   47  170 1    
    97   48  171 1    
    98   48  172 1    
    99   48  173 1    
   100   49   50 am   BACKBONE|DICT|INTERRES
   101   49  174 1    
   102   50   51 2    
   103   50   52 1    
   104   52   53 1    
   105   52   54 1    
   106   52  175 1    
   107   53  176 1    
   108   53  177 1    
   109   53  178 1    
   110   54   55 am   BACKBONE|DICT|INTERRES
   111   54  179 1    
   112   55   56 2    
   113   55   57 1    
   114   57   58 1    
   115   57   59 1    
   116   57  180 1    
   117   58  181 1    
   118   58  182 1    
   119   58  183 1    
   120   59   60 am   BACKBONE|DICT|INTERRES
   121   59  184 1    
   122   60   61 2    
   123   60   62 1    
   124   62   63 1    
   125   62   64 1    
   126   62  185 1    
   127   63  186 1    
   128   63  187 1    
   129   63  188 1    
   130   64   65 am   BACKBONE|DICT|INTERRES
   131   64  189 1    
   132   65   66 2    
   133   67   68 2    
   134   67   69 am   BACKBONE|DICT|INTERRES
   135   69   70 1    
   136   69  190 1    
   137   70   71 1    
   138   70   72 1    
   139   70  191 1    
   140   71  192 1    
   141   71  193 1    
   142   71  194 1    
   143   72   73 2    
   144   72   74 am   BACKBONE|DICT|INTERRES
   145   74   75 1    
   146   74  195 1    
   147   75   76 1    
   148   75   77 1    
   149   75  196 1    
   150   76  197 1    
   151   76  198 1    
   152   76  199 1    
   153   77   78 2    
   154   77   79 am   BACKBONE|DICT|INTERRES
   155   79   80 1    
   156   79  200 1    
   157   80   81 1    
   158   80   82 1    
   159   80  201 1    
   160   81  202 1    
   161   81  203 1    
   162   81  204 1    
   163   82   83 2    
   164   82   84 am   BACKBONE|DICT|INTERRES
   165   84   85 1    
   166   84  205 1    
   167   85   86 1    
   168   85   87 1    
   169   85  206 1    
   170   86  207 1    
   171   86  208 1    
   172   86  209 1    
   173   87   88 2    
   174   87   89 am   BACKBONE|DICT|INTERRES
   175   89   90 1    
   176   89  210 1    
   177   90   91 1    
   178   90   92 1    
   179   90  211 1    
   180   91  212 1    
   181   91  213 1    
   182   91  214 1    
   183   92   93 2    
   184   92   94 am   BACKBONE|DICT|INTERRES
   185   94   95 1    
   186   94  215 1    
   187   95   96 1    
   188   95   97 1    
   189   95  216 1    
   190   96  217 1    
   191   96  218 1    
   192   96  219 1    
   193   97   98 2    
   194   97   99 am   BACKBONE|DICT|INTERRES
   195   99  100 1    
   196   99  220 1    
   197  100  101 1    
   198  100  102 1    
   199  100  221 1    
   200  101  222 1    
   201  101  223 1    
   202  101  224 1    
   203  102  103 2    
   204  102  104 am   BACKBONE|DICT|INTERRES
   205  104  105 1    
   206  104  225 1    
   207  105  106 1    
   208  105  107 1    
   209  105  226 1    
   210  106  227 1    
   211  106  228 1    
   212  106  229 1    
   213  107  108 2    
   214  107  109 am   BACKBONE|DICT|INTERRES
   215  109  110 1    
   216  109  230 1    
   217  110  111 1    
   218  110  112 1    
   219  110  231 1    
   220  111  232 1    
   221  111  233 1    
   222  111  234 1    
   223  112  113 2    
   224  112  114 am   BACKBONE|DICT|INTERRES
   225  114  115 1    
   226  114  235 1    
   227  115  116 1    
   228  115  117 1    
   229  115  236 1    
   230  116  237 1    
   231  116  238 1    
   232  116  239 1    
   233  117  118 2    
   234  117  119 am   BACKBONE|DICT|INTERRES
   235  119  120 1    
   236  119  240 1    
   237  120  121 1    
   238  120  124 1    
   239  120  241 1    
   240  121  122 am   BACKBONE|DICT|INTERRES
   241  121  123 2    
   242  122  242 1    
   243  122  243 1    
   244  124  125 1    
   245  124  244 1    
   246  124  245 1    
   247  125  126 1    
   248  126  246 1    
   249  126  247 1    
@<TRIPOS>SUBSTRUCTURE
     1 UNK         1 GROUP             0       ****    0 ROOT    
