@<TRIPOS>MOLECULE
3R540
247   249    1
SMALL
USER_CHARGES


@<TRIPOS>ATOM
      1 CA         -1.4335  -13.7123  -53.8677 C.3       0 UNK        -0.1800 
      2 C          -1.4217  -13.8180  -52.3494 C.2       0 UNK         0.5000 
      3 O          -0.7925  -14.7239  -51.8023 O.2       0 UNK        -0.5000 
      4 N          -2.1041  -12.8915  -51.6637 N.am      1 UNK        -0.5000 
      5 CA         -2.2179  -12.8233  -50.2026 C.3       1 UNK         0.1400 
      6 C6         -3.5338  -12.1134  -49.7838 C.3       23 UNK        -0.0398 
      7 S7         -3.9331  -12.2416  -48.0036 S.3       23 UNK        -0.2404 
      8 C8         -4.9182  -13.7761  -47.9287 C.3       23 UNK        -0.0205 
      9 C9         -4.0995  -15.0243  -48.2358 C.ar      23 UNK        -0.0193 
     10 C10        -4.5705  -15.9673  -49.1544 C.ar      23 UNK        -0.1150 
     11 C11        -3.8201  -17.1096  -49.4513 C.ar      23 UNK        -0.0193 
     12 C12        -2.5851  -17.3023  -48.8260 C.ar      23 UNK        -0.1150 
     13 C13        -2.1061  -16.3703  -47.9012 C.ar      23 UNK        -0.0193 
     14 C14        -2.8725  -15.2428  -47.6014 C.ar      23 UNK        -0.1150 
     15 C15        -0.7683  -16.5856  -47.2118 C.3       23 UNK        -0.0205 
     16 S16        -0.9472  -16.8957  -45.4223 S.3       23 UNK        -0.2404 
     17 C17        -2.1238  -18.2924  -45.4010 C.3       23 UNK        -0.0398 
     18 CA         -1.4719  -19.6150  -45.8585 C.3       11 UNK         0.1400 
     19 N          -0.3818  -20.0580  -44.9863 N.am      11 UNK        -0.5000 
     20 C           0.5533  -20.9388  -45.3661 C.2       10 UNK         0.5000 
     21 O           0.5734  -21.4693  -46.4766 O.2       10 UNK        -0.5000 
     22 CA          1.6227  -21.3246  -44.3318 C.3       10 UNK         0.1400 
     23 CB          2.7228  -20.2555  -44.2559 C.3       10 UNK        -0.1800 
     24 N           1.0844  -21.5729  -42.9949 N.am      10 UNK        -0.5000 
     25 C           0.2299  -22.5591  -42.6875 C.2       9 UNK         0.5000 
     26 O          -0.2834  -23.3038  -43.5230 O.2       9 UNK        -0.5000 
     27 CA         -0.1103  -22.7394  -41.2003 C.3       9 UNK         0.1400 
     28 CB          1.0651  -23.3849  -40.4492 C.3       9 UNK        -0.1800 
     29 N          -0.4285  -21.4542  -40.5847 N.am      9 UNK        -0.5000 
     30 C          -1.6705  -20.9859  -40.4047 C.2       8 UNK         0.5000 
     31 O          -2.6891  -21.6288  -40.6598 O.2       8 UNK        -0.5000 
     32 CA         -1.8059  -19.5467  -39.8639 C.3       8 UNK         0.1400 
     33 CB         -1.9511  -19.5595  -38.3347 C.3       8 UNK        -0.1800 
     34 N          -0.6956  -18.6628  -40.2296 N.am      8 UNK        -0.5000 
     35 C          -0.3423  -18.3565  -41.4855 C.2       7 UNK         0.5000 
     36 O          -0.9179  -18.7918  -42.4797 O.2       7 UNK        -0.5000 
     37 CA          0.9057  -17.4757  -41.6659 C.3       7 UNK         0.1400 
     38 CB          0.5293  -15.9871  -41.6413 C.3       7 UNK        -0.1800 
     39 N           1.9674  -17.7260  -40.6874 N.am      7 UNK        -0.5000 
     40 C           2.5429  -18.9064  -40.4191 C.2       6 UNK         0.5000 
     41 O           2.1627  -19.9766  -40.8994 O.2       6 UNK        -0.5000 
     42 CA          3.7637  -18.8668  -39.4765 C.3       6 UNK         0.1400 
     43 CB          4.3071  -20.2716  -39.1582 C.3       6 UNK        -0.1800 
     44 N           4.8428  -18.0632  -40.0538 N.am      6 UNK        -0.5000 
     45 C           4.8869  -16.7249  -40.0846 C.2       5 UNK         0.5000 
     46 O           4.0459  -16.0102  -39.5328 O.2       5 UNK        -0.5000 
     47 CA          6.0346  -16.0624  -40.8786 C.3       5 UNK         0.1400 
     48 CB          6.9138  -17.0557  -41.6728 C.3       5 UNK        -0.1800 
     49 N           5.5424  -14.9990  -41.7630 N.am      5 UNK        -0.5000 
     50 C           4.6330  -15.1200  -42.7412 C.2       4 UNK         0.5000 
     51 O           4.0759  -16.1779  -43.0501 O.2       4 UNK        -0.5000 
     52 CA          4.3082  -13.8382  -43.5221 C.3       4 UNK         0.1400 
     53 CB          5.4422  -13.4981  -44.5095 C.3       4 UNK        -0.1800 
     54 N           3.0556  -14.0400  -44.2420 N.am      4 UNK        -0.5000 
     55 C           2.3058  -13.0881  -44.8034 C.2       3 UNK         0.5000 
     56 O           2.5775  -11.8854  -44.7699 O.2       3 UNK        -0.5000 
     57 CA          1.0257  -13.5585  -45.5168 C.3       3 UNK         0.1400 
     58 CB         -0.2264  -13.1651  -44.7181 C.3       3 UNK        -0.1800 
     59 N           0.9314  -13.0038  -46.8675 N.am      3 UNK        -0.5000 
     60 C           1.7351  -13.3439  -47.8833 C.2       2 UNK         0.5000 
     61 O           2.5927  -14.2256  -47.8045 O.2       2 UNK        -0.5000 
     62 CA          1.5021  -12.6043  -49.2132 C.3       2 UNK         0.1400 
     63 CB          2.5547  -12.9522  -50.2813 C.3       2 UNK        -0.1800 
     64 N           0.1821  -12.9405  -49.7382 N.am      2 UNK        -0.5000 
     65 C          -0.9357  -12.2259  -49.5735 C.2       1 UNK         0.5000 
     66 O          -0.9637  -11.1450  -48.9827 O.2       1 UNK        -0.5000 
     67 C          -2.5318  -20.7115  -46.0474 C.2       11 UNK         0.5000 
     68 O          -3.0932  -20.8137  -47.1368 O.2       11 UNK        -0.5000 
     69 N          -2.7556  -21.5374  -45.0148 N.am      12 UNK        -0.5000 
     70 CA         -3.6327  -22.7064  -45.0819 C.3       12 UNK         0.1400 
     71 CB         -3.8505  -23.2787  -43.6733 C.3       12 UNK        -0.1800 
     72 C          -3.0811  -23.7740  -46.0426 C.2       12 UNK         0.5000 
     73 O          -3.8317  -24.2930  -46.8687 O.2       12 UNK        -0.5000 
     74 N          -1.7684  -24.0348  -45.9568 N.am      13 UNK        -0.5000 
     75 CA         -1.0361  -24.9106  -46.8701 C.3       13 UNK         0.1400 
     76 CB          0.3984  -25.1094  -46.3583 C.3       13 UNK        -0.1800 
     77 C          -1.0405  -24.3863  -48.3173 C.2       13 UNK         0.5000 
     78 O          -1.3081  -25.1596  -49.2360 O.2       13 UNK        -0.5000 
     79 N          -0.7904  -23.0806  -48.4937 N.am      14 UNK        -0.5000 
     80 CA         -0.8230  -22.3978  -49.7884 C.3       14 UNK         0.1400 
     81 CB         -0.3440  -20.9493  -49.6255 C.3       14 UNK        -0.1800 
     82 C          -2.2103  -22.4369  -50.4519 C.2       14 UNK         0.5000 
     83 O          -2.3024  -22.7604  -51.6356 O.2       14 UNK        -0.5000 
     84 N          -3.2627  -22.1499  -49.6730 N.am      15 UNK        -0.5000 
     85 CA         -4.6571  -22.2140  -50.1111 C.3       15 UNK         0.1400 
     86 CB         -5.5674  -21.6253  -49.0233 C.3       15 UNK        -0.1800 
     87 C          -5.1078  -23.6394  -50.4773 C.2       15 UNK         0.5000 
     88 O          -5.8859  -23.8016  -51.4149 O.2       15 UNK        -0.5000 
     89 N          -4.6070  -24.6507  -49.7555 N.am      16 UNK        -0.5000 
     90 CA         -4.8508  -26.0602  -50.0586 C.3       16 UNK         0.1400 
     91 CB         -4.4406  -26.9266  -48.8579 C.3       16 UNK        -0.1800 
     92 C          -4.1277  -26.5175  -51.3395 C.2       16 UNK         0.5000 
     93 O          -4.7242  -27.2237  -52.1533 O.2       16 UNK        -0.5000 
     94 N          -2.8592  -26.1151  -51.4905 N.am      17 UNK        -0.5000 
     95 CA         -1.9903  -26.5182  -52.5937 C.3       17 UNK         0.1400 
     96 CB         -0.5248  -26.2678  -52.2034 C.3       17 UNK        -0.1800 
     97 C          -2.3175  -25.8187  -53.9240 C.2       17 UNK         0.5000 
     98 O          -2.4086  -26.4921  -54.9515 O.2       17 UNK        -0.5000 
     99 N          -2.4494  -24.4867  -53.8919 N.am      18 UNK        -0.5000 
    100 CA        -2.5208  -23.6374  -55.0841 C.3       18 UNK         0.1400 
    101 CB        -1.5053  -22.4953  -54.9258 C.3       18 UNK        -0.1800 
    102 C         -3.9257  -23.0733  -55.3539 C.2       18 UNK         0.5000 
    103 O         -4.0904  -22.3323  -56.3246 O.2       18 UNK        -0.5000 
    104 N         -4.9099  -23.4049  -54.5062 N.am      19 UNK        -0.5000 
    105 CA        -6.2867  -22.9018  -54.5477 C.3       19 UNK         0.1400 
    106 CB        -7.0280  -23.4375  -55.7954 C.3       19 UNK        -0.1800 
    107 C         -6.3240  -21.3651  -54.3898 C.2       19 UNK         0.5000 
    108 O         -5.6236  -20.8264  -53.5305 O.2       19 UNK        -0.5000 
    109 N         -7.1184  -20.6833  -55.2242 N.am      20 UNK        -0.5000 
    110 CA        -7.2938  -19.2298  -55.2249 C.3       20 UNK         0.1400 
    111 CB        -8.5249  -18.8871  -56.0790 C.3       20 UNK        -0.1800 
    112 C         -6.0622  -18.4352  -55.7082 C.2       20 UNK         0.5000 
    113 O         -6.0233  -17.2213  -55.5029 O.2       20 UNK        -0.5000 
    114 N         -5.0912  -19.1037  -56.3500 N.am      21 UNK        -0.5000 
    115 CA        -3.8471  -18.4829  -56.8113 C.3       21 UNK         0.1400 
    116 CB        -3.1835  -19.3773  -57.8692 C.3       21 UNK        -0.1800 
    117 C         -2.8682  -18.1873  -55.6592 C.2       21 UNK         0.5000 
    118 O         -2.1015  -17.2291  -55.7568 O.2       21 UNK        -0.5000 
    119 N         -2.9159  -19.0081  -54.5991 N.am      22 UNK        -0.5000 
    120 CA        -2.1395  -18.8763  -53.3500 C.3       22 UNK         0.1400 
    121 C         -0.5902  -19.0120  -53.4995 C.2       22 UNK         0.5000 
    122 N         -0.0613  -19.4495  -54.6352 N.am      22 UNK        -0.7600 
    123 O          0.1516  -18.7471  -52.5586 O.2       22 UNK        -0.5000 
    124 C124       -2.5324  -17.6141  -52.5319 C.3       23 UNK        -0.0398 
    125 S125       -4.3164  -17.5392  -52.1497 S.3       23 UNK        -0.2404 
    126 C126       -4.3544  -18.1420  -50.4337 C.3       23 UNK        -0.0205 
    127 H127       -1.9994  -12.8456  -54.2098 H         1 UNK         0.0600 
    128 H128       -1.8821  -14.6047  -54.3042 H         1 UNK         0.0600 
    129 H129       -0.4147  -13.6239  -54.2448 H         1 UNK         0.0600 
    130 H130       -2.5690  -12.1520  -52.1711 H         1 UNK         0.3000 
    131 H131       -2.2794  -13.8510  -49.8475 H         1 UNK         0.0600 
    132 H132       -3.4950  -11.0557  -50.0493 H         1 UNK         0.0800 
    133 H133       -4.3712  -12.5288  -50.3462 H         1 UNK         0.0800 
    134 H134       -5.7674  -13.6877  -48.6080 H         1 UNK         0.0800 
    135 H135       -5.3348  -13.8752  -46.9257 H         1 UNK         0.0800 
    136 H136       -5.5221  -15.8153  -49.6444 H         1 UNK         0.1150 
    137 H137       -2.0017  -18.1826  -49.0535 H         1 UNK         0.1150 
    138 H138       -2.5052  -14.5272  -46.8801 H         1 UNK         0.1150 
    139 H139       -0.2215  -17.4105  -47.6702 H         1 UNK         0.0800 
    140 H140       -0.1509  -15.7008  -47.3620 H         1 UNK         0.0800 
    141 H141       -2.9807  -18.0423  -46.0279 H         1 UNK         0.0800 
    142 H142       -2.5292  -18.3903  -44.3940 H         1 UNK         0.0800 
    143 H143       -1.0451  -19.4379  -46.8460 H         1 UNK         0.0600 
    144 H144       -0.3724  -19.6665  -44.0477 H         1 UNK         0.3000 
    145 H145        2.0841  -22.2539  -44.6726 H         1 UNK         0.0600 
    146 H146        3.5153  -20.5515  -43.5682 H         1 UNK         0.0600 
    147 H147        3.1811  -20.0975  -45.2329 H         1 UNK         0.0600 
    148 H148        2.3315  -19.2963  -43.9202 H         1 UNK         0.0600 
    149 H149        1.4635  -21.0013  -42.2435 H         1 UNK         0.3000 
    150 H150       -0.9640  -23.4169  -41.1306 H         1 UNK         0.0600 
    151 H151        1.3305  -24.3456  -40.8921 H         1 UNK         0.0600 
    152 H152        0.8097  -23.5675  -39.4053 H         1 UNK         0.0600 
    153 H153        1.9563  -22.7561  -40.4688 H         1 UNK         0.0600 
    154 H154        0.3552  -20.8383  -40.4014 H         1 UNK         0.3000 
    155 H155       -2.7175  -19.1238  -40.2913 H         1 UNK         0.0600 
    156 H156       -1.0536  -19.9450  -37.8492 H         1 UNK         0.0600 
    157 H157       -2.7872  -20.1888  -38.0267 H         1 UNK         0.0600 
    158 H158       -2.1402  -18.5582  -37.9472 H         1 UNK         0.0600 
    159 H159       -0.1510  -18.2773  -39.4724 H         1 UNK         0.3000 
    160 H160        1.3175  -17.6943  -42.6516 H         1 UNK         0.0600 
    161 H161       -0.2461  -15.7693  -42.3771 H         1 UNK         0.0600 
    162 H162        1.3880  -15.3594  -41.8804 H         1 UNK         0.0600 
    163 H163        0.1521  -15.6831  -40.6643 H         1 UNK         0.0600 
    164 H164        2.3920  -16.9066  -40.2657 H         1 UNK         0.3000 
    165 H165        3.4402  -18.4125  -38.5378 H         1 UNK         0.0600 
    166 H166        5.1393  -20.2225  -38.4559 H         1 UNK         0.0600 
    167 H167        3.5362  -20.8952  -38.7035 H         1 UNK         0.0600 
    168 H168        4.6556  -20.7832  -40.0564 H         1 UNK         0.0600 
    169 H169        5.5495  -18.5725  -40.5641 H         1 UNK         0.3000 
    170 H170        6.6717  -15.5773  -40.1378 H         1 UNK         0.0600 
    171 H171        7.4008  -17.7728  -41.0109 H         1 UNK         0.0600 
    172 H172        6.3376  -17.6161  -42.4102 H         1 UNK         0.0600 
    173 H173        7.7062  -16.5308  -42.2067 H         1 UNK         0.0600 
    174 H174        5.9166  -14.0798  -41.5737 H         1 UNK         0.3000 
    175 H175        4.1800  -13.0215  -42.8087 H         1 UNK         0.0600 
    176 H176        6.3937  -13.3738  -43.9913 H         1 UNK         0.0600 
    177 H177        5.2448  -12.5677  -45.0418 H         1 UNK         0.0600 
    178 H178        5.5732  -14.2857  -45.2527 H         1 UNK         0.0600 
    179 H179        2.7706  -15.0114  -44.2835 H         1 UNK         0.3000 
    180 H180        1.0522  -14.6466  -45.5942 H         1 UNK         0.0600 
    181 H181       -0.3282  -12.0824  -44.6350 H         1 UNK         0.0600 
    182 H182       -0.1865  -13.5704  -43.7065 H         1 UNK         0.0600 
    183 H183       -1.1311  -13.5528  -45.1857 H         1 UNK         0.0600 
    184 H184        0.2599  -12.2621  -47.0093 H         1 UNK         0.3000 
    185 H185        1.5715  -11.5330  -49.0134 H         1 UNK         0.0600 
    186 H186        3.5604  -12.7166  -49.9309 H         1 UNK         0.0600 
    187 H187        2.5339  -14.0117  -50.5399 H         1 UNK         0.0600 
    188 H188        2.3882  -12.3830  -51.1960 H         1 UNK         0.0600 
    189 H189        0.1100  -13.8034  -50.2691 H         1 UNK         0.3000 
    190 H190       -2.2266  -21.4081  -44.1647 H         1 UNK         0.3000 
    191 H191       -4.6010  -22.3801  -45.4675 H         1 UNK         0.0600 
    192 H192       -4.5270  -24.1337  -43.7017 H         1 UNK         0.0600 
    193 H193       -2.9181  -23.6146  -43.2197 H         1 UNK         0.0600 
    194 H194       -4.2937  -22.5354  -43.0103 H         1 UNK         0.0600 
    195 H195       -1.2285  -23.5963  -45.2163 H         1 UNK         0.3000 
    196 H196       -1.5336  -25.8826  -46.8686 H         1 UNK         0.0600 
    197 H197        0.9581  -25.7767  -47.0148 H         1 UNK         0.0600 
    198 H198        0.4023  -25.5528  -45.3624 H         1 UNK         0.0600 
    199 H199        0.9435  -24.1669  -46.3046 H         1 UNK         0.0600 
    200 H200       -0.5211  -22.5198  -47.6904 H         1 UNK         0.3000 
    201 H201       -0.1245  -22.9130  -50.4510 H         1 UNK         0.0600 
    202 H202        0.6673  -20.9084  -49.2211 H         1 UNK         0.0600 
    203 H203       -0.9960  -20.3840  -48.9619 H         1 UNK         0.0600 
    204 H204       -0.3313  -20.4356  -50.5860 H         1 UNK         0.0600 
    205 H205       -3.1057  -21.8554  -48.7122 H         1 UNK         0.3000 
    206 H206       -4.7526  -21.5965  -51.0066 H         1 UNK         0.0600 
    207 H207       -5.4940  -22.1881  -48.0919 H         1 UNK         0.0600 
    208 H208       -5.3075  -20.5892  -48.8077 H         1 UNK         0.0600 
    209 H209       -6.6118  -21.6399  -49.3373 H         1 UNK         0.0600 
    210 H210       -4.0204  -24.4456  -48.9542 H         1 UNK         0.3000 
    211 H211       -5.9231  -26.1951  -50.2157 H         1 UNK         0.0600 
    212 H212       -3.3820  -26.8170  -48.6215 H         1 UNK         0.0600 
    213 H213       -4.6254  -27.9828  -49.0569 H         1 UNK         0.0600 
    214 H214       -5.0098  -26.6588  -47.9676 H         1 UNK         0.0600 
    215 H215       -2.4256  -25.5733  -50.7475 H         1 UNK         0.3000 
    216 H216       -2.1123  -27.5927  -52.7468 H         1 UNK         0.0600 
    217 H217        0.1516  -26.5629  -53.0065 H         1 UNK         0.0600 
    218 H218       -0.2500  -26.8431  -51.3191 H         1 UNK         0.0600 
    219 H219       -0.3399  -25.2149  -51.9862 H         1 UNK         0.0600 
    220 H220       -2.3831  -23.9957  -53.0015 H         1 UNK         0.3000 
    221 H221       -2.2378  -24.2056  -55.9724 H         1 UNK         0.0600 
    222 H222       -1.4664  -21.8760  -55.8223 H         1 UNK         0.0600 
    223 H223       -0.4998  -22.8799  -54.7548 H         1 UNK         0.0600 
    224 H224       -1.7621  -21.8476  -54.0882 H         1 UNK         0.0600 
    225 H225       -4.6754  -23.9750  -53.7056 H         1 UNK         0.3000 
    226 H226       -6.8029  -23.3074  -53.6796 H         1 UNK         0.0600 
    227 H227       -8.0919  -23.2014  -55.7552 H         1 UNK         0.0600 
    228 H228       -6.6296  -23.0274  -56.7240 H         1 UNK         0.0600 
    229 H229       -6.9486  -24.5231  -55.8560 H         1 UNK         0.0600 
    230 H230       -7.6429  -21.1987  -55.9161 H         1 UNK         0.3000 
    231 H231       -7.4932  -18.9150  -54.1983 H         1 UNK         0.0600 
    232 H232       -9.4203  -19.3779  -55.6970 H         1 UNK         0.0600 
    233 H233       -8.3904  -19.1917  -57.1177 H         1 UNK         0.0600 
    234 H234       -8.7193  -17.8137  -56.0746 H         1 UNK         0.0600 
    235 H235       -5.1802  -20.1033  -56.4760 H         1 UNK         0.3000 
    236 H236       -4.0940  -17.5317  -57.2879 H         1 UNK         0.0600 
    237 H237       -3.8658  -19.5916  -58.6919 H         1 UNK         0.0600 
    238 H238       -2.3058  -18.8885  -58.2940 H         1 UNK         0.0600 
    239 H239       -2.8538  -20.3271  -57.4491 H         1 UNK         0.0600 
    240 H240       -3.6081  -19.7447  -54.6020 H         1 UNK         0.3000 
    241 H241       -2.4250  -19.7419  -52.7508 H         1 UNK         0.0600 
    242 H242        0.9393  -19.5387  -54.7108 H         1 UNK         0.3800 
    243 H243       -0.6465  -19.6510  -55.4282 H         1 UNK         0.3800 
    244 H244       -2.2687  -16.7135  -53.0855 H         1 UNK         0.0800 
    245 H245       -1.9681  -17.5610  -51.6005 H         1 UNK         0.0800 
    246 H246       -3.7961  -19.0772  -50.3638 H         1 UNK         0.0800 
    247 H247       -5.3852  -18.3829  -50.1709 H         1 UNK         0.0800 
@<TRIPOS>BOND
     1    1    2 1    
     2    1  127 1    
     3    1  128 1    
     4    1  129 1    
     5    2    3 2    
     6    2    4 am   BACKBONE|DICT|INTERRES
     7    4    5 1    
     8    4  130 1    
     9    5    6 1    
    10    5   65 1    
    11    5  131 1    
    12    6    7 1    
    13    6  132 1    
    14    6  133 1    
    15    7    8 1    
    16    8    9 1    
    17    8  134 1    
    18    8  135 1    
    19    9   10 ar   
    20    9   14 ar   
    21   10   11 ar   
    22   10  136 1    
    23   11   12 ar   
    24   11  126 1    
    25   12   13 ar   
    26   12  137 1    
    27   13   14 ar   
    28   13   15 1    
    29   14  138 1    
    30   15   16 1    
    31   15  139 1    
    32   15  140 1    
    33   16   17 1    
    34   17   18 1    
    35   17  141 1    
    36   17  142 1    
    37   18   19 1    
    38   18   67 1    
    39   18  143 1    
    40   19   20 am   BACKBONE|DICT|INTERRES
    41   19  144 1    
    42   20   21 2    
    43   20   22 1    
    44   22   23 1    
    45   22   24 1    
    46   22  145 1    
    47   23  146 1    
    48   23  147 1    
    49   23  148 1    
    50   24   25 am   BACKBONE|DICT|INTERRES
    51   24  149 1    
    52   25   26 2    
    53   25   27 1    
    54   27   28 1    
    55   27   29 1    
    56   27  150 1    
    57   28  151 1    
    58   28  152 1    
    59   28  153 1    
    60   29   30 am   BACKBONE|DICT|INTERRES
    61   29  154 1    
    62   30   31 2    
    63   30   32 1    
    64   32   33 1    
    65   32   34 1    
    66   32  155 1    
    67   33  156 1    
    68   33  157 1    
    69   33  158 1    
    70   34   35 am   BACKBONE|DICT|INTERRES
    71   34  159 1    
    72   35   36 2    
    73   35   37 1    
    74   37   38 1    
    75   37   39 1    
    76   37  160 1    
    77   38  161 1    
    78   38  162 1    
    79   38  163 1    
    80   39   40 am   BACKBONE|DICT|INTERRES
    81   39  164 1    
    82   40   41 2    
    83   40   42 1    
    84   42   43 1    
    85   42   44 1    
    86   42  165 1    
    87   43  166 1    
    88   43  167 1    
    89   43  168 1    
    90   44   45 am   BACKBONE|DICT|INTERRES
    91   44  169 1    
    92   45   46 2    
    93   45   47 1    
    94   47   48 1    
    95   47   49 1    
    96   47  170 1    
    97   48  171 1    
    98   48  172 1    
    99   48  173 1    
   100   49   50 am   BACKBONE|DICT|INTERRES
   101   49  174 1    
   102   50   51 2    
   103   50   52 1    
   104   52   53 1    
   105   52   54 1    
   106   52  175 1    
   107   53  176 1    
   108   53  177 1    
   109   53  178 1    
   110   54   55 am   BACKBONE|DICT|INTERRES
   111   54  179 1    
   112   55   56 2    
   113   55   57 1    
   114   57   58 1    
   115   57   59 1    
   116   57  180 1    
   117   58  181 1    
   118   58  182 1    
   119   58  183 1    
   120   59   60 am   BACKBONE|DICT|INTERRES
   121   59  184 1    
   122   60   61 2    
   123   60   62 1    
   124   62   63 1    
   125   62   64 1    
   126   62  185 1    
   127   63  186 1    
   128   63  187 1    
   129   63  188 1    
   130   64   65 am   BACKBONE|DICT|INTERRES
   131   64  189 1    
   132   65   66 2    
   133   67   68 2    
   134   67   69 am   BACKBONE|DICT|INTERRES
   135   69   70 1    
   136   69  190 1    
   137   70   71 1    
   138   70   72 1    
   139   70  191 1    
   140   71  192 1    
   141   71  193 1    
   142   71  194 1    
   143   72   73 2    
   144   72   74 am   BACKBONE|DICT|INTERRES
   145   74   75 1    
   146   74  195 1    
   147   75   76 1    
   148   75   77 1    
   149   75  196 1    
   150   76  197 1    
   151   76  198 1    
   152   76  199 1    
   153   77   78 2    
   154   77   79 am   BACKBONE|DICT|INTERRES
   155   79   80 1    
   156   79  200 1    
   157   80   81 1    
   158   80   82 1    
   159   80  201 1    
   160   81  202 1    
   161   81  203 1    
   162   81  204 1    
   163   82   83 2    
   164   82   84 am   BACKBONE|DICT|INTERRES
   165   84   85 1    
   166   84  205 1    
   167   85   86 1    
   168   85   87 1    
   169   85  206 1    
   170   86  207 1    
   171   86  208 1    
   172   86  209 1    
   173   87   88 2    
   174   87   89 am   BACKBONE|DICT|INTERRES
   175   89   90 1    
   176   89  210 1    
   177   90   91 1    
   178   90   92 1    
   179   90  211 1    
   180   91  212 1    
   181   91  213 1    
   182   91  214 1    
   183   92   93 2    
   184   92   94 am   BACKBONE|DICT|INTERRES
   185   94   95 1    
   186   94  215 1    
   187   95   96 1    
   188   95   97 1    
   189   95  216 1    
   190   96  217 1    
   191   96  218 1    
   192   96  219 1    
   193   97   98 2    
   194   97   99 am   BACKBONE|DICT|INTERRES
   195   99  100 1    
   196   99  220 1    
   197  100  101 1    
   198  100  102 1    
   199  100  221 1    
   200  101  222 1    
   201  101  223 1    
   202  101  224 1    
   203  102  103 2    
   204  102  104 am   BACKBONE|DICT|INTERRES
   205  104  105 1    
   206  104  225 1    
   207  105  106 1    
   208  105  107 1    
   209  105  226 1    
   210  106  227 1    
   211  106  228 1    
   212  106  229 1    
   213  107  108 2    
   214  107  109 am   BACKBONE|DICT|INTERRES
   215  109  110 1    
   216  109  230 1    
   217  110  111 1    
   218  110  112 1    
   219  110  231 1    
   220  111  232 1    
   221  111  233 1    
   222  111  234 1    
   223  112  113 2    
   224  112  114 am   BACKBONE|DICT|INTERRES
   225  114  115 1    
   226  114  235 1    
   227  115  116 1    
   228  115  117 1    
   229  115  236 1    
   230  116  237 1    
   231  116  238 1    
   232  116  239 1    
   233  117  118 2    
   234  117  119 am   BACKBONE|DICT|INTERRES
   235  119  120 1    
   236  119  240 1    
   237  120  121 1    
   238  120  124 1    
   239  120  241 1    
   240  121  122 am   BACKBONE|DICT|INTERRES
   241  121  123 2    
   242  122  242 1    
   243  122  243 1    
   244  124  125 1    
   245  124  244 1    
   246  124  245 1    
   247  125  126 1    
   248  126  246 1    
   249  126  247 1    
@<TRIPOS>SUBSTRUCTURE
     1 UNK         1 GROUP             0       ****    0 ROOT    
