@<TRIPOS>MOLECULE
3R540
247   249    1
SMALL
USER_CHARGES


@<TRIPOS>ATOM
      1 CA         -0.5294   -9.7439  -47.7612 C.3       0 UNK        -0.1800 
      2 C           0.7357  -10.5747  -47.6059 C.2       0 UNK         0.5000 
      3 O           0.9690  -11.1272  -46.5343 O.2       0 UNK        -0.5000 
      4 N           1.5581  -10.6367  -48.6626 N.am      1 UNK        -0.5000 
      5 CA          2.7895  -11.4319  -48.8224 C.3       1 UNK         0.1400 
      6 C6          2.5194  -12.9582  -48.9880 C.3       23 UNK        -0.0398 
      7 S7          2.3393  -13.9328  -47.4482 S.3       23 UNK        -0.2404 
      8 C8          0.6011  -14.4802  -47.5248 C.3       23 UNK        -0.0205 
      9 C9          0.2938  -15.4331  -48.6770 C.ar      23 UNK        -0.0193 
     10 C10        -0.9391  -15.3453  -49.3308 C.ar      23 UNK        -0.1150 
     11 C11        -1.2566  -16.2214  -50.3732 C.ar      23 UNK        -0.0193 
     12 C12        -0.3210  -17.1732  -50.7805 C.ar      23 UNK        -0.1150 
     13 C13         0.8946  -17.3057  -50.1065 C.ar      23 UNK        -0.0193 
     14 C14         1.1985  -16.4298  -49.0612 C.ar      23 UNK        -0.1150 
     15 C15         1.8493  -18.4364  -50.4634 C.3       23 UNK        -0.0205 
     16 S16         1.0434  -20.0732  -50.3994 S.3       23 UNK        -0.2404 
     17 C17         0.2528  -20.0360  -48.7548 C.3       23 UNK        -0.0398 
     18 CA         -0.4703  -21.3645  -48.4169 C.3       11 UNK         0.1400 
     19 N          -0.1745  -21.8148  -47.0565 N.am      11 UNK        -0.5000 
     20 C          -0.4621  -23.0300  -46.5738 C.2       10 UNK         0.5000 
     21 O          -1.1570  -23.8511  -47.1715 O.2       10 UNK        -0.5000 
     22 CA          0.1363  -23.3851  -45.2047 C.3       10 UNK         0.1400 
     23 CB          1.6547  -23.5939  -45.3152 C.3       10 UNK        -0.1800 
     24 N          -0.1418  -22.3218  -44.2450 N.am      10 UNK        -0.5000 
     25 C          -1.0347  -22.4121  -43.2513 C.2       9 UNK         0.5000 
     26 O          -1.5992  -23.4596  -42.9359 O.2       9 UNK        -0.5000 
     27 CA         -1.3818  -21.1141  -42.4892 C.3       9 UNK         0.1400 
     28 CB         -0.6148  -21.0581  -41.1597 C.3       9 UNK        -0.1800 
     29 N          -1.1276  -19.8840  -43.2471 N.am      9 UNK        -0.5000 
     30 C          -1.6869  -19.5736  -44.4265 C.2       8 UNK         0.5000 
     31 O          -2.5551  -20.2574  -44.9697 O.2       8 UNK        -0.5000 
     32 CA         -1.1344  -18.3469  -45.1772 C.3       8 UNK         0.1400 
     33 CB         -2.0359  -17.1236  -44.9694 C.3       8 UNK        -0.1800 
     34 N           0.2520  -18.0066  -44.8441 N.am      8 UNK        -0.5000 
     35 C           1.3102  -18.8071  -45.0451 C.2       7 UNK         0.5000 
     36 O           1.2174  -19.9643  -45.4574 O.2       7 UNK        -0.5000 
     37 CA          2.6945  -18.2360  -44.7119 C.3       7 UNK         0.1400 
     38 CB          3.1634  -17.2805  -45.8153 C.3       7 UNK        -0.1800 
     39 N           2.6714  -17.5331  -43.4323 N.am      7 UNK        -0.5000 
     40 C           3.0539  -18.0770  -42.2692 C.2       6 UNK         0.5000 
     41 O           3.5451  -19.2016  -42.1659 O.2       6 UNK        -0.5000 
     42 CA          2.8388  -17.2343  -40.9972 C.3       6 UNK         0.1400 
     43 CB          4.1123  -16.4488  -40.6499 C.3       6 UNK        -0.1800 
     44 N           1.7075  -16.3098  -41.0956 N.am      6 UNK        -0.5000 
     45 C           0.4262  -16.6930  -41.2005 C.2       5 UNK         0.5000 
     46 O           0.0658  -17.8690  -41.2324 O.2       5 UNK        -0.5000 
     47 CA         -0.6334  -15.5839  -41.3343 C.3       5 UNK         0.1400 
     48 CB         -1.1603  -15.1808  -39.9492 C.3       5 UNK        -0.1800 
     49 N          -0.1768  -14.3837  -42.0385 N.am      5 UNK        -0.5000 
     50 C           0.3689  -14.3385  -43.2618 C.2       4 UNK         0.5000 
     51 O           0.5998  -15.3386  -43.9455 O.2       4 UNK        -0.5000 
     52 CA          0.7506  -12.9490  -43.8106 C.3       4 UNK         0.1400 
     53 CB          0.3444  -11.7668  -42.9030 C.3       4 UNK        -0.1800 
     54 N           2.1746  -12.8593  -44.1371 N.am      4 UNK        -0.5000 
     55 C           3.2119  -13.1367  -43.3320 C.2       3 UNK         0.5000 
     56 O           3.0973  -13.5201  -42.1665 O.2       3 UNK        -0.5000 
     57 CA          4.6209  -12.9488  -43.9248 C.3       3 UNK         0.1400 
     58 CB          5.1211  -14.2615  -44.5452 C.3       3 UNK        -0.1800 
     59 N           4.6839  -11.8886  -44.9323 N.am      3 UNK        -0.5000 
     60 C           4.6075  -10.5761  -44.6781 C.2       2 UNK         0.5000 
     61 O           4.5237  -10.1106  -43.5410 O.2       2 UNK        -0.5000 
     62 CA          4.6054   -9.6132  -45.8848 C.3       2 UNK         0.1400 
     63 CB          6.0387   -9.2691  -46.3334 C.3       2 UNK        -0.1800 
     64 N           3.7698  -10.0602  -47.0083 N.am      2 UNK        -0.5000 
     65 C           3.9364  -11.1068  -47.8299 C.2       1 UNK         0.5000 
     66 O           4.9420  -11.8186  -47.8170 O.2       1 UNK        -0.5000 
     67 C          -1.9787  -21.3324  -48.7364 C.2       11 UNK         0.5000 
     68 O          -2.3895  -21.8774  -49.7614 O.2       11 UNK        -0.5000 
     69 N          -2.7784  -20.7543  -47.8333 N.am      12 UNK        -0.5000 
     70 CA         -4.2274  -20.6646  -47.9794 C.3       12 UNK         0.1400 
     71 CB         -4.7244  -19.3231  -47.4116 C.3       12 UNK        -0.1800 
     72 C          -4.9067  -21.8456  -47.2737 C.2       12 UNK         0.5000 
     73 O          -5.6575  -22.5850  -47.9082 O.2       12 UNK        -0.5000 
     74 N          -4.6310  -22.0025  -45.9712 N.am      13 UNK        -0.5000 
     75 CA         -5.3703  -22.8973  -45.0780 C.3       13 UNK         0.1400 
     76 CB         -5.0655  -22.5287  -43.6203 C.3       13 UNK        -0.1800 
     77 C          -5.1338  -24.3970  -45.3331 C.2       13 UNK         0.5000 
     78 O          -6.0627  -25.1836  -45.1448 O.2       13 UNK        -0.5000 
     79 N          -3.9238  -24.7671  -45.7750 N.am      14 UNK        -0.5000 
     80 CA         -3.5814  -26.1343  -46.1875 C.3       14 UNK         0.1400 
     81 CB         -2.2658  -26.5644  -45.5159 C.3       14 UNK        -0.1800 
     82 C          -3.5013  -26.2641  -47.7223 C.2       14 UNK         0.5000 
     83 O          -3.1711  -27.3424  -48.2174 O.2       14 UNK        -0.5000 
     84 N          -3.8128  -25.1744  -48.4417 N.am      15 UNK        -0.5000 
     85 CA         -3.8411  -25.0375  -49.8984 C.3       15 UNK         0.1400 
     86 CB         -5.0029  -25.8577  -50.4959 C.3       15 UNK        -0.1800 
     87 C          -2.4862  -25.3221  -50.5810 C.2       15 UNK         0.5000 
     88 O          -2.4597  -25.8701  -51.6845 O.2       15 UNK        -0.5000 
     89 N          -1.3715  -24.9166  -49.9500 N.am      16 UNK        -0.5000 
     90 CA         -0.0322  -24.9972  -50.5506 C.3       16 UNK         0.1400 
     91 CB          1.0578  -24.8928  -49.4710 C.3       16 UNK        -0.1800 
     92 C           0.1831  -23.9972  -51.7128 C.2       16 UNK         0.5000 
     93 O           1.1352  -24.1608  -52.4755 O.2       16 UNK        -0.5000 
     94 N          -0.7405  -23.0367  -51.8849 N.am      17 UNK        -0.5000 
     95 CA         -0.9048  -22.2031  -53.0829 C.3       17 UNK         0.1400 
     96 CB         -1.7837  -20.9877  -52.7304 C.3       17 UNK        -0.1800 
     97 C          -1.5247  -22.9613  -54.2822 C.2       17 UNK         0.5000 
     98 O          -1.7625  -22.3404  -55.3191 O.2       17 UNK        -0.5000 
     99 N          -1.8008  -24.2632  -54.1126 N.am      18 UNK        -0.5000 
    100 CA        -2.5591  -25.1666  -54.9788 C.3       18 UNK         0.1400 
    101 CB        -2.0739  -25.1357  -56.4458 C.3       18 UNK        -0.1800 
    102 C         -4.0748  -24.9453  -54.8171 C.2       18 UNK         0.5000 
    103 O         -4.5050  -24.2600  -53.8853 O.2       18 UNK        -0.5000 
    104 N         -4.8624  -25.5518  -55.7162 N.am      19 UNK        -0.5000 
    105 CA        -6.3284  -25.6330  -55.6782 C.3       19 UNK         0.1400 
    106 CB        -6.8041  -26.4739  -56.8733 C.3       19 UNK        -0.1800 
    107 C         -7.0755  -24.2836  -55.6402 C.2       19 UNK         0.5000 
    108 O         -8.2427  -24.2557  -55.2475 O.2       19 UNK        -0.5000 
    109 N         -6.3986  -23.1949  -56.0303 N.am      20 UNK        -0.5000 
    110 CA        -6.8830  -21.8222  -55.8989 C.3       20 UNK         0.1400 
    111 CB        -5.9228  -20.8763  -56.6363 C.3       20 UNK        -0.1800 
    112 C         -7.0472  -21.3816  -54.4310 C.2       20 UNK         0.5000 
    113 O         -7.9843  -20.6409  -54.1339 O.2       20 UNK        -0.5000 
    114 N         -6.1376  -21.8371  -53.5513 N.am      21 UNK        -0.5000 
    115 CA        -6.1062  -21.6212  -52.0963 C.3       21 UNK         0.1400 
    116 CB        -7.1299  -22.5525  -51.4181 C.3       21 UNK        -0.1800 
    117 C         -6.2606  -20.1432  -51.6619 C.2       21 UNK         0.5000 
    118 O         -6.9136  -19.8607  -50.6561 O.2       21 UNK        -0.5000 
    119 N         -5.6770  -19.2314  -52.4529 N.am      22 UNK        -0.5000 
    120 CA        -5.7863  -17.7632  -52.3389 C.3       22 UNK         0.1400 
    121 C         -7.1824  -17.1740  -52.7156 C.2       22 UNK         0.5000 
    122 N         -8.1066  -17.9324  -53.2911 N.am      22 UNK        -0.7600 
    123 O         -7.4280  -15.9872  -52.5156 O.2       22 UNK        -0.5000 
    124 C124       -5.2712  -17.1936  -50.9864 C.3       23 UNK        -0.0398 
    125 S125       -3.5630  -17.6925  -50.5950 S.3       23 UNK        -0.2404 
    126 C126       -2.6293  -16.1879  -51.0223 C.3       23 UNK        -0.0205 
    127 H127       -0.6017   -9.2937  -48.7515 H         1 UNK         0.0600 
    128 H128       -0.5459   -8.9442  -47.0209 H         1 UNK         0.0600 
    129 H129       -1.4079  -10.3704  -47.6071 H         1 UNK         0.0600 
    130 H130        1.2993  -10.1130  -49.4875 H         1 UNK         0.3000 
    131 H131        3.1812  -11.0966  -49.7839 H         1 UNK         0.0600 
    132 H132        1.6461  -13.1117  -49.6228 H         1 UNK         0.0800 
    133 H133        3.3486  -13.4056  -49.5380 H         1 UNK         0.0800 
    134 H134        0.3572  -14.9864  -46.5910 H         1 UNK         0.0800 
    135 H135       -0.0379  -13.5977  -47.5744 H         1 UNK         0.0800 
    136 H136       -1.6623  -14.6074  -49.0129 H         1 UNK         0.1150 
    137 H137       -0.5709  -17.8603  -51.5770 H         1 UNK         0.1150 
    138 H138        2.1372  -16.5320  -48.5375 H         1 UNK         0.1150 
    139 H139        2.2406  -18.2703  -51.4677 H         1 UNK         0.0800 
    140 H140        2.7089  -18.4443  -49.7915 H         1 UNK         0.0800 
    141 H141       -0.4251  -19.1840  -48.6803 H         1 UNK         0.0800 
    142 H142        1.0541  -19.8361  -48.0440 H         1 UNK         0.0800 
    143 H143       -0.0614  -22.1316  -49.0704 H         1 UNK         0.0600 
    144 H144        0.3972  -21.1892  -46.4933 H         1 UNK         0.3000 
    145 H145       -0.3066  -24.3272  -44.8787 H         1 UNK         0.0600 
    146 H146        2.1715  -22.6831  -45.6206 H         1 UNK         0.0600 
    147 H147        2.0756  -23.9103  -44.3607 H         1 UNK         0.0600 
    148 H148        1.8900  -24.3678  -46.0472 H         1 UNK         0.0600 
    149 H149        0.2789  -21.4198  -44.4392 H         1 UNK         0.3000 
    150 H150       -2.4495  -21.1467  -42.2648 H         1 UNK         0.0600 
    151 H151       -0.7472  -21.9779  -40.5884 H         1 UNK         0.0600 
    152 H152       -0.9715  -20.2396  -40.5349 H         1 UNK         0.0600 
    153 H153        0.4554  -20.9190  -41.3189 H         1 UNK         0.0600 
    154 H154       -0.4548  -19.2419  -42.8447 H         1 UNK         0.3000 
    155 H155       -1.1531  -18.5905  -46.2411 H         1 UNK         0.0600 
    156 H156       -3.0601  -17.3359  -45.2787 H         1 UNK         0.0600 
    157 H157       -1.6896  -16.2732  -45.5572 H         1 UNK         0.0600 
    158 H158       -2.0654  -16.8208  -43.9244 H         1 UNK         0.0600 
    159 H159        0.4097  -17.0600  -44.5042 H         1 UNK         0.3000 
    160 H160        3.3983  -19.0703  -44.6768 H         1 UNK         0.0600 
    161 H161        2.5234  -16.4010  -45.8810 H         1 UNK         0.0600 
    162 H162        3.1554  -17.7738  -46.7878 H         1 UNK         0.0600 
    163 H163        4.1832  -16.9433  -45.6329 H         1 UNK         0.0600 
    164 H164        2.2274  -16.6225  -43.4213 H         1 UNK         0.3000 
    165 H165        2.6322  -17.9252  -40.1771 H         1 UNK         0.0600 
    166 H166        3.9845  -15.8709  -39.7345 H         1 UNK         0.0600 
    167 H167        4.9550  -17.1234  -40.4937 H         1 UNK         0.0600 
    168 H168        4.3904  -15.7593  -41.4470 H         1 UNK         0.0600 
    169 H169        1.9273  -15.3223  -41.1318 H         1 UNK         0.3000 
    170 H170       -1.4675  -15.9976  -41.9010 H         1 UNK         0.0600 
    171 H171       -0.3809  -14.7196  -39.3413 H         1 UNK         0.0600 
    172 H172       -1.9864  -14.4740  -40.0305 H         1 UNK         0.0600 
    173 H173       -1.5313  -16.0497  -39.4038 H         1 UNK         0.0600 
    174 H174       -0.2947  -13.5104  -41.5462 H         1 UNK         0.3000 
    175 H175        0.2070  -12.8488  -44.7499 H         1 UNK         0.0600 
    176 H176        0.8616  -11.7872  -41.9430 H         1 UNK         0.0600 
    177 H177        0.5827  -10.8170  -43.3827 H         1 UNK         0.0600 
    178 H178       -0.7292  -11.7633  -42.7106 H         1 UNK         0.0600 
    179 H179        2.3706  -12.5707  -45.0868 H         1 UNK         0.3000 
    180 H180        5.2905  -12.6835  -43.1040 H         1 UNK         0.0600 
    181 H181        6.1591  -14.1749  -44.8664 H         1 UNK         0.0600 
    182 H182        4.5257  -14.5442  -45.4132 H         1 UNK         0.0600 
    183 H183        5.0689  -15.0821  -43.8284 H         1 UNK         0.0600 
    184 H184        4.7749  -12.1729  -45.9029 H         1 UNK         0.3000 
    185 H185        4.1460   -8.6863  -45.5378 H         1 UNK         0.0600 
    186 H186        6.0336   -8.5601  -47.1612 H         1 UNK         0.0600 
    187 H187        6.5989   -8.8119  -45.5170 H         1 UNK         0.0600 
    188 H188        6.5942  -10.1520  -46.6498 H         1 UNK         0.0600 
    189 H189        2.8827   -9.5826  -47.0856 H         1 UNK         0.3000 
    190 H190       -2.3980  -20.4467  -46.9467 H         1 UNK         0.3000 
    191 H191       -4.4995  -20.6928  -49.0371 H         1 UNK         0.0600 
    192 H192       -4.1946  -18.4827  -47.8578 H         1 UNK         0.0600 
    193 H193       -4.5957  -19.2526  -46.3317 H         1 UNK         0.0600 
    194 H194       -5.7855  -19.1869  -47.6235 H         1 UNK         0.0600 
    195 H195       -3.9633  -21.3709  -45.5352 H         1 UNK         0.3000 
    196 H196       -6.4340  -22.7125  -45.2439 H         1 UNK         0.0600 
    197 H197       -5.3067  -21.4853  -43.4162 H         1 UNK         0.0600 
    198 H198       -4.0156  -22.6820  -43.3839 H         1 UNK         0.0600 
    199 H199       -5.6495  -23.1401  -42.9313 H         1 UNK         0.0600 
    200 H200       -3.2090  -24.0651  -45.9113 H         1 UNK         0.3000 
    201 H201       -4.3533  -26.8317  -45.8566 H         1 UNK         0.0600 
    202 H202       -2.2663  -26.3334  -44.4504 H         1 UNK         0.0600 
    203 H203       -1.3990  -26.0853  -45.9668 H         1 UNK         0.0600 
    204 H204       -2.1192  -27.6405  -45.6148 H         1 UNK         0.0600 
    205 H205       -4.0954  -24.3496  -47.9309 H         1 UNK         0.3000 
    206 H206       -4.0580  -23.9869  -50.0958 H         1 UNK         0.0600 
    207 H207       -4.8412  -26.9301  -50.3837 H         1 UNK         0.0600 
    208 H208       -5.9487  -25.6067  -50.0157 H         1 UNK         0.0600 
    209 H209       -5.1195  -25.6535  -51.5608 H         1 UNK         0.0600 
    210 H210       -1.4437  -24.4979  -49.0268 H         1 UNK         0.3000 
    211 H211        0.0626  -25.9940  -50.9868 H         1 UNK         0.0600 
    212 H212        1.1357  -23.8986  -49.0406 H         1 UNK         0.0600 
    213 H213        2.0352  -25.1326  -49.8910 H         1 UNK         0.0600 
    214 H214        0.8753  -25.5954  -48.6576 H         1 UNK         0.0600 
    215 H215       -1.4573  -22.9224  -51.1751 H         1 UNK         0.3000 
    216 H216        0.0780  -21.8413  -53.3908 H         1 UNK         0.0600 
    217 H217       -1.8584  -20.2965  -53.5706 H         1 UNK         0.0600 
    218 H218       -1.3797  -20.4239  -51.8918 H         1 UNK         0.0600 
    219 H219       -2.7970  -21.2910  -52.4657 H         1 UNK         0.0600 
    220 H220       -1.6495  -24.6414  -53.1854 H         1 UNK         0.3000 
    221 H221       -2.3601  -26.1666  -54.5912 H         1 UNK         0.0600 
    222 H222       -2.4144  -24.2431  -56.9714 H         1 UNK         0.0600 
    223 H223       -0.9856  -25.1626  -56.5013 H         1 UNK         0.0600 
    224 H224       -2.4410  -25.9992  -57.0009 H         1 UNK         0.0600 
    225 H225       -4.4174  -26.0769  -56.4548 H         1 UNK         0.3000 
    226 H226       -6.5949  -26.1633  -54.7618 H         1 UNK         0.0600 
    227 H227       -6.3736  -27.4752  -56.8493 H         1 UNK         0.0600 
    228 H228       -7.8888  -26.5901  -56.8654 H         1 UNK         0.0600 
    229 H229       -6.5305  -26.0118  -57.8226 H         1 UNK         0.0600 
    230 H230       -5.4458  -23.3156  -56.3399 H         1 UNK         0.3000 
    231 H231       -7.8624  -21.7600  -56.3779 H         1 UNK         0.0600 
    232 H232       -6.2629  -19.8421  -56.5665 H         1 UNK         0.0600 
    233 H233       -5.8601  -21.1257  -57.6957 H         1 UNK         0.0600 
    234 H234       -4.9149  -20.9200  -56.2209 H         1 UNK         0.0600 
    235 H235       -5.4444  -22.4968  -53.8919 H         1 UNK         0.3000 
    236 H236       -5.1145  -21.9302  -51.7624 H         1 UNK         0.0600 
    237 H237       -8.1529  -22.2853  -51.6847 H         1 UNK         0.0600 
    238 H238       -6.9676  -23.5907  -51.7084 H         1 UNK         0.0600 
    239 H239       -7.0472  -22.5053  -50.3317 H         1 UNK         0.0600 
    240 H240       -5.1738  -19.5653  -53.2612 H         1 UNK         0.3000 
    241 H241       -5.1216  -17.3769  -53.1121 H         1 UNK         0.0600 
    242 H242       -7.9469  -18.9180  -53.4880 H         1 UNK         0.3800 
    243 H243       -8.9938  -17.5218  -53.5338 H         1 UNK         0.3800 
    244 H244       -5.3246  -16.1042  -50.9838 H         1 UNK         0.0800 
    245 H245       -5.9127  -17.5158  -50.1656 H         1 UNK         0.0800 
    246 H246       -3.1769  -15.3028  -50.6958 H         1 UNK         0.0800 
    247 H247       -2.5274  -16.1151  -52.1059 H         1 UNK         0.0800 
@<TRIPOS>BOND
     1    1    2 1    
     2    1  127 1    
     3    1  128 1    
     4    1  129 1    
     5    2    3 2    
     6    2    4 am   BACKBONE|DICT|INTERRES
     7    4    5 1    
     8    4  130 1    
     9    5    6 1    
    10    5   65 1    
    11    5  131 1    
    12    6    7 1    
    13    6  132 1    
    14    6  133 1    
    15    7    8 1    
    16    8    9 1    
    17    8  134 1    
    18    8  135 1    
    19    9   10 ar   
    20    9   14 ar   
    21   10   11 ar   
    22   10  136 1    
    23   11   12 ar   
    24   11  126 1    
    25   12   13 ar   
    26   12  137 1    
    27   13   14 ar   
    28   13   15 1    
    29   14  138 1    
    30   15   16 1    
    31   15  139 1    
    32   15  140 1    
    33   16   17 1    
    34   17   18 1    
    35   17  141 1    
    36   17  142 1    
    37   18   19 1    
    38   18   67 1    
    39   18  143 1    
    40   19   20 am   BACKBONE|DICT|INTERRES
    41   19  144 1    
    42   20   21 2    
    43   20   22 1    
    44   22   23 1    
    45   22   24 1    
    46   22  145 1    
    47   23  146 1    
    48   23  147 1    
    49   23  148 1    
    50   24   25 am   BACKBONE|DICT|INTERRES
    51   24  149 1    
    52   25   26 2    
    53   25   27 1    
    54   27   28 1    
    55   27   29 1    
    56   27  150 1    
    57   28  151 1    
    58   28  152 1    
    59   28  153 1    
    60   29   30 am   BACKBONE|DICT|INTERRES
    61   29  154 1    
    62   30   31 2    
    63   30   32 1    
    64   32   33 1    
    65   32   34 1    
    66   32  155 1    
    67   33  156 1    
    68   33  157 1    
    69   33  158 1    
    70   34   35 am   BACKBONE|DICT|INTERRES
    71   34  159 1    
    72   35   36 2    
    73   35   37 1    
    74   37   38 1    
    75   37   39 1    
    76   37  160 1    
    77   38  161 1    
    78   38  162 1    
    79   38  163 1    
    80   39   40 am   BACKBONE|DICT|INTERRES
    81   39  164 1    
    82   40   41 2    
    83   40   42 1    
    84   42   43 1    
    85   42   44 1    
    86   42  165 1    
    87   43  166 1    
    88   43  167 1    
    89   43  168 1    
    90   44   45 am   BACKBONE|DICT|INTERRES
    91   44  169 1    
    92   45   46 2    
    93   45   47 1    
    94   47   48 1    
    95   47   49 1    
    96   47  170 1    
    97   48  171 1    
    98   48  172 1    
    99   48  173 1    
   100   49   50 am   BACKBONE|DICT|INTERRES
   101   49  174 1    
   102   50   51 2    
   103   50   52 1    
   104   52   53 1    
   105   52   54 1    
   106   52  175 1    
   107   53  176 1    
   108   53  177 1    
   109   53  178 1    
   110   54   55 am   BACKBONE|DICT|INTERRES
   111   54  179 1    
   112   55   56 2    
   113   55   57 1    
   114   57   58 1    
   115   57   59 1    
   116   57  180 1    
   117   58  181 1    
   118   58  182 1    
   119   58  183 1    
   120   59   60 am   BACKBONE|DICT|INTERRES
   121   59  184 1    
   122   60   61 2    
   123   60   62 1    
   124   62   63 1    
   125   62   64 1    
   126   62  185 1    
   127   63  186 1    
   128   63  187 1    
   129   63  188 1    
   130   64   65 am   BACKBONE|DICT|INTERRES
   131   64  189 1    
   132   65   66 2    
   133   67   68 2    
   134   67   69 am   BACKBONE|DICT|INTERRES
   135   69   70 1    
   136   69  190 1    
   137   70   71 1    
   138   70   72 1    
   139   70  191 1    
   140   71  192 1    
   141   71  193 1    
   142   71  194 1    
   143   72   73 2    
   144   72   74 am   BACKBONE|DICT|INTERRES
   145   74   75 1    
   146   74  195 1    
   147   75   76 1    
   148   75   77 1    
   149   75  196 1    
   150   76  197 1    
   151   76  198 1    
   152   76  199 1    
   153   77   78 2    
   154   77   79 am   BACKBONE|DICT|INTERRES
   155   79   80 1    
   156   79  200 1    
   157   80   81 1    
   158   80   82 1    
   159   80  201 1    
   160   81  202 1    
   161   81  203 1    
   162   81  204 1    
   163   82   83 2    
   164   82   84 am   BACKBONE|DICT|INTERRES
   165   84   85 1    
   166   84  205 1    
   167   85   86 1    
   168   85   87 1    
   169   85  206 1    
   170   86  207 1    
   171   86  208 1    
   172   86  209 1    
   173   87   88 2    
   174   87   89 am   BACKBONE|DICT|INTERRES
   175   89   90 1    
   176   89  210 1    
   177   90   91 1    
   178   90   92 1    
   179   90  211 1    
   180   91  212 1    
   181   91  213 1    
   182   91  214 1    
   183   92   93 2    
   184   92   94 am   BACKBONE|DICT|INTERRES
   185   94   95 1    
   186   94  215 1    
   187   95   96 1    
   188   95   97 1    
   189   95  216 1    
   190   96  217 1    
   191   96  218 1    
   192   96  219 1    
   193   97   98 2    
   194   97   99 am   BACKBONE|DICT|INTERRES
   195   99  100 1    
   196   99  220 1    
   197  100  101 1    
   198  100  102 1    
   199  100  221 1    
   200  101  222 1    
   201  101  223 1    
   202  101  224 1    
   203  102  103 2    
   204  102  104 am   BACKBONE|DICT|INTERRES
   205  104  105 1    
   206  104  225 1    
   207  105  106 1    
   208  105  107 1    
   209  105  226 1    
   210  106  227 1    
   211  106  228 1    
   212  106  229 1    
   213  107  108 2    
   214  107  109 am   BACKBONE|DICT|INTERRES
   215  109  110 1    
   216  109  230 1    
   217  110  111 1    
   218  110  112 1    
   219  110  231 1    
   220  111  232 1    
   221  111  233 1    
   222  111  234 1    
   223  112  113 2    
   224  112  114 am   BACKBONE|DICT|INTERRES
   225  114  115 1    
   226  114  235 1    
   227  115  116 1    
   228  115  117 1    
   229  115  236 1    
   230  116  237 1    
   231  116  238 1    
   232  116  239 1    
   233  117  118 2    
   234  117  119 am   BACKBONE|DICT|INTERRES
   235  119  120 1    
   236  119  240 1    
   237  120  121 1    
   238  120  124 1    
   239  120  241 1    
   240  121  122 am   BACKBONE|DICT|INTERRES
   241  121  123 2    
   242  122  242 1    
   243  122  243 1    
   244  124  125 1    
   245  124  244 1    
   246  124  245 1    
   247  125  126 1    
   248  126  246 1    
   249  126  247 1    
@<TRIPOS>SUBSTRUCTURE
     1 UNK         1 GROUP             0       ****    0 ROOT    
