@<TRIPOS>MOLECULE
3R540
247   249    1
SMALL
USER_CHARGES


@<TRIPOS>ATOM
      1 CA          0.5758  -13.7706  -49.7006 C.3       0 UNK        -0.1800 
      2 C          -0.2097  -13.4358  -48.4427 C.2       0 UNK         0.5000 
      3 O           0.3498  -12.8782  -47.4984 O.2       0 UNK        -0.5000 
      4 N          -1.5145  -13.7379  -48.4288 N.am      1 UNK        -0.5000 
      5 CA         -2.4504  -13.5441  -47.3083 C.3       1 UNK         0.1400 
      6 C6         -3.7633  -14.3666  -47.4506 C.3       23 UNK        -0.0398 
      7 S7         -4.4552  -14.4435  -49.1414 S.3       23 UNK        -0.2404 
      8 C8         -4.2382  -16.2097  -49.5441 C.3       23 UNK        -0.0205 
      9 C9         -2.7936  -16.5451  -49.8825 C.ar      23 UNK        -0.0193 
     10 C10        -2.3572  -16.4841  -51.2079 C.ar      23 UNK        -0.1150 
     11 C11        -1.0342  -16.7833  -51.5454 C.ar      23 UNK        -0.0193 
     12 C12        -0.1369  -17.1195  -50.5225 C.ar      23 UNK        -0.1150 
     13 C13        -0.5561  -17.1712  -49.1908 C.ar      23 UNK        -0.0193 
     14 C14        -1.8917  -16.9114  -48.8794 C.ar      23 UNK        -0.1150 
     15 C15         0.4486  -17.4776  -48.0924 C.3       23 UNK        -0.0205 
     16 S16         0.8567  -19.2444  -48.0262 S.3       23 UNK        -0.2404 
     17 C17        -0.5182  -19.9028  -47.0244 C.3       23 UNK        -0.0398 
     18 CA         -0.6886  -21.4266  -47.2210 C.3       11 UNK         0.1400 
     19 N           0.5481  -22.1639  -46.9535 N.am      11 UNK        -0.5000 
     20 C           0.7816  -23.4267  -47.3321 C.2       10 UNK         0.5000 
     21 O          -0.0287  -24.1151  -47.9494 O.2       10 UNK        -0.5000 
     22 CA          2.1247  -24.0334  -46.8877 C.3       10 UNK         0.1400 
     23 CB          3.2329  -23.6836  -47.8912 C.3       10 UNK        -0.1800 
     24 N           2.5218  -23.5848  -45.5511 N.am      10 UNK        -0.5000 
     25 C           1.8337  -23.8172  -44.4270 C.2       9 UNK         0.5000 
     26 O           0.8030  -24.4901  -44.3966 O.2       9 UNK        -0.5000 
     27 CA          2.3298  -23.1353  -43.1386 C.3       9 UNK         0.1400 
     28 CB          3.4935  -23.9149  -42.4987 C.3       9 UNK        -0.1800 
     29 N           2.6447  -21.7075  -43.2991 N.am      9 UNK        -0.5000 
     30 C           3.6528  -21.1299  -43.9733 C.2       8 UNK         0.5000 
     31 O           4.4925  -21.7660  -44.6113 O.2       8 UNK        -0.5000 
     32 CA          3.7297  -19.5867  -43.9793 C.3       8 UNK         0.1400 
     33 CB          3.4365  -19.0418  -45.3829 C.3       8 UNK        -0.1800 
     34 N           2.8194  -18.9345  -43.0368 N.am      8 UNK        -0.5000 
     35 C           2.9711  -18.9211  -41.7064 C.2       7 UNK         0.5000 
     36 O           3.9447  -19.4013  -41.1252 O.2       7 UNK        -0.5000 
     37 CA          1.8311  -18.2915  -40.8825 C.3       7 UNK         0.1400 
     38 CB          2.1502  -16.8211  -40.5716 C.3       7 UNK        -0.1800 
     39 N           0.5085  -18.3579  -41.5113 N.am      7 UNK        -0.5000 
     40 C          -0.1427  -19.4532  -41.9222 C.2       6 UNK         0.5000 
     41 O           0.3392  -20.5848  -41.8760 O.2       6 UNK        -0.5000 
     42 CA         -1.5548  -19.2661  -42.5192 C.3       6 UNK         0.1400 
     43 CB         -2.6380  -19.4388  -41.4386 C.3       6 UNK        -0.1800 
     44 N          -1.7572  -18.0280  -43.2858 N.am      6 UNK        -0.5000 
     45 C          -1.7350  -16.7566  -42.8636 C.2       5 UNK         0.5000 
     46 O          -1.5411  -16.4128  -41.6962 O.2       5 UNK        -0.5000 
     47 CA         -1.8949  -15.6823  -43.9536 C.3       5 UNK         0.1400 
     48 CB         -3.0467  -14.7271  -43.6019 C.3       5 UNK        -0.1800 
     49 N          -0.6683  -14.9070  -44.1572 N.am      5 UNK        -0.5000 
     50 C           0.5539  -15.3971  -44.4180 C.2       4 UNK         0.5000 
     51 O           0.8002  -16.6010  -44.5217 O.2       4 UNK        -0.5000 
     52 CA          1.6929  -14.3764  -44.6149 C.3       4 UNK         0.1400 
     53 CB          2.6115  -14.7862  -45.7791 C.3       4 UNK        -0.1800 
     54 N           1.2084  -13.0153  -44.8702 N.am      4 UNK        -0.5000 
     55 C           1.1378  -12.0393  -43.9557 C.2       3 UNK         0.5000 
     56 O           1.3602  -12.2225  -42.7588 O.2       3 UNK        -0.5000 
     57 CA          0.7711  -10.6225  -44.4345 C.3       3 UNK         0.1400 
     58 CB          2.0432   -9.8122  -44.7406 C.3       3 UNK        -0.1800 
     59 N          -0.1194  -10.6010  -45.5995 N.am      3 UNK        -0.5000 
     60 C          -1.0121   -9.6260  -45.8417 C.2       2 UNK         0.5000 
     61 O          -1.1722   -8.6527  -45.1036 O.2       2 UNK        -0.5000 
     62 CA         -1.8820   -9.7412  -47.1142 C.3       2 UNK         0.1400 
     63 CB         -1.2771   -8.9081  -48.2545 C.3       2 UNK        -0.1800 
     64 N          -2.0429  -11.1197  -47.5714 N.am      2 UNK        -0.5000 
     65 C          -2.7027  -12.0720  -46.9011 C.2       1 UNK         0.5000 
     66 O          -3.4334  -11.8271  -45.9406 O.2       1 UNK        -0.5000 
     67 C          -1.8677  -21.9663  -46.3848 C.2       11 UNK         0.5000 
     68 O          -3.0003  -21.9529  -46.8665 O.2       11 UNK        -0.5000 
     69 N          -1.5837  -22.4635  -45.1696 N.am      12 UNK        -0.5000 
     70 CA         -2.5591  -23.1395  -44.3112 C.3       12 UNK         0.1400 
     71 CB         -2.0304  -23.2428  -42.8717 C.3       12 UNK        -0.1800 
     72 C          -2.9207  -24.5301  -44.8579 C.2       12 UNK         0.5000 
     73 O          -4.1012  -24.8745  -44.8939 O.2       12 UNK        -0.5000 
     74 N          -1.9112  -25.2799  -45.3261 N.am      13 UNK        -0.5000 
     75 CA         -2.0743  -26.5767  -45.9922 C.3       13 UNK         0.1400 
     76 CB         -0.6940  -27.2078  -46.2282 C.3       13 UNK        -0.1800 
     77 C          -2.8687  -26.4753  -47.3106 C.2       13 UNK         0.5000 
     78 O          -3.6767  -27.3552  -47.6079 O.2       13 UNK        -0.5000 
     79 N          -2.6630  -25.3735  -48.0439 N.am      14 UNK        -0.5000 
     80 CA         -3.4209  -24.9820  -49.2334 C.3       14 UNK         0.1400 
     81 CB         -2.6056  -23.9313  -50.0022 C.3       14 UNK        -0.1800 
     82 C          -4.8324  -24.4358  -48.9280 C.2       14 UNK         0.5000 
     83 O          -5.5734  -24.1520  -49.8686 O.2       14 UNK        -0.5000 
     84 N          -5.1757  -24.2583  -47.6423 N.am      15 UNK        -0.5000 
     85 CA         -6.4369  -23.7123  -47.1265 C.3       15 UNK         0.1400 
     86 CB         -7.5986  -24.6921  -47.3920 C.3       15 UNK        -0.1800 
     87 C          -6.7274  -22.2809  -47.6281 C.2       15 UNK         0.5000 
     88 O          -7.8844  -21.9330  -47.8702 O.2       15 UNK        -0.5000 
     89 N          -5.6574  -21.4877  -47.7910 N.am      16 UNK        -0.5000 
     90 CA         -5.6237  -20.1134  -48.2996 C.3       16 UNK         0.1400 
     91 CB         -6.3668  -19.1589  -47.3411 C.3       16 UNK        -0.1800 
     92 C          -6.0796  -19.9561  -49.7685 C.2       16 UNK         0.5000 
     93 O          -6.3395  -18.8308  -50.1974 O.2       16 UNK        -0.5000 
     94 N          -6.1495  -21.0578  -50.5315 N.am      17 UNK        -0.5000 
     95 CA         -6.4340  -21.0434  -51.9647 C.3       17 UNK         0.1400 
     96 CB         -6.8802  -22.4422  -52.4189 C.3       17 UNK        -0.1800 
     97 C          -5.1788  -20.5878  -52.7224 C.2       17 UNK         0.5000 
     98 O          -4.1975  -21.3317  -52.7653 O.2       17 UNK        -0.5000 
     99 N          -5.2174  -19.3729  -53.2850 N.am      18 UNK        -0.5000 
    100 CA        -4.0749  -18.6869  -53.8992 C.3       18 UNK         0.1400 
    101 CB        -4.5209  -17.3063  -54.4016 C.3       18 UNK        -0.1800 
    102 C         -3.3736  -19.4724  -55.0239 C.2       18 UNK         0.5000 
    103 O         -2.1537  -19.3832  -55.1531 O.2       18 UNK        -0.5000 
    104 N         -4.1492  -20.2597  -55.7806 N.am      19 UNK        -0.5000 
    105 CA        -3.6673  -21.1329  -56.8529 C.3       19 UNK         0.1400 
    106 CB        -4.8766  -21.6382  -57.6555 C.3       19 UNK        -0.1800 
    107 C         -2.8113  -22.3209  -56.3643 C.2       19 UNK         0.5000 
    108 O         -2.0661  -22.8864  -57.1657 O.2       19 UNK        -0.5000 
    109 N         -2.9405  -22.6872  -55.0823 N.am      20 UNK        -0.5000 
    110 CA        -2.1545  -23.7322  -54.4286 C.3       20 UNK         0.1400 
    111 CB        -3.1083  -24.6880  -53.6937 C.3       20 UNK        -0.1800 
    112 C         -1.1222  -23.1317  -53.4584 C.2       20 UNK         0.5000 
    113 O         -0.0173  -23.6643  -53.3496 O.2       20 UNK        -0.5000 
    114 N         -1.4947  -22.0440  -52.7692 N.am      21 UNK        -0.5000 
    115 CA        -0.6692  -21.3490  -51.7822 C.3       21 UNK         0.1400 
    116 CB        -1.5550  -20.3750  -50.9918 C.3       21 UNK        -0.1800 
    117 C          0.5426  -20.6234  -52.3994 C.2       21 UNK         0.5000 
    118 O          1.6035  -20.5940  -51.7748 O.2       21 UNK        -0.5000 
    119 N          0.3770  -20.0861  -53.6144 N.am      22 UNK        -0.5000 
    120 CA         1.4445  -19.4915  -54.4310 C.3       22 UNK         0.1400 
    121 C          1.6890  -20.3494  -55.7000 C.2       22 UNK         0.5000 
    122 N          2.9184  -20.3868  -56.1993 N.am      22 UNK        -0.7600 
    123 O          0.7770  -20.9552  -56.2600 O.2       22 UNK        -0.5000 
    124 C124        1.1280  -18.0250  -54.8230 C.3       23 UNK        -0.0398 
    125 S125        1.1379  -16.9019  -53.3838 S.3       23 UNK        -0.2404 
    126 C126       -0.6469  -16.7597  -53.0243 C.3       23 UNK        -0.0205 
    127 H127       -0.0749  -14.1250  -50.5002 H         1 UNK         0.0600 
    128 H128        1.3107  -14.5463  -49.4872 H         1 UNK         0.0600 
    129 H129        1.1042  -12.8877  -50.0595 H         1 UNK         0.0600 
    130 H130       -1.9243  -14.1804  -49.2408 H         1 UNK         0.3000 
    131 H131       -1.9341  -13.9587  -46.4423 H         1 UNK         0.0600 
    132 H132       -4.5467  -13.9950  -46.7877 H         1 UNK         0.0800 
    133 H133       -3.5855  -15.3801  -47.0959 H         1 UNK         0.0800 
    134 H134       -4.8804  -16.4555  -50.3914 H         1 UNK         0.0800 
    135 H135       -4.5869  -16.8282  -48.7172 H         1 UNK         0.0800 
    136 H136       -3.0569  -16.2088  -51.9841 H         1 UNK         0.1150 
    137 H137        0.8935  -17.3530  -50.7452 H         1 UNK         0.1150 
    138 H138       -2.2170  -16.9682  -47.8518 H         1 UNK         0.1150 
    139 H139        1.3649  -16.9162  -48.2793 H         1 UNK         0.0800 
    140 H140        0.0834  -17.1429  -47.1205 H         1 UNK         0.0800 
    141 H141       -1.4368  -19.3847  -47.3049 H         1 UNK         0.0800 
    142 H142       -0.3262  -19.6600  -45.9777 H         1 UNK         0.0800 
    143 H143       -0.9425  -21.5915  -48.2696 H         1 UNK         0.0600 
    144 H144        1.2808  -21.6611  -46.4764 H         1 UNK         0.3000 
    145 H145        2.0102  -25.1188  -46.8610 H         1 UNK         0.0600 
    146 H146        4.1730  -24.1662  -47.6238 H         1 UNK         0.0600 
    147 H147        2.9697  -24.0178  -48.8957 H         1 UNK         0.0600 
    148 H148        3.4095  -22.6080  -47.9381 H         1 UNK         0.0600 
    149 H149        3.3596  -23.0138  -45.4756 H         1 UNK         0.3000 
    150 H150        1.4973  -23.1669  -42.4338 H         1 UNK         0.0600 
    151 H151        3.1950  -24.9398  -42.2751 H         1 UNK         0.0600 
    152 H152        3.8056  -23.4551  -41.5610 H         1 UNK         0.0600 
    153 H153        4.3638  -23.9674  -43.1530 H         1 UNK         0.0600 
    154 H154        1.9887  -21.0929  -42.8256 H         1 UNK         0.3000 
    155 H155        4.7544  -19.3173  -43.7159 H         1 UNK         0.0600 
    156 H156        2.3885  -19.1797  -45.6424 H         1 UNK         0.0600 
    157 H157        4.0380  -19.5398  -46.1445 H         1 UNK         0.0600 
    158 H158        3.6576  -17.9775  -45.4434 H         1 UNK         0.0600 
    159 H159        2.0043  -18.4814  -43.4297 H         1 UNK         0.3000 
    160 H160        1.7708  -18.8390  -39.9401 H         1 UNK         0.0600 
    161 H161        2.1831  -16.2180  -41.4801 H         1 UNK         0.0600 
    162 H162        3.1174  -16.7247  -40.0763 H         1 UNK         0.0600 
    163 H163        1.4017  -16.3864  -39.9086 H         1 UNK         0.0600 
    164 H164       -0.0054  -17.4834  -41.5704 H         1 UNK         0.3000 
    165 H165       -1.6861  -20.0696  -43.2447 H         1 UNK         0.0600 
    166 H166       -2.5749  -18.6676  -40.6705 H         1 UNK         0.0600 
    167 H167       -3.6370  -19.3997  -41.8728 H         1 UNK         0.0600 
    168 H168       -2.5395  -20.4025  -40.9375 H         1 UNK         0.0600 
    169 H169       -1.8711  -18.1724  -44.2781 H         1 UNK         0.3000 
    170 H170       -2.1350  -16.1704  -44.9002 H         1 UNK         0.0600 
    171 H171       -2.8406  -14.1666  -42.6890 H         1 UNK         0.0600 
    172 H172       -3.2303  -14.0077  -44.3969 H         1 UNK         0.0600 
    173 H173       -3.9757  -15.2769  -43.4455 H         1 UNK         0.0600 
    174 H174       -0.7477  -13.9074  -44.0495 H         1 UNK         0.3000 
    175 H175        2.2912  -14.3933  -43.7019 H         1 UNK         0.0600 
    176 H176        2.0581  -14.8923  -46.7123 H         1 UNK         0.0600 
    177 H177        3.3997  -14.0503  -45.9386 H         1 UNK         0.0600 
    178 H178        3.0994  -15.7389  -45.5772 H         1 UNK         0.0600 
    179 H179        0.9835  -12.8217  -45.8440 H         1 UNK         0.3000 
    180 H180        0.2607  -10.1483  -43.5933 H         1 UNK         0.0600 
    181 H181        1.8073   -8.7696  -44.9540 H         1 UNK         0.0600 
    182 H182        2.5772  -10.2179  -45.6007 H         1 UNK         0.0600 
    183 H183        2.7288   -9.8210  -43.8923 H         1 UNK         0.0600 
    184 H184       -0.0348  -11.3634  -46.2632 H         1 UNK         0.3000 
    185 H185       -2.8699   -9.3391  -46.8802 H         1 UNK         0.0600 
    186 H186       -1.9135   -8.9291  -49.1394 H         1 UNK         0.0600 
    187 H187       -1.1667   -7.8638  -47.9593 H         1 UNK         0.0600 
    188 H188       -0.2902   -9.2746  -48.5406 H         1 UNK         0.0600 
    189 H189       -1.4554  -11.4118  -48.3386 H         1 UNK         0.3000 
    190 H190       -0.6211  -22.4941  -44.8689 H         1 UNK         0.3000 
    191 H191       -3.4710  -22.5385  -44.2911 H         1 UNK         0.0600 
    192 H192       -2.7808  -23.6875  -42.2170 H         1 UNK         0.0600 
    193 H193       -1.7874  -22.2653  -42.4618 H         1 UNK         0.0600 
    194 H194       -1.1369  -23.8620  -42.8041 H         1 UNK         0.0600 
    195 H195       -0.9603  -24.9441  -45.2082 H         1 UNK         0.3000 
    196 H196       -2.6345  -27.2273  -45.3176 H         1 UNK         0.0600 
    197 H197       -0.0843  -26.6062  -46.9021 H         1 UNK         0.0600 
    198 H198       -0.1460  -27.3197  -45.2924 H         1 UNK         0.0600 
    199 H199       -0.7900  -28.1998  -46.6710 H         1 UNK         0.0600 
    200 H200       -1.9065  -24.7535  -47.7724 H         1 UNK         0.3000 
    201 H201       -3.5444  -25.8574  -49.8740 H         1 UNK         0.0600 
    202 H202       -2.3944  -23.0624  -49.3812 H         1 UNK         0.0600 
    203 H203       -3.1426  -23.5728  -50.8797 H         1 UNK         0.0600 
    204 H204       -1.6543  -24.3389  -50.3447 H         1 UNK         0.0600 
    205 H205       -4.5014  -24.5113  -46.9304 H         1 UNK         0.3000 
    206 H206       -6.3148  -23.6321  -46.0456 H         1 UNK         0.0600 
    207 H207       -7.3659  -25.6885  -47.0161 H         1 UNK         0.0600 
    208 H208       -8.5106  -24.3631  -46.8926 H         1 UNK         0.0600 
    209 H209       -7.8210  -24.7781  -48.4560 H         1 UNK         0.0600 
    210 H210       -4.7462  -21.8639  -47.5357 H         1 UNK         0.3000 
    211 H211       -4.5713  -19.8254  -48.2915 H         1 UNK         0.0600 
    212 H212       -6.2332  -18.1176  -47.6331 H         1 UNK         0.0600 
    213 H213       -5.9940  -19.2572  -46.3215 H         1 UNK         0.0600 
    214 H214       -7.4394  -19.3529  -47.3267 H         1 UNK         0.0600 
    215 H215       -5.9107  -21.9564  -50.1298 H         1 UNK         0.3000 
    216 H216       -7.2529  -20.3481  -52.1609 H         1 UNK         0.0600 
    217 H217       -6.0915  -23.1840  -52.2891 H         1 UNK         0.0600 
    218 H218       -7.1531  -22.4391  -53.4747 H         1 UNK         0.0600 
    219 H219       -7.7507  -22.7804  -51.8566 H         1 UNK         0.0600 
    220 H220       -6.0593  -18.8246  -53.1814 H         1 UNK         0.3000 
    221 H221       -3.3407  -18.5331  -53.1090 H         1 UNK         0.0600 
    222 H222       -4.9321  -16.7040  -53.5912 H         1 UNK         0.0600 
    223 H223       -5.2818  -17.3881  -55.1787 H         1 UNK         0.0600 
    224 H224       -3.6796  -16.7529  -54.8213 H         1 UNK         0.0600 
    225 H225       -5.1405  -20.2778  -55.5911 H         1 UNK         0.3000 
    226 H226       -3.0407  -20.5343  -57.5175 H         1 UNK         0.0600 
    227 H227       -5.5507  -22.2306  -57.0356 H         1 UNK         0.0600 
    228 H228       -5.4461  -20.8093  -58.0763 H         1 UNK         0.0600 
    229 H229       -4.5586  -22.2672  -58.4882 H         1 UNK         0.0600 
    230 H230       -3.5627  -22.1562  -54.4835 H         1 UNK         0.3000 
    231 H231       -1.6011  -24.3172  -55.1661 H         1 UNK         0.0600 
    232 H232       -3.7756  -24.1534  -53.0178 H         1 UNK         0.0600 
    233 H233       -2.5569  -25.4224  -53.1051 H         1 UNK         0.0600 
    234 H234       -3.7290  -25.2376  -54.4013 H         1 UNK         0.0600 
    235 H235       -2.4507  -21.7095  -52.8646 H         1 UNK         0.3000 
    236 H236       -0.2858  -22.0957  -51.0834 H         1 UNK         0.0600 
    237 H237       -2.3972  -20.8847  -50.5243 H         1 UNK         0.0600 
    238 H238       -0.9876  -19.8915  -50.1992 H         1 UNK         0.0600 
    239 H239       -1.9544  -19.5897  -51.6308 H         1 UNK         0.0600 
    240 H240       -0.5164  -20.1805  -54.0847 H         1 UNK         0.3000 
    241 H241        2.3791  -19.4885  -53.8668 H         1 UNK         0.0600 
    242 H242        3.0898  -20.9305  -57.0311 H         1 UNK         0.3800 
    243 H243        3.6853  -19.8936  -55.7660 H         1 UNK         0.3800 
    244 H244        0.1769  -17.9565  -55.3533 H         1 UNK         0.0800 
    245 H245        1.8817  -17.6495  -55.5173 H         1 UNK         0.0800 
    246 H246       -1.0161  -15.8418  -53.4837 H         1 UNK         0.0800 
    247 H247       -1.1740  -17.5803  -53.5069 H         1 UNK         0.0800 
@<TRIPOS>BOND
     1    1    2 1    
     2    1  127 1    
     3    1  128 1    
     4    1  129 1    
     5    2    3 2    
     6    2    4 am   BACKBONE|DICT|INTERRES
     7    4    5 1    
     8    4  130 1    
     9    5    6 1    
    10    5   65 1    
    11    5  131 1    
    12    6    7 1    
    13    6  132 1    
    14    6  133 1    
    15    7    8 1    
    16    8    9 1    
    17    8  134 1    
    18    8  135 1    
    19    9   10 ar   
    20    9   14 ar   
    21   10   11 ar   
    22   10  136 1    
    23   11   12 ar   
    24   11  126 1    
    25   12   13 ar   
    26   12  137 1    
    27   13   14 ar   
    28   13   15 1    
    29   14  138 1    
    30   15   16 1    
    31   15  139 1    
    32   15  140 1    
    33   16   17 1    
    34   17   18 1    
    35   17  141 1    
    36   17  142 1    
    37   18   19 1    
    38   18   67 1    
    39   18  143 1    
    40   19   20 am   BACKBONE|DICT|INTERRES
    41   19  144 1    
    42   20   21 2    
    43   20   22 1    
    44   22   23 1    
    45   22   24 1    
    46   22  145 1    
    47   23  146 1    
    48   23  147 1    
    49   23  148 1    
    50   24   25 am   BACKBONE|DICT|INTERRES
    51   24  149 1    
    52   25   26 2    
    53   25   27 1    
    54   27   28 1    
    55   27   29 1    
    56   27  150 1    
    57   28  151 1    
    58   28  152 1    
    59   28  153 1    
    60   29   30 am   BACKBONE|DICT|INTERRES
    61   29  154 1    
    62   30   31 2    
    63   30   32 1    
    64   32   33 1    
    65   32   34 1    
    66   32  155 1    
    67   33  156 1    
    68   33  157 1    
    69   33  158 1    
    70   34   35 am   BACKBONE|DICT|INTERRES
    71   34  159 1    
    72   35   36 2    
    73   35   37 1    
    74   37   38 1    
    75   37   39 1    
    76   37  160 1    
    77   38  161 1    
    78   38  162 1    
    79   38  163 1    
    80   39   40 am   BACKBONE|DICT|INTERRES
    81   39  164 1    
    82   40   41 2    
    83   40   42 1    
    84   42   43 1    
    85   42   44 1    
    86   42  165 1    
    87   43  166 1    
    88   43  167 1    
    89   43  168 1    
    90   44   45 am   BACKBONE|DICT|INTERRES
    91   44  169 1    
    92   45   46 2    
    93   45   47 1    
    94   47   48 1    
    95   47   49 1    
    96   47  170 1    
    97   48  171 1    
    98   48  172 1    
    99   48  173 1    
   100   49   50 am   BACKBONE|DICT|INTERRES
   101   49  174 1    
   102   50   51 2    
   103   50   52 1    
   104   52   53 1    
   105   52   54 1    
   106   52  175 1    
   107   53  176 1    
   108   53  177 1    
   109   53  178 1    
   110   54   55 am   BACKBONE|DICT|INTERRES
   111   54  179 1    
   112   55   56 2    
   113   55   57 1    
   114   57   58 1    
   115   57   59 1    
   116   57  180 1    
   117   58  181 1    
   118   58  182 1    
   119   58  183 1    
   120   59   60 am   BACKBONE|DICT|INTERRES
   121   59  184 1    
   122   60   61 2    
   123   60   62 1    
   124   62   63 1    
   125   62   64 1    
   126   62  185 1    
   127   63  186 1    
   128   63  187 1    
   129   63  188 1    
   130   64   65 am   BACKBONE|DICT|INTERRES
   131   64  189 1    
   132   65   66 2    
   133   67   68 2    
   134   67   69 am   BACKBONE|DICT|INTERRES
   135   69   70 1    
   136   69  190 1    
   137   70   71 1    
   138   70   72 1    
   139   70  191 1    
   140   71  192 1    
   141   71  193 1    
   142   71  194 1    
   143   72   73 2    
   144   72   74 am   BACKBONE|DICT|INTERRES
   145   74   75 1    
   146   74  195 1    
   147   75   76 1    
   148   75   77 1    
   149   75  196 1    
   150   76  197 1    
   151   76  198 1    
   152   76  199 1    
   153   77   78 2    
   154   77   79 am   BACKBONE|DICT|INTERRES
   155   79   80 1    
   156   79  200 1    
   157   80   81 1    
   158   80   82 1    
   159   80  201 1    
   160   81  202 1    
   161   81  203 1    
   162   81  204 1    
   163   82   83 2    
   164   82   84 am   BACKBONE|DICT|INTERRES
   165   84   85 1    
   166   84  205 1    
   167   85   86 1    
   168   85   87 1    
   169   85  206 1    
   170   86  207 1    
   171   86  208 1    
   172   86  209 1    
   173   87   88 2    
   174   87   89 am   BACKBONE|DICT|INTERRES
   175   89   90 1    
   176   89  210 1    
   177   90   91 1    
   178   90   92 1    
   179   90  211 1    
   180   91  212 1    
   181   91  213 1    
   182   91  214 1    
   183   92   93 2    
   184   92   94 am   BACKBONE|DICT|INTERRES
   185   94   95 1    
   186   94  215 1    
   187   95   96 1    
   188   95   97 1    
   189   95  216 1    
   190   96  217 1    
   191   96  218 1    
   192   96  219 1    
   193   97   98 2    
   194   97   99 am   BACKBONE|DICT|INTERRES
   195   99  100 1    
   196   99  220 1    
   197  100  101 1    
   198  100  102 1    
   199  100  221 1    
   200  101  222 1    
   201  101  223 1    
   202  101  224 1    
   203  102  103 2    
   204  102  104 am   BACKBONE|DICT|INTERRES
   205  104  105 1    
   206  104  225 1    
   207  105  106 1    
   208  105  107 1    
   209  105  226 1    
   210  106  227 1    
   211  106  228 1    
   212  106  229 1    
   213  107  108 2    
   214  107  109 am   BACKBONE|DICT|INTERRES
   215  109  110 1    
   216  109  230 1    
   217  110  111 1    
   218  110  112 1    
   219  110  231 1    
   220  111  232 1    
   221  111  233 1    
   222  111  234 1    
   223  112  113 2    
   224  112  114 am   BACKBONE|DICT|INTERRES
   225  114  115 1    
   226  114  235 1    
   227  115  116 1    
   228  115  117 1    
   229  115  236 1    
   230  116  237 1    
   231  116  238 1    
   232  116  239 1    
   233  117  118 2    
   234  117  119 am   BACKBONE|DICT|INTERRES
   235  119  120 1    
   236  119  240 1    
   237  120  121 1    
   238  120  124 1    
   239  120  241 1    
   240  121  122 am   BACKBONE|DICT|INTERRES
   241  121  123 2    
   242  122  242 1    
   243  122  243 1    
   244  124  125 1    
   245  124  244 1    
   246  124  245 1    
   247  125  126 1    
   248  126  246 1    
   249  126  247 1    
@<TRIPOS>SUBSTRUCTURE
     1 UNK         1 GROUP             0       ****    0 ROOT    
