@<TRIPOS>MOLECULE
3R540
247   249    1
SMALL
USER_CHARGES


@<TRIPOS>ATOM
      1 CA          2.6327  -12.1933  -51.7117 C.3       0 UNK        -0.1800 
      2 C           2.8815  -11.9801  -50.2252 C.2       0 UNK         0.5000 
      3 O           2.8583  -10.8424  -49.7556 O.2       0 UNK        -0.5000 
      4 N           3.1184  -13.0703  -49.4854 N.am      1 UNK        -0.5000 
      5 CA          3.3568  -13.0721  -48.0357 C.3       1 UNK         0.1400 
      6 C6          4.1189  -14.3423  -47.5773 C.3       23 UNK        -0.0398 
      7 S7          3.3528  -15.9253  -48.0884 S.3       23 UNK        -0.2404 
      8 C8          4.5316  -16.4602  -49.3681 C.3       23 UNK        -0.0205 
      9 C9          4.1871  -17.8343  -49.9194 C.ar      23 UNK        -0.0193 
     10 C10         3.3735  -17.9639  -51.0492 C.ar      23 UNK        -0.1150 
     11 C11         3.0925  -19.2266  -51.5835 C.ar      23 UNK        -0.0193 
     12 C12         3.6252  -20.3637  -50.9690 C.ar      23 UNK        -0.1150 
     13 C13         4.4205  -20.2481  -49.8245 C.ar      23 UNK        -0.0193 
     14 C14         4.7075  -18.9797  -49.3126 C.ar      23 UNK        -0.1150 
     15 C15         4.9496  -21.4962  -49.1295 C.3       23 UNK        -0.0205 
     16 S16         4.3543  -21.6401  -47.4109 S.3       23 UNK        -0.2404 
     17 C17         2.5446  -21.5492  -47.6240 C.3       23 UNK        -0.0398 
     18 CA          1.8248  -22.8342  -47.1597 C.3       11 UNK         0.1400 
     19 N           1.9143  -22.9914  -45.7099 N.am      11 UNK        -0.5000 
     20 C           2.0435  -24.1434  -45.0456 C.2       10 UNK         0.5000 
     21 O           2.1248  -25.2441  -45.5947 O.2       10 UNK        -0.5000 
     22 CA          2.0896  -24.0270  -43.5053 C.3       10 UNK         0.1400 
     23 CB          2.5499  -25.3212  -42.8025 C.3       10 UNK        -0.1800 
     24 N           2.8677  -22.8671  -43.0541 N.am      10 UNK        -0.5000 
     25 C           4.1798  -22.6377  -43.2143 C.2       9 UNK         0.5000 
     26 O           4.9689  -23.4564  -43.6872 O.2       9 UNK        -0.5000 
     27 CA          4.7084  -21.2508  -42.7863 C.3       9 UNK         0.1400 
     28 CB          5.0313  -20.3946  -44.0202 C.3       9 UNK        -0.1800 
     29 N           3.7829  -20.5010  -41.9342 N.am      9 UNK        -0.5000 
     30 C           3.5686  -20.7388  -40.6335 C.2       8 UNK         0.5000 
     31 O           4.1618  -21.6040  -39.9886 O.2       8 UNK        -0.5000 
     32 CA          2.4868  -19.8827  -39.9467 C.3       8 UNK         0.1400 
     33 CB          3.0654  -18.5442  -39.4630 C.3       8 UNK        -0.1800 
     34 N           1.3392  -19.6320  -40.8208 N.am      8 UNK        -0.5000 
     35 C           0.4550  -20.5697  -41.1894 C.2       7 UNK         0.5000 
     36 O           0.4852  -21.7338  -40.7899 O.2       7 UNK        -0.5000 
     37 CA         -0.6201  -20.1507  -42.2070 C.3       7 UNK         0.1400 
     38 CB         -1.8131  -19.4948  -41.4966 C.3       7 UNK        -0.1800 
     39 N          -0.1069  -19.2511  -43.2419 N.am      7 UNK        -0.5000 
     40 C           0.8242  -19.5872  -44.1457 C.2       6 UNK         0.5000 
     41 O           1.3196  -20.7077  -44.2244 O.2       6 UNK        -0.5000 
     42 CA          1.3275  -18.4855  -45.0926 C.3       6 UNK         0.1400 
     43 CB          0.3955  -18.3439  -46.2971 C.3       6 UNK        -0.1800 
     44 N           1.4755  -17.1918  -44.4336 N.am      6 UNK        -0.5000 
     45 C           2.3063  -16.9566  -43.4087 C.2       5 UNK         0.5000 
     46 O           3.0536  -17.8055  -42.9224 O.2       5 UNK        -0.5000 
     47 CA          2.2573  -15.5490  -42.7985 C.3       5 UNK         0.1400 
     48 CB          3.1070  -14.5780  -43.6256 C.3       5 UNK        -0.1800 
     49 N           0.8835  -15.0542  -42.7157 N.am      5 UNK        -0.5000 
     50 C          -0.0093  -15.4823  -41.8127 C.2       4 UNK         0.5000 
     51 O           0.2495  -16.3013  -40.9297 O.2       4 UNK        -0.5000 
     52 CA         -1.4386  -14.9237  -41.9400 C.3       4 UNK         0.1400 
     53 CB         -1.5327  -13.5212  -41.3202 C.3       4 UNK        -0.1800 
     54 N          -1.9115  -14.8754  -43.3253 N.am      4 UNK        -0.5000 
     55 C          -2.1363  -15.9571  -44.0835 C.2       3 UNK         0.5000 
     56 O          -1.9612  -17.1105  -43.6966 O.2       3 UNK        -0.5000 
     57 CA         -2.6142  -15.7183  -45.5262 C.3       3 UNK         0.1400 
     58 CB         -4.1474  -15.6619  -45.5841 C.3       3 UNK        -0.1800 
     59 N          -2.0602  -14.5247  -46.1681 N.am      3 UNK        -0.5000 
     60 C          -0.7577  -14.2821  -46.3676 C.2       2 UNK         0.5000 
     61 O           0.1483  -14.9780  -45.9005 O.2       2 UNK        -0.5000 
     62 CA         -0.4512  -13.0636  -47.2593 C.3       2 UNK         0.1400 
     63 CB         -0.7624  -11.7342  -46.5403 C.3       2 UNK        -0.1800 
     64 N           0.9051  -13.0912  -47.8175 N.am      2 UNK        -0.5000 
     65 C           2.0728  -12.8381  -47.2063 C.2       1 UNK         0.5000 
     66 O           2.1776  -12.4177  -46.0538 O.2       1 UNK        -0.5000 
     67 C           0.3486  -22.7851  -47.5975 C.2       11 UNK         0.5000 
     68 O          -0.5244  -22.3986  -46.8161 O.2       11 UNK        -0.5000 
     69 N           0.1063  -23.1259  -48.8716 N.am      12 UNK        -0.5000 
     70 CA         -1.2173  -23.1674  -49.5008 C.3       12 UNK         0.1400 
     71 CB         -1.0865  -23.7585  -50.9104 C.3       12 UNK        -0.1800 
     72 C          -1.9432  -21.8106  -49.5609 C.2       12 UNK         0.5000 
     73 O          -3.1729  -21.7923  -49.5527 O.2       12 UNK        -0.5000 
     74 N          -1.1867  -20.7024  -49.5746 N.am      13 UNK        -0.5000 
     75 CA         -1.6904  -19.3222  -49.5617 C.3       13 UNK         0.1400 
     76 CB         -0.5129  -18.3449  -49.7361 C.3       13 UNK        -0.1800 
     77 C          -2.5483  -18.9540  -48.3298 C.2       13 UNK         0.5000 
     78 O          -3.2388  -17.9356  -48.3618 O.2       13 UNK        -0.5000 
     79 N          -2.5213  -19.7941  -47.2840 N.am      14 UNK        -0.5000 
     80 CA         -3.4175  -19.7333  -46.1304 C.3       14 UNK         0.1400 
     81 CB         -2.9592  -20.7722  -45.0990 C.3       14 UNK        -0.1800 
     82 C          -4.8955  -19.9727  -46.5009 C.2       14 UNK         0.5000 
     83 O          -5.7799  -19.4393  -45.8296 O.2       14 UNK        -0.5000 
     84 N          -5.1451  -20.7474  -47.5680 N.am      15 UNK        -0.5000 
     85 CA         -6.4704  -21.0274  -48.1181 C.3       15 UNK         0.1400 
     86 CB         -6.4336  -22.3792  -48.8547 C.3       15 UNK        -0.1800 
     87 C          -6.9427  -19.8681  -49.0178 C.2       15 UNK         0.5000 
     88 O          -7.0929  -20.0353  -50.2293 O.2       15 UNK        -0.5000 
     89 N          -7.1444  -18.6957  -48.4046 N.am      16 UNK        -0.5000 
     90 CA         -7.6704  -17.4939  -49.0481 C.3       16 UNK         0.1400 
     91 CB         -7.5606  -16.3139  -48.0713 C.3       16 UNK        -0.1800 
     92 C          -9.1280  -17.6917  -49.5045 C.2       16 UNK         0.5000 
     93 O          -9.9161  -18.2998  -48.7757 O.2       16 UNK        -0.5000 
     94 N          -9.4489  -17.1669  -50.6961 N.am      17 UNK        -0.5000 
     95 CA        -10.7424  -17.2759  -51.3858 C.3       17 UNK         0.1400 
     96 CB        -11.8402  -16.5040  -50.6228 C.3       17 UNK        -0.1800 
     97 C         -11.1396  -18.7352  -51.7090 C.2       17 UNK         0.5000 
     98 O         -12.3229  -19.0793  -51.6780 O.2       17 UNK        -0.5000 
     99 N         -10.1380  -19.5648  -52.0203 N.am      18 UNK        -0.5000 
    100 CA       -10.2682  -20.9706  -52.3856 C.3       18 UNK         0.1400 
    101 CB       -10.1518  -21.8389  -51.1200 C.3       18 UNK        -0.1800 
    102 C         -9.1872  -21.3239  -53.4195 C.2       18 UNK         0.5000 
    103 O         -8.3008  -20.5093  -53.6964 O.2       18 UNK        -0.5000 
    104 N         -9.2790  -22.5357  -53.9800 N.am      19 UNK        -0.5000 
    105 CA        -8.3721  -23.0786  -54.9937 C.3       19 UNK         0.1400 
    106 CB        -9.0979  -24.2088  -55.7466 C.3       19 UNK        -0.1800 
    107 C         -7.0253  -23.5354  -54.3914 C.2       19 UNK         0.5000 
    108 O         -6.7089  -24.7271  -54.4020 O.2       19 UNK        -0.5000 
    109 N         -6.2625  -22.5752  -53.8575 N.am      20 UNK        -0.5000 
    110 CA        -4.9105  -22.7588  -53.3338 C.3       20 UNK         0.1400 
    111 CB        -4.4676  -21.4573  -52.6469 C.3       20 UNK        -0.1800 
    112 C         -3.9085  -23.1266  -54.4436 C.2       20 UNK         0.5000 
    113 O         -4.0175  -22.6174  -55.5626 O.2       20 UNK        -0.5000 
    114 N         -2.9044  -23.9434  -54.0949 N.am      21 UNK        -0.5000 
    115 CA        -1.8070  -24.3577  -54.9804 C.3       21 UNK         0.1400 
    116 CB        -0.9631  -25.4294  -54.2735 C.3       21 UNK        -0.1800 
    117 C         -0.9133  -23.1940  -55.4613 C.2       21 UNK         0.5000 
    118 O         -0.2450  -23.3275  -56.4871 O.2       21 UNK        -0.5000 
    119 N         -0.9455  -22.0700  -54.7337 N.am      22 UNK        -0.5000 
    120 CA        -0.3707  -20.7788  -55.1385 C.3       22 UNK         0.1400 
    121 C         -1.0840  -20.1094  -56.3539 C.2       22 UNK         0.5000 
    122 N         -2.2808  -20.5276  -56.7528 N.am      22 UNK        -0.7600 
    123 O         -0.5340  -19.1885  -56.9513 O.2       22 UNK        -0.5000 
    124 C124       -0.3121  -19.7882  -53.9481 C.3       23 UNK        -0.0398 
    125 S125        0.7457  -20.3637  -52.5752 S.3       23 UNK        -0.2404 
    126 C126        2.2418  -19.3545  -52.8408 C.3       23 UNK        -0.0205 
    127 H127        2.6874  -13.2473  -51.9854 H         1 UNK         0.0600 
    128 H128        3.3749  -11.6512  -52.2977 H         1 UNK         0.0600 
    129 H129        1.6446  -11.8221  -51.9837 H         1 UNK         0.0600 
    130 H130        3.1177  -13.9806  -49.9225 H         1 UNK         0.3000 
    131 H131        4.0074  -12.2230  -47.8142 H         1 UNK         0.0600 
    132 H132        5.1372  -14.2989  -47.9654 H         1 UNK         0.0800 
    133 H133        4.2361  -14.3507  -46.4930 H         1 UNK         0.0800 
    134 H134        4.5532  -15.7284  -50.1767 H         1 UNK         0.0800 
    135 H135        5.5380  -16.4800  -48.9467 H         1 UNK         0.0800 
    136 H136        2.9718  -17.0777  -51.5199 H         1 UNK         0.1150 
    137 H137        3.4061  -21.3400  -51.3784 H         1 UNK         0.1150 
    138 H138        5.3269  -18.8865  -48.4314 H         1 UNK         0.1150 
    139 H139        4.6666  -22.3967  -49.6767 H         1 UNK         0.0800 
    140 H140        6.0399  -21.4672  -49.1260 H         1 UNK         0.0800 
    141 H141        2.3149  -21.3435  -48.6692 H         1 UNK         0.0800 
    142 H142        2.1875  -20.6839  -47.0663 H         1 UNK         0.0800 
    143 H143        2.2928  -23.6915  -47.6485 H         1 UNK         0.0600 
    144 H144        1.7748  -22.1414  -45.1655 H         1 UNK         0.3000 
    145 H145        1.0630  -23.8342  -43.1902 H         1 UNK         0.0600 
    146 H146        2.5659  -25.1966  -41.7198 H         1 UNK         0.0600 
    147 H147        1.8716  -26.1459  -43.0239 H         1 UNK         0.0600 
    148 H148        3.5468  -25.6264  -43.1210 H         1 UNK         0.0600 
    149 H149        2.3149  -22.0919  -42.7123 H         1 UNK         0.3000 
    150 H150        5.6356  -21.4111  -42.2324 H         1 UNK         0.0600 
    151 H151        5.7609  -20.8902  -44.6617 H         1 UNK         0.0600 
    152 H152        5.4511  -19.4299  -43.7346 H         1 UNK         0.0600 
    153 H153        4.1404  -20.2072  -44.6199 H         1 UNK         0.0600 
    154 H154        3.2991  -19.7210  -42.3685 H         1 UNK         0.3000 
    155 H155        2.1335  -20.4323  -39.0716 H         1 UNK         0.0600 
    156 H156        3.8912  -18.7057  -38.7691 H         1 UNK         0.0600 
    157 H157        2.3114  -17.9547  -38.9408 H         1 UNK         0.0600 
    158 H158        3.4453  -17.9431  -40.2891 H         1 UNK         0.0600 
    159 H159        1.2475  -18.6996  -41.2011 H         1 UNK         0.3000 
    160 H160       -0.9744  -21.0598  -42.6967 H         1 UNK         0.0600 
    161 H161       -1.5350  -18.5457  -41.0368 H         1 UNK         0.0600 
    162 H162       -2.2056  -20.1408  -40.7103 H         1 UNK         0.0600 
    163 H163       -2.6284  -19.3017  -42.1936 H         1 UNK         0.0600 
    164 H164       -0.5306  -18.3287  -43.2899 H         1 UNK         0.3000 
    165 H165        2.3127  -18.7811  -45.4585 H         1 UNK         0.0600 
    166 H166        0.7682  -17.5974  -46.9985 H         1 UNK         0.0600 
    167 H167        0.3034  -19.2894  -46.8308 H         1 UNK         0.0600 
    168 H168       -0.6044  -18.0474  -45.9882 H         1 UNK         0.0600 
    169 H169        0.9247  -16.4237  -44.8065 H         1 UNK         0.3000 
    170 H170        2.6763  -15.5981  -41.7910 H         1 UNK         0.0600 
    171 H171        4.1501  -14.8954  -43.6521 H         1 UNK         0.0600 
    172 H172        2.7521  -14.5305  -44.6541 H         1 UNK         0.0600 
    173 H173        3.0798  -13.5699  -43.2117 H         1 UNK         0.0600 
    174 H174        0.5806  -14.4252  -43.4460 H         1 UNK         0.3000 
    175 H175       -2.1026  -15.5872  -41.3815 H         1 UNK         0.0600 
    176 H176       -1.1987  -13.5306  -40.2818 H         1 UNK         0.0600 
    177 H177       -0.9158  -12.7996  -41.8572 H         1 UNK         0.0600 
    178 H178       -2.5597  -13.1557  -41.3266 H         1 UNK         0.0600 
    179 H179       -2.0718  -13.9634  -43.7265 H         1 UNK         0.3000 
    180 H180       -2.2942  -16.5730  -46.1216 H         1 UNK         0.0600 
    181 H181       -4.5907  -16.5532  -45.1375 H         1 UNK         0.0600 
    182 H182       -4.5408  -14.7954  -45.0514 H         1 UNK         0.0600 
    183 H183       -4.4960  -15.6124  -46.6153 H         1 UNK         0.0600 
    184 H184       -2.7347  -13.8933  -46.5753 H         1 UNK         0.3000 
    185 H185       -1.1132  -13.1316  -48.1240 H         1 UNK         0.0600 
    186 H186       -1.8292  -11.6414  -46.3352 H         1 UNK         0.0600 
    187 H187       -0.2454  -11.6538  -45.5839 H         1 UNK         0.0600 
    188 H188       -0.4762  -10.8779  -47.1510 H         1 UNK         0.0600 
    189 H189        0.9663  -13.4432  -48.7617 H         1 UNK         0.3000 
    190 H190        0.8773  -23.4227  -49.4525 H         1 UNK         0.3000 
    191 H191       -1.8409  -23.8389  -48.9067 H         1 UNK         0.0600 
    192 H192       -0.4616  -23.1373  -51.5535 H         1 UNK         0.0600 
    193 H193       -2.0650  -23.8454  -51.3821 H         1 UNK         0.0600 
    194 H194       -0.6525  -24.7581  -50.8802 H         1 UNK         0.0600 
    195 H195       -0.1848  -20.8131  -49.6076 H         1 UNK         0.3000 
    196 H196       -2.3474  -19.2083  -50.4265 H         1 UNK         0.0600 
    197 H197       -0.7893  -17.3243  -49.4673 H         1 UNK         0.0600 
    198 H198       -0.1819  -18.3143  -50.7727 H         1 UNK         0.0600 
    199 H199        0.3472  -18.6240  -49.1292 H         1 UNK         0.0600 
    200 H200       -1.9180  -20.6054  -47.3348 H         1 UNK         0.3000 
    201 H201       -3.3336  -18.7413  -45.6845 H         1 UNK         0.0600 
    202 H202       -3.5257  -20.6810  -44.1717 H         1 UNK         0.0600 
    203 H203       -3.0879  -21.7905  -45.4684 H         1 UNK         0.0600 
    204 H204       -1.9063  -20.6431  -44.8575 H         1 UNK         0.0600 
    205 H205       -4.3631  -21.1009  -48.1111 H         1 UNK         0.3000 
    206 H206       -7.1861  -21.1204  -47.2986 H         1 UNK         0.0600 
    207 H207       -6.0979  -23.1788  -48.1944 H         1 UNK         0.0600 
    208 H208       -7.4248  -22.6526  -49.2167 H         1 UNK         0.0600 
    209 H209       -5.7661  -22.3558  -49.7161 H         1 UNK         0.0600 
    210 H210       -6.9757  -18.6475  -47.4070 H         1 UNK         0.3000 
    211 H211       -7.0487  -17.2813  -49.9205 H         1 UNK         0.0600 
    212 H212       -7.9306  -15.3939  -48.5256 H         1 UNK         0.0600 
    213 H213       -6.5246  -16.1397  -47.7823 H         1 UNK         0.0600 
    214 H214       -8.1386  -16.4882  -47.1627 H         1 UNK         0.0600 
    215 H215       -8.7274  -16.6839  -51.2134 H         1 UNK         0.3000 
    216 H216      -10.6124  -16.7840  -52.3508 H         1 UNK         0.0600 
    217 H217      -12.7608  -16.4559  -51.2054 H         1 UNK         0.0600 
    218 H218      -11.5327  -15.4782  -50.4202 H         1 UNK         0.0600 
    219 H219      -12.0822  -16.9762  -49.6703 H         1 UNK         0.0600 
    220 H220       -9.1915  -19.2092  -52.0705 H         1 UNK         0.3000 
    221 H221      -11.2398  -21.1402  -52.8545 H         1 UNK         0.0600 
    222 H222       -9.1760  -21.7258  -50.6482 H         1 UNK         0.0600 
    223 H223      -10.9096  -21.5677  -50.3848 H         1 UNK         0.0600 
    224 H224      -10.2868  -22.8965  -51.3480 H         1 UNK         0.0600 
    225 H225      -10.0183  -23.1532  -53.6771 H         1 UNK         0.3000 
    226 H226       -8.1488  -22.2933  -55.7191 H         1 UNK         0.0600 
    227 H227       -8.4654  -24.6246  -56.5320 H         1 UNK         0.0600 
    228 H228       -9.3751  -25.0261  -55.0796 H         1 UNK         0.0600 
    229 H229      -10.0069  -23.8433  -56.2249 H         1 UNK         0.0600 
    230 H230       -6.6294  -21.6294  -53.8593 H         1 UNK         0.3000 
    231 H231       -4.9343  -23.5603  -52.5925 H         1 UNK         0.0600 
    232 H232       -5.1171  -21.2127  -51.8065 H         1 UNK         0.0600 
    233 H233       -4.4825  -20.6125  -53.3368 H         1 UNK         0.0600 
    234 H234       -3.4528  -21.5417  -52.2577 H         1 UNK         0.0600 
    235 H235       -2.8902  -24.3283  -53.1623 H         1 UNK         0.3000 
    236 H236       -2.2549  -24.8087  -55.8683 H         1 UNK         0.0600 
    237 H237       -1.5758  -26.2737  -53.9571 H         1 UNK         0.0600 
    238 H238       -0.1944  -25.8206  -54.9413 H         1 UNK         0.0600 
    239 H239       -0.4563  -25.0302  -53.3953 H         1 UNK         0.0600 
    240 H240       -1.5053  -22.0618  -53.8963 H         1 UNK         0.3000 
    241 H241        0.6546  -20.9686  -55.4618 H         1 UNK         0.0600 
    242 H242       -2.7668  -21.2860  -56.2846 H         1 UNK         0.3800 
    243 H243       -2.7164  -20.0796  -57.5432 H         1 UNK         0.3800 
    244 H244        0.0351  -18.8082  -54.2788 H         1 UNK         0.0800 
    245 H245       -1.3148  -19.6223  -53.5503 H         1 UNK         0.0800 
    246 H246        1.9568  -18.3615  -53.1908 H         1 UNK         0.0800 
    247 H247        2.8386  -19.8026  -53.6364 H         1 UNK         0.0800 
@<TRIPOS>BOND
     1    1    2 1    
     2    1  127 1    
     3    1  128 1    
     4    1  129 1    
     5    2    3 2    
     6    2    4 am   BACKBONE|DICT|INTERRES
     7    4    5 1    
     8    4  130 1    
     9    5    6 1    
    10    5   65 1    
    11    5  131 1    
    12    6    7 1    
    13    6  132 1    
    14    6  133 1    
    15    7    8 1    
    16    8    9 1    
    17    8  134 1    
    18    8  135 1    
    19    9   10 ar   
    20    9   14 ar   
    21   10   11 ar   
    22   10  136 1    
    23   11   12 ar   
    24   11  126 1    
    25   12   13 ar   
    26   12  137 1    
    27   13   14 ar   
    28   13   15 1    
    29   14  138 1    
    30   15   16 1    
    31   15  139 1    
    32   15  140 1    
    33   16   17 1    
    34   17   18 1    
    35   17  141 1    
    36   17  142 1    
    37   18   19 1    
    38   18   67 1    
    39   18  143 1    
    40   19   20 am   BACKBONE|DICT|INTERRES
    41   19  144 1    
    42   20   21 2    
    43   20   22 1    
    44   22   23 1    
    45   22   24 1    
    46   22  145 1    
    47   23  146 1    
    48   23  147 1    
    49   23  148 1    
    50   24   25 am   BACKBONE|DICT|INTERRES
    51   24  149 1    
    52   25   26 2    
    53   25   27 1    
    54   27   28 1    
    55   27   29 1    
    56   27  150 1    
    57   28  151 1    
    58   28  152 1    
    59   28  153 1    
    60   29   30 am   BACKBONE|DICT|INTERRES
    61   29  154 1    
    62   30   31 2    
    63   30   32 1    
    64   32   33 1    
    65   32   34 1    
    66   32  155 1    
    67   33  156 1    
    68   33  157 1    
    69   33  158 1    
    70   34   35 am   BACKBONE|DICT|INTERRES
    71   34  159 1    
    72   35   36 2    
    73   35   37 1    
    74   37   38 1    
    75   37   39 1    
    76   37  160 1    
    77   38  161 1    
    78   38  162 1    
    79   38  163 1    
    80   39   40 am   BACKBONE|DICT|INTERRES
    81   39  164 1    
    82   40   41 2    
    83   40   42 1    
    84   42   43 1    
    85   42   44 1    
    86   42  165 1    
    87   43  166 1    
    88   43  167 1    
    89   43  168 1    
    90   44   45 am   BACKBONE|DICT|INTERRES
    91   44  169 1    
    92   45   46 2    
    93   45   47 1    
    94   47   48 1    
    95   47   49 1    
    96   47  170 1    
    97   48  171 1    
    98   48  172 1    
    99   48  173 1    
   100   49   50 am   BACKBONE|DICT|INTERRES
   101   49  174 1    
   102   50   51 2    
   103   50   52 1    
   104   52   53 1    
   105   52   54 1    
   106   52  175 1    
   107   53  176 1    
   108   53  177 1    
   109   53  178 1    
   110   54   55 am   BACKBONE|DICT|INTERRES
   111   54  179 1    
   112   55   56 2    
   113   55   57 1    
   114   57   58 1    
   115   57   59 1    
   116   57  180 1    
   117   58  181 1    
   118   58  182 1    
   119   58  183 1    
   120   59   60 am   BACKBONE|DICT|INTERRES
   121   59  184 1    
   122   60   61 2    
   123   60   62 1    
   124   62   63 1    
   125   62   64 1    
   126   62  185 1    
   127   63  186 1    
   128   63  187 1    
   129   63  188 1    
   130   64   65 am   BACKBONE|DICT|INTERRES
   131   64  189 1    
   132   65   66 2    
   133   67   68 2    
   134   67   69 am   BACKBONE|DICT|INTERRES
   135   69   70 1    
   136   69  190 1    
   137   70   71 1    
   138   70   72 1    
   139   70  191 1    
   140   71  192 1    
   141   71  193 1    
   142   71  194 1    
   143   72   73 2    
   144   72   74 am   BACKBONE|DICT|INTERRES
   145   74   75 1    
   146   74  195 1    
   147   75   76 1    
   148   75   77 1    
   149   75  196 1    
   150   76  197 1    
   151   76  198 1    
   152   76  199 1    
   153   77   78 2    
   154   77   79 am   BACKBONE|DICT|INTERRES
   155   79   80 1    
   156   79  200 1    
   157   80   81 1    
   158   80   82 1    
   159   80  201 1    
   160   81  202 1    
   161   81  203 1    
   162   81  204 1    
   163   82   83 2    
   164   82   84 am   BACKBONE|DICT|INTERRES
   165   84   85 1    
   166   84  205 1    
   167   85   86 1    
   168   85   87 1    
   169   85  206 1    
   170   86  207 1    
   171   86  208 1    
   172   86  209 1    
   173   87   88 2    
   174   87   89 am   BACKBONE|DICT|INTERRES
   175   89   90 1    
   176   89  210 1    
   177   90   91 1    
   178   90   92 1    
   179   90  211 1    
   180   91  212 1    
   181   91  213 1    
   182   91  214 1    
   183   92   93 2    
   184   92   94 am   BACKBONE|DICT|INTERRES
   185   94   95 1    
   186   94  215 1    
   187   95   96 1    
   188   95   97 1    
   189   95  216 1    
   190   96  217 1    
   191   96  218 1    
   192   96  219 1    
   193   97   98 2    
   194   97   99 am   BACKBONE|DICT|INTERRES
   195   99  100 1    
   196   99  220 1    
   197  100  101 1    
   198  100  102 1    
   199  100  221 1    
   200  101  222 1    
   201  101  223 1    
   202  101  224 1    
   203  102  103 2    
   204  102  104 am   BACKBONE|DICT|INTERRES
   205  104  105 1    
   206  104  225 1    
   207  105  106 1    
   208  105  107 1    
   209  105  226 1    
   210  106  227 1    
   211  106  228 1    
   212  106  229 1    
   213  107  108 2    
   214  107  109 am   BACKBONE|DICT|INTERRES
   215  109  110 1    
   216  109  230 1    
   217  110  111 1    
   218  110  112 1    
   219  110  231 1    
   220  111  232 1    
   221  111  233 1    
   222  111  234 1    
   223  112  113 2    
   224  112  114 am   BACKBONE|DICT|INTERRES
   225  114  115 1    
   226  114  235 1    
   227  115  116 1    
   228  115  117 1    
   229  115  236 1    
   230  116  237 1    
   231  116  238 1    
   232  116  239 1    
   233  117  118 2    
   234  117  119 am   BACKBONE|DICT|INTERRES
   235  119  120 1    
   236  119  240 1    
   237  120  121 1    
   238  120  124 1    
   239  120  241 1    
   240  121  122 am   BACKBONE|DICT|INTERRES
   241  121  123 2    
   242  122  242 1    
   243  122  243 1    
   244  124  125 1    
   245  124  244 1    
   246  124  245 1    
   247  125  126 1    
   248  126  246 1    
   249  126  247 1    
@<TRIPOS>SUBSTRUCTURE
     1 UNK         1 GROUP             0       ****    0 ROOT    
