@<TRIPOS>MOLECULE
3R540
247   249    1
SMALL
USER_CHARGES


@<TRIPOS>ATOM
      1 CA          3.3197  -14.6954  -44.9153 C.3       0 UNK        -0.1800 
      2 C           2.1883  -14.1404  -45.7677 C.2       0 UNK         0.5000 
      3 O           1.1040  -13.8785  -45.2490 O.2       0 UNK        -0.5000 
      4 N           2.4372  -13.9502  -47.0707 N.am      1 UNK        -0.5000 
      5 CA          1.4615  -13.4585  -48.0529 C.3       1 UNK         0.1400 
      6 C6          1.9881  -13.5210  -49.5086 C.3       23 UNK        -0.0398 
      7 S7          2.6645  -15.1407  -50.0090 S.3       23 UNK        -0.2404 
      8 C8          1.2421  -16.2409  -49.7409 C.3       23 UNK        -0.0205 
      9 C9          1.4149  -17.5502  -50.4926 C.ar      23 UNK        -0.0193 
     10 C10         0.6995  -17.7816  -51.6694 C.ar      23 UNK        -0.1150 
     11 C11         0.8275  -18.9933  -52.3535 C.ar      23 UNK        -0.0193 
     12 C12         1.6962  -19.9716  -51.8621 C.ar      23 UNK        -0.1150 
     13 C13         2.4376  -19.7444  -50.6973 C.ar      23 UNK        -0.0193 
     14 C14         2.2881  -18.5314  -50.0155 C.ar      23 UNK        -0.1150 
     15 C15         3.4004  -20.8139  -50.1880 C.3       23 UNK        -0.0205 
     16 S16         3.1507  -21.2362  -48.4308 S.3       23 UNK        -0.2404 
     17 C17         1.3705  -21.6242  -48.4033 C.3       23 UNK        -0.0398 
     18 CA          1.0493  -22.9933  -47.7667 C.3       11 UNK         0.1400 
     19 N           1.5316  -23.1190  -46.3889 N.am      11 UNK        -0.5000 
     20 C           1.5361  -24.2586  -45.6828 C.2       10 UNK         0.5000 
     21 O           1.1617  -25.3427  -46.1272 O.2       10 UNK        -0.5000 
     22 CA          1.9710  -24.1546  -44.2112 C.3       10 UNK         0.1400 
     23 CB          3.5003  -24.0695  -44.0972 C.3       10 UNK        -0.1800 
     24 N           1.3645  -23.0050  -43.5409 N.am      10 UNK        -0.5000 
     25 C           0.0478  -22.8519  -43.3386 C.2       9 UNK         0.5000 
     26 O          -0.7946  -23.6989  -43.6359 O.2       9 UNK        -0.5000 
     27 CA         -0.4050  -21.5052  -42.7471 C.3       9 UNK         0.1400 
     28 CB         -0.4177  -21.5639  -41.2129 C.3       9 UNK        -0.1800 
     29 N           0.4149  -20.3710  -43.1774 N.am      9 UNK        -0.5000 
     30 C           0.5623  -19.9456  -44.4396 C.2       8 UNK         0.5000 
     31 O           0.0679  -20.5228  -45.4095 O.2       8 UNK        -0.5000 
     32 CA          1.3907  -18.6574  -44.6278 C.3       8 UNK         0.1400 
     33 CB          1.4478  -18.1882  -46.0934 C.3       8 UNK        -0.1800 
     34 N           0.8521  -17.5820  -43.7932 N.am      8 UNK        -0.5000 
     35 C           1.1507  -17.3900  -42.4990 C.2       7 UNK         0.5000 
     36 O           1.9829  -18.0667  -41.8940 O.2       7 UNK        -0.5000 
     37 CA          0.3627  -16.3101  -41.7309 C.3       7 UNK         0.1400 
     38 CB          1.1535  -14.9984  -41.6900 C.3       7 UNK        -0.1800 
     39 N          -0.9615  -16.0527  -42.2953 N.am      7 UNK        -0.5000 
     40 C          -1.9775  -16.9277  -42.2842 C.2       6 UNK         0.5000 
     41 O          -1.9358  -18.0133  -41.7046 O.2       6 UNK        -0.5000 
     42 CA         -3.2452  -16.5417  -43.0713 C.3       6 UNK         0.1400 
     43 CB         -4.3141  -15.9765  -42.1240 C.3       6 UNK        -0.1800 
     44 N          -3.0148  -15.5756  -44.1476 N.am      6 UNK        -0.5000 
     45 C          -2.2162  -15.7412  -45.2087 C.2       5 UNK         0.5000 
     46 O          -1.5470  -16.7562  -45.3930 O.2       5 UNK        -0.5000 
     47 CA         -2.1059  -14.5806  -46.2174 C.3       5 UNK         0.1400 
     48 CB         -3.0548  -14.7874  -47.4091 C.3       5 UNK        -0.1800 
     49 N          -2.2468  -13.2319  -45.6503 N.am      5 UNK        -0.5000 
     50 C          -3.3132  -12.6577  -45.0741 C.2       4 UNK         0.5000 
     51 O          -4.3995  -13.2235  -44.9435 O.2       4 UNK        -0.5000 
     52 CA         -3.1352  -11.2225  -44.5313 C.3       4 UNK         0.1400 
     53 CB         -4.0026  -10.9590  -43.2825 C.3       4 UNK        -0.1800 
     54 N          -1.7423  -10.8362  -44.2738 N.am      4 UNK        -0.5000 
     55 C          -0.8713  -11.3936  -43.4193 C.2       3 UNK         0.5000 
     56 O          -1.1189  -12.3869  -42.7329 O.2       3 UNK        -0.5000 
     57 CA          0.5153  -10.7202  -43.3591 C.3       3 UNK         0.1400 
     58 CB          1.5040  -11.4318  -42.4205 C.3       3 UNK        -0.1800 
     59 N           1.1162  -10.6299  -44.6898 N.am      3 UNK        -0.5000 
     60 C           0.9012   -9.6526  -45.5797 C.2       2 UNK         0.5000 
     61 O           0.1476   -8.7012  -45.3721 O.2       2 UNK        -0.5000 
     62 CA          1.6200   -9.7728  -46.9363 C.3       2 UNK         0.1400 
     63 CB          2.9404   -8.9882  -46.9145 C.3       2 UNK        -0.1800 
     64 N           1.8950  -11.1599  -47.3173 N.am      2 UNK        -0.5000 
     65 C           0.9654  -12.0342  -47.7290 C.2       1 UNK         0.5000 
     66 O          -0.2317  -11.7659  -47.8314 O.2       1 UNK        -0.5000 
     67 C          -0.4651  -23.2401  -47.8427 C.2       11 UNK         0.5000 
     68 O          -0.9148  -23.9746  -48.7201 O.2       11 UNK        -0.5000 
     69 N          -1.2186  -22.6472  -46.9057 N.am      12 UNK        -0.5000 
     70 CA         -2.6705  -22.7828  -46.8101 C.3       12 UNK         0.1400 
     71 CB         -3.2086  -21.8667  -45.7024 C.3       12 UNK        -0.1800 
     72 C          -3.1394  -24.2338  -46.6100 C.2       12 UNK         0.5000 
     73 O          -4.1902  -24.5965  -47.1390 O.2       12 UNK        -0.5000 
     74 N          -2.3380  -25.0327  -45.8953 N.am      13 UNK        -0.5000 
     75 CA         -2.5242  -26.4698  -45.7406 C.3       13 UNK         0.1400 
     76 CB         -1.7966  -26.9412  -44.4709 C.3       13 UNK        -0.1800 
     77 C          -2.0450  -27.2533  -46.9774 C.2       13 UNK         0.5000 
     78 O          -2.8252  -28.0170  -47.5464 O.2       13 UNK        -0.5000 
     79 N          -0.7687  -27.0809  -47.3528 N.am      14 UNK        -0.5000 
     80 CA         -0.0842  -27.9209  -48.3392 C.3       14 UNK         0.1400 
     81 CB          1.4363  -27.7664  -48.1807 C.3       14 UNK        -0.1800 
     82 C          -0.4963  -27.6497  -49.7951 C.2       14 UNK         0.5000 
     83 O          -0.6940  -28.6014  -50.5518 O.2       14 UNK        -0.5000 
     84 N          -0.6031  -26.3688  -50.1686 N.am      15 UNK        -0.5000 
     85 CA         -0.9628  -25.9325  -51.5203 C.3       15 UNK         0.1400 
     86 CB         -0.1935  -24.6439  -51.8587 C.3       15 UNK        -0.1800 
     87 C          -2.4800  -25.7233  -51.6796 C.2       15 UNK         0.5000 
     88 O          -2.9421  -25.6158  -52.8145 O.2       15 UNK        -0.5000 
     89 N          -3.2061  -25.6933  -50.5511 N.am      16 UNK        -0.5000 
     90 CA         -4.6398  -25.4478  -50.3869 C.3       16 UNK         0.1400 
     91 CB         -5.4987  -26.4247  -51.2167 C.3       16 UNK        -0.1800 
     92 C          -4.9950  -23.9748  -50.6601 C.2       16 UNK         0.5000 
     93 O          -5.1004  -23.5778  -51.8179 O.2       16 UNK        -0.5000 
     94 N          -5.1948  -23.2123  -49.5756 N.am      17 UNK        -0.5000 
     95 CA         -5.5994  -21.8011  -49.5237 C.3       17 UNK         0.1400 
     96 CB         -6.9856  -21.5931  -50.1660 C.3       17 UNK        -0.1800 
     97 C          -4.5383  -20.8452  -50.1086 C.2       17 UNK         0.5000 
     98 O          -4.4851  -20.6288  -51.3221 O.2       17 UNK        -0.5000 
     99 N          -3.7137  -20.2812  -49.2145 N.am      18 UNK        -0.5000 
    100 CA        -2.6788  -19.2971  -49.5283 C.3       18 UNK         0.1400 
    101 CB        -1.8340  -19.0272  -48.2737 C.3       18 UNK        -0.1800 
    102 C         -3.2843  -17.9869  -50.0641 C.2       18 UNK         0.5000 
    103 O         -4.2957  -17.5192  -49.5367 O.2       18 UNK        -0.5000 
    104 N         -2.6447  -17.4380  -51.1044 N.am      19 UNK        -0.5000 
    105 CA        -3.0524  -16.2676  -51.8907 C.3       19 UNK         0.1400 
    106 CB        -2.9972  -14.9846  -51.0369 C.3       19 UNK        -0.1800 
    107 C         -4.4070  -16.4553  -52.6123 C.2       19 UNK         0.5000 
    108 O         -5.1151  -15.4756  -52.8535 O.2       19 UNK        -0.5000 
    109 N         -4.7414  -17.7068  -52.9496 N.am      20 UNK        -0.5000 
    110 CA        -5.9856  -18.0994  -53.5987 C.3       20 UNK         0.1400 
    111 CB        -7.0756  -18.3375  -52.5325 C.3       20 UNK        -0.1800 
    112 C         -5.7120  -19.3017  -54.5170 C.2       20 UNK         0.5000 
    113 O         -5.0441  -19.1366  -55.5392 O.2       20 UNK        -0.5000 
    114 N         -6.2280  -20.4838  -54.1552 N.am      21 UNK        -0.5000 
    115 CA        -6.1504  -21.7200  -54.9405 C.3       21 UNK         0.1400 
    116 CB        -7.2117  -22.7071  -54.4275 C.3       21 UNK        -0.1800 
    117 C         -4.7474  -22.3640  -55.0000 C.2       21 UNK         0.5000 
    118 O         -4.5509  -23.2879  -55.7913 O.2       21 UNK        -0.5000 
    119 N         -3.7998  -21.8528  -54.2038 N.am      22 UNK        -0.5000 
    120 CA        -2.3758  -22.2253  -54.1839 C.3       22 UNK         0.1400 
    121 C         -1.6124  -22.0986  -55.5381 C.2       22 UNK         0.5000 
    122 N         -2.0752  -21.2954  -56.4894 N.am      22 UNK        -0.7600 
    123 O         -0.5806  -22.7381  -55.7227 O.2       22 UNK        -0.5000 
    124 C124       -1.6228  -21.4688  -53.0584 C.3       23 UNK        -0.0398 
    125 S125       -1.6951  -19.6522  -53.2647 S.3       23 UNK        -0.2404 
    126 C126        0.0348  -19.2277  -53.6294 C.3       23 UNK        -0.0205 
    127 H127        3.5659  -13.9949  -44.1175 H         1 UNK         0.0600 
    128 H128        4.2201  -14.8741  -45.5032 H         1 UNK         0.0600 
    129 H129        3.0185  -15.6383  -44.4600 H         1 UNK         0.0600 
    130 H130        3.3430  -14.1963  -47.4445 H         1 UNK         0.3000 
    131 H131        0.5930  -14.1138  -47.9930 H         1 UNK         0.0600 
    132 H132        2.7781  -12.7830  -49.6601 H         1 UNK         0.0800 
    133 H133        1.1934  -13.2583  -50.2095 H         1 UNK         0.0800 
    134 H134        1.1326  -16.4432  -48.6744 H         1 UNK         0.0800 
    135 H135        0.3259  -15.7413  -50.0590 H         1 UNK         0.0800 
    136 H136        0.0428  -17.0157  -52.0563 H         1 UNK         0.1150 
    137 H137        1.8023  -20.9067  -52.3941 H         1 UNK         0.1150 
    138 H138        2.8539  -18.3488  -49.1127 H         1 UNK         0.1150 
    139 H139        3.3107  -21.7270  -50.7785 H         1 UNK         0.0800 
    140 H140        4.4228  -20.4590  -50.3232 H         1 UNK         0.0800 
    141 H141        0.9806  -21.6020  -49.4223 H         1 UNK         0.0800 
    142 H142        0.8666  -20.8147  -47.8753 H         1 UNK         0.0800 
    143 H143        1.5390  -23.7676  -48.3617 H         1 UNK         0.0600 
    144 H144        1.8083  -22.2612  -45.9354 H         1 UNK         0.3000 
    145 H145        1.6383  -25.0601  -43.6992 H         1 UNK         0.0600 
    146 H146        3.8182  -24.0697  -43.0545 H         1 UNK         0.0600 
    147 H147        3.9747  -24.9245  -44.5808 H         1 UNK         0.0600 
    148 H148        3.8926  -23.1670  -44.5679 H         1 UNK         0.0600 
    149 H149        1.9818  -22.2567  -43.2627 H         1 UNK         0.3000 
    150 H150       -1.4247  -21.3185  -43.0873 H         1 UNK         0.0600 
    151 H151       -1.0412  -22.3857  -40.8583 H         1 UNK         0.0600 
    152 H152       -0.8213  -20.6443  -40.7881 H         1 UNK         0.0600 
    153 H153        0.5838  -21.7107  -40.8065 H         1 UNK         0.0600 
    154 H154        0.8578  -19.8276  -42.4467 H         1 UNK         0.3000 
    155 H155        2.4135  -18.8799  -44.3173 H         1 UNK         0.0600 
    156 H156        2.0151  -17.2636  -46.1936 H         1 UNK         0.0600 
    157 H157        1.9356  -18.9339  -46.7206 H         1 UNK         0.0600 
    158 H158        0.4535  -18.0167  -46.5043 H         1 UNK         0.0600 
    159 H159        0.0915  -17.0513  -44.2055 H         1 UNK         0.3000 
    160 H160        0.2317  -16.6623  -40.7057 H         1 UNK         0.0600 
    161 H161        1.3023  -14.6057  -42.6940 H         1 UNK         0.0600 
    162 H162        2.1373  -15.1434  -41.2421 H         1 UNK         0.0600 
    163 H163        0.6343  -14.2393  -41.1045 H         1 UNK         0.0600 
    164 H164       -1.0866  -15.1741  -42.7800 H         1 UNK         0.3000 
    165 H165       -3.6343  -17.4543  -43.5271 H         1 UNK         0.0600 
    166 H166       -5.2475  -15.7827  -42.6528 H         1 UNK         0.0600 
    167 H167       -4.5365  -16.6789  -41.3195 H         1 UNK         0.0600 
    168 H168       -3.9882  -15.0419  -41.6652 H         1 UNK         0.0600 
    169 H169       -3.5608  -14.7201  -44.1185 H         1 UNK         0.3000 
    170 H170       -1.0900  -14.6251  -46.6046 H         1 UNK         0.0600 
    171 H171       -2.8466  -15.7346  -47.9075 H         1 UNK         0.0600 
    172 H172       -4.1008  -14.8045  -47.1025 H         1 UNK         0.0600 
    173 H173       -2.9325  -13.9954  -48.1476 H         1 UNK         0.0600 
    174 H174       -1.3970  -12.6842  -45.6713 H         1 UNK         0.3000 
    175 H175       -3.4886  -10.5606  -45.3229 H         1 UNK         0.0600 
    176 H176       -5.0623  -11.0918  -43.5036 H         1 UNK         0.0600 
    177 H177       -3.7520  -11.6372  -42.4662 H         1 UNK         0.0600 
    178 H178       -3.8755   -9.9383  -42.9218 H         1 UNK         0.0600 
    179 H179       -1.4101  -10.0338  -44.7974 H         1 UNK         0.3000 
    180 H180        0.3588   -9.7149  -42.9626 H         1 UNK         0.0600 
    181 H181        1.7932  -12.4053  -42.8118 H         1 UNK         0.0600 
    182 H182        1.0760  -11.5813  -41.4285 H         1 UNK         0.0600 
    183 H183        2.4134  -10.8442  -42.2948 H         1 UNK         0.0600 
    184 H184        1.6797  -11.4179  -44.9742 H         1 UNK         0.3000 
    185 H185        0.9715   -9.3286  -47.6945 H         1 UNK         0.0600 
    186 H186        2.7687   -7.9419  -46.6582 H         1 UNK         0.0600 
    187 H187        3.6394   -9.3949  -46.1825 H         1 UNK         0.0600 
    188 H188        3.4264   -9.0064  -47.8902 H         1 UNK         0.0600 
    189 H189        2.8537  -11.4693  -47.2477 H         1 UNK         0.3000 
    190 H190       -0.7685  -22.0243  -46.2393 H         1 UNK         0.3000 
    191 H191       -3.0787  -22.4477  -47.7622 H         1 UNK         0.0600 
    192 H192       -2.8796  -22.1977  -44.7180 H         1 UNK         0.0600 
    193 H193       -4.2992  -21.8626  -45.6962 H         1 UNK         0.0600 
    194 H194       -2.8770  -20.8369  -45.8382 H         1 UNK         0.0600 
    195 H195       -1.5245  -24.6262  -45.4483 H         1 UNK         0.3000 
    196 H196       -3.5891  -26.6727  -45.6075 H         1 UNK         0.0600 
    197 H197       -1.9107  -28.0167  -44.3304 H         1 UNK         0.0600 
    198 H198       -2.2005  -26.4520  -43.5843 H         1 UNK         0.0600 
    199 H199       -0.7283  -26.7245  -44.5093 H         1 UNK         0.0600 
    200 H200       -0.1834  -26.4186  -46.8484 H         1 UNK         0.3000 
    201 H201       -0.3320  -28.9615  -48.1186 H         1 UNK         0.0600 
    202 H202        1.7556  -28.0193  -47.1695 H         1 UNK         0.0600 
    203 H203        1.7615  -26.7464  -48.3892 H         1 UNK         0.0600 
    204 H204        1.9701  -28.4268  -48.8651 H         1 UNK         0.0600 
    205 H205       -0.4900  -25.6297  -49.4793 H         1 UNK         0.3000 
    206 H206       -0.6597  -26.6943  -52.2416 H         1 UNK         0.0600 
    207 H207        0.8758  -24.7620  -51.6833 H         1 UNK         0.0600 
    208 H208       -0.3211  -24.3846  -52.9101 H         1 UNK         0.0600 
    209 H209       -0.5394  -23.7949  -51.2697 H         1 UNK         0.0600 
    210 H210       -2.6876  -25.7755  -49.6880 H         1 UNK         0.3000 
    211 H211       -4.8613  -25.6659  -49.3428 H         1 UNK         0.0600 
    212 H212       -5.4007  -26.2561  -52.2892 H         1 UNK         0.0600 
    213 H213       -6.5547  -26.3100  -50.9703 H         1 UNK         0.0600 
    214 H214       -5.2266  -27.4603  -51.0124 H         1 UNK         0.0600 
    215 H215       -5.0458  -23.6537  -48.6729 H         1 UNK         0.3000 
    216 H216       -5.7086  -21.5651  -48.4640 H         1 UNK         0.0600 
    217 H217       -6.9689  -21.7579  -51.2430 H         1 UNK         0.0600 
    218 H218       -7.3400  -20.5761  -49.9967 H         1 UNK         0.0600 
    219 H219       -7.7248  -22.2689  -49.7362 H         1 UNK         0.0600 
    220 H220       -3.8671  -20.4540  -48.2338 H         1 UNK         0.3000 
    221 H221       -2.0277  -19.7322  -50.2887 H         1 UNK         0.0600 
    222 H222       -1.3848  -19.9427  -47.8917 H         1 UNK         0.0600 
    223 H223       -2.4280  -18.5872  -47.4714 H         1 UNK         0.0600 
    224 H224       -1.0202  -18.3355  -48.4946 H         1 UNK         0.0600 
    225 H225       -1.8522  -17.9427  -51.4786 H         1 UNK         0.3000 
    226 H226       -2.3081  -16.1650  -52.6814 H         1 UNK         0.0600 
    227 H227       -2.0433  -14.8927  -50.5181 H         1 UNK         0.0600 
    228 H228       -3.1147  -14.0963  -51.6584 H         1 UNK         0.0600 
    229 H229       -3.7917  -14.9658  -50.2908 H         1 UNK         0.0600 
    230 H230       -4.1019  -18.4602  -52.7317 H         1 UNK         0.3000 
    231 H231       -6.3239  -17.2944  -54.2543 H         1 UNK         0.0600 
    232 H232       -6.7626  -19.0735  -51.7927 H         1 UNK         0.0600 
    233 H233       -8.0070  -18.6818  -52.9837 H         1 UNK         0.0600 
    234 H234       -7.3021  -17.4154  -51.9970 H         1 UNK         0.0600 
    235 H235       -6.7096  -20.5470  -53.2704 H         1 UNK         0.3000 
    236 H236       -6.4118  -21.4696  -55.9708 H         1 UNK         0.0600 
    237 H237       -8.2152  -22.2947  -54.5325 H         1 UNK         0.0600 
    238 H238       -7.1857  -23.6411  -54.9900 H         1 UNK         0.0600 
    239 H239       -7.0615  -22.9542  -53.3778 H         1 UNK         0.0600 
    240 H240       -4.0766  -21.1507  -53.5300 H         1 UNK         0.3000 
    241 H241       -2.3528  -23.2858  -53.9335 H         1 UNK         0.0600 
    242 H242       -1.5797  -21.2179  -57.3631 H         1 UNK         0.3800 
    243 H243       -2.9097  -20.7507  -56.3315 H         1 UNK         0.3800 
    244 H244       -0.5849  -21.7985  -52.9950 H         1 UNK         0.0800 
    245 H245       -2.0665  -21.7179  -52.0935 H         1 UNK         0.0800 
    246 H246        0.4935  -20.0050  -54.2428 H         1 UNK         0.0800 
    247 H247        0.0508  -18.3196  -54.2337 H         1 UNK         0.0800 
@<TRIPOS>BOND
     1    1    2 1    
     2    1  127 1    
     3    1  128 1    
     4    1  129 1    
     5    2    3 2    
     6    2    4 am   BACKBONE|DICT|INTERRES
     7    4    5 1    
     8    4  130 1    
     9    5    6 1    
    10    5   65 1    
    11    5  131 1    
    12    6    7 1    
    13    6  132 1    
    14    6  133 1    
    15    7    8 1    
    16    8    9 1    
    17    8  134 1    
    18    8  135 1    
    19    9   10 ar   
    20    9   14 ar   
    21   10   11 ar   
    22   10  136 1    
    23   11   12 ar   
    24   11  126 1    
    25   12   13 ar   
    26   12  137 1    
    27   13   14 ar   
    28   13   15 1    
    29   14  138 1    
    30   15   16 1    
    31   15  139 1    
    32   15  140 1    
    33   16   17 1    
    34   17   18 1    
    35   17  141 1    
    36   17  142 1    
    37   18   19 1    
    38   18   67 1    
    39   18  143 1    
    40   19   20 am   BACKBONE|DICT|INTERRES
    41   19  144 1    
    42   20   21 2    
    43   20   22 1    
    44   22   23 1    
    45   22   24 1    
    46   22  145 1    
    47   23  146 1    
    48   23  147 1    
    49   23  148 1    
    50   24   25 am   BACKBONE|DICT|INTERRES
    51   24  149 1    
    52   25   26 2    
    53   25   27 1    
    54   27   28 1    
    55   27   29 1    
    56   27  150 1    
    57   28  151 1    
    58   28  152 1    
    59   28  153 1    
    60   29   30 am   BACKBONE|DICT|INTERRES
    61   29  154 1    
    62   30   31 2    
    63   30   32 1    
    64   32   33 1    
    65   32   34 1    
    66   32  155 1    
    67   33  156 1    
    68   33  157 1    
    69   33  158 1    
    70   34   35 am   BACKBONE|DICT|INTERRES
    71   34  159 1    
    72   35   36 2    
    73   35   37 1    
    74   37   38 1    
    75   37   39 1    
    76   37  160 1    
    77   38  161 1    
    78   38  162 1    
    79   38  163 1    
    80   39   40 am   BACKBONE|DICT|INTERRES
    81   39  164 1    
    82   40   41 2    
    83   40   42 1    
    84   42   43 1    
    85   42   44 1    
    86   42  165 1    
    87   43  166 1    
    88   43  167 1    
    89   43  168 1    
    90   44   45 am   BACKBONE|DICT|INTERRES
    91   44  169 1    
    92   45   46 2    
    93   45   47 1    
    94   47   48 1    
    95   47   49 1    
    96   47  170 1    
    97   48  171 1    
    98   48  172 1    
    99   48  173 1    
   100   49   50 am   BACKBONE|DICT|INTERRES
   101   49  174 1    
   102   50   51 2    
   103   50   52 1    
   104   52   53 1    
   105   52   54 1    
   106   52  175 1    
   107   53  176 1    
   108   53  177 1    
   109   53  178 1    
   110   54   55 am   BACKBONE|DICT|INTERRES
   111   54  179 1    
   112   55   56 2    
   113   55   57 1    
   114   57   58 1    
   115   57   59 1    
   116   57  180 1    
   117   58  181 1    
   118   58  182 1    
   119   58  183 1    
   120   59   60 am   BACKBONE|DICT|INTERRES
   121   59  184 1    
   122   60   61 2    
   123   60   62 1    
   124   62   63 1    
   125   62   64 1    
   126   62  185 1    
   127   63  186 1    
   128   63  187 1    
   129   63  188 1    
   130   64   65 am   BACKBONE|DICT|INTERRES
   131   64  189 1    
   132   65   66 2    
   133   67   68 2    
   134   67   69 am   BACKBONE|DICT|INTERRES
   135   69   70 1    
   136   69  190 1    
   137   70   71 1    
   138   70   72 1    
   139   70  191 1    
   140   71  192 1    
   141   71  193 1    
   142   71  194 1    
   143   72   73 2    
   144   72   74 am   BACKBONE|DICT|INTERRES
   145   74   75 1    
   146   74  195 1    
   147   75   76 1    
   148   75   77 1    
   149   75  196 1    
   150   76  197 1    
   151   76  198 1    
   152   76  199 1    
   153   77   78 2    
   154   77   79 am   BACKBONE|DICT|INTERRES
   155   79   80 1    
   156   79  200 1    
   157   80   81 1    
   158   80   82 1    
   159   80  201 1    
   160   81  202 1    
   161   81  203 1    
   162   81  204 1    
   163   82   83 2    
   164   82   84 am   BACKBONE|DICT|INTERRES
   165   84   85 1    
   166   84  205 1    
   167   85   86 1    
   168   85   87 1    
   169   85  206 1    
   170   86  207 1    
   171   86  208 1    
   172   86  209 1    
   173   87   88 2    
   174   87   89 am   BACKBONE|DICT|INTERRES
   175   89   90 1    
   176   89  210 1    
   177   90   91 1    
   178   90   92 1    
   179   90  211 1    
   180   91  212 1    
   181   91  213 1    
   182   91  214 1    
   183   92   93 2    
   184   92   94 am   BACKBONE|DICT|INTERRES
   185   94   95 1    
   186   94  215 1    
   187   95   96 1    
   188   95   97 1    
   189   95  216 1    
   190   96  217 1    
   191   96  218 1    
   192   96  219 1    
   193   97   98 2    
   194   97   99 am   BACKBONE|DICT|INTERRES
   195   99  100 1    
   196   99  220 1    
   197  100  101 1    
   198  100  102 1    
   199  100  221 1    
   200  101  222 1    
   201  101  223 1    
   202  101  224 1    
   203  102  103 2    
   204  102  104 am   BACKBONE|DICT|INTERRES
   205  104  105 1    
   206  104  225 1    
   207  105  106 1    
   208  105  107 1    
   209  105  226 1    
   210  106  227 1    
   211  106  228 1    
   212  106  229 1    
   213  107  108 2    
   214  107  109 am   BACKBONE|DICT|INTERRES
   215  109  110 1    
   216  109  230 1    
   217  110  111 1    
   218  110  112 1    
   219  110  231 1    
   220  111  232 1    
   221  111  233 1    
   222  111  234 1    
   223  112  113 2    
   224  112  114 am   BACKBONE|DICT|INTERRES
   225  114  115 1    
   226  114  235 1    
   227  115  116 1    
   228  115  117 1    
   229  115  236 1    
   230  116  237 1    
   231  116  238 1    
   232  116  239 1    
   233  117  118 2    
   234  117  119 am   BACKBONE|DICT|INTERRES
   235  119  120 1    
   236  119  240 1    
   237  120  121 1    
   238  120  124 1    
   239  120  241 1    
   240  121  122 am   BACKBONE|DICT|INTERRES
   241  121  123 2    
   242  122  242 1    
   243  122  243 1    
   244  124  125 1    
   245  124  244 1    
   246  124  245 1    
   247  125  126 1    
   248  126  246 1    
   249  126  247 1    
@<TRIPOS>SUBSTRUCTURE
     1 UNK         1 GROUP             0       ****    0 ROOT    
