@<TRIPOS>MOLECULE
3R540
247   249    1
SMALL
USER_CHARGES


@<TRIPOS>ATOM
      1 CA          0.7889  -12.2568  -51.0507 C.3       0 UNK        -0.1800 
      2 C           1.5859  -11.6405  -49.9102 C.2       0 UNK         0.5000 
      3 O           1.6363  -10.4168  -49.7807 O.2       0 UNK        -0.5000 
      4 N           2.2049  -12.4832  -49.0758 N.am      1 UNK        -0.5000 
      5 CA          3.0139  -12.1213  -47.9066 C.3       1 UNK         0.1400 
      6 C6          4.0485  -13.2290  -47.5540 C.3       23 UNK        -0.0398 
      7 S7          3.3466  -14.9165  -47.4452 S.3       23 UNK        -0.2404 
      8 C8          3.8593  -15.5944  -49.0539 C.3       23 UNK        -0.0205 
      9 C9          2.9815  -16.7607  -49.4751 C.ar      23 UNK        -0.0193 
     10 C10         1.6742  -16.5235  -49.9104 C.ar      23 UNK        -0.1150 
     11 C11         0.8565  -17.5794  -50.3308 C.ar      23 UNK        -0.0193 
     12 C12         1.3812  -18.8732  -50.3370 C.ar      23 UNK        -0.1150 
     13 C13         2.6742  -19.1321  -49.8754 C.ar      23 UNK        -0.0193 
     14 C14         3.4724  -18.0689  -49.4452 C.ar      23 UNK        -0.1150 
     15 C15         3.2026  -20.5601  -49.8434 C.3       23 UNK        -0.0205 
     16 S16         2.6948  -21.4478  -48.3332 S.3       23 UNK        -0.2404 
     17 C17         0.9058  -21.6428  -48.6253 C.3       23 UNK        -0.0398 
     18 CA          0.2419  -22.6930  -47.7083 C.3       11 UNK         0.1400 
     19 N           0.2137  -22.2824  -46.3005 N.am      11 UNK        -0.5000 
     20 C          -0.2057  -23.0604  -45.2921 C.2       10 UNK         0.5000 
     21 O          -0.5524  -24.2331  -45.4317 O.2       10 UNK        -0.5000 
     22 CA         -0.3139  -22.4091  -43.9026 C.3       10 UNK         0.1400 
     23 CB          1.0563  -22.3543  -43.2112 C.3       10 UNK        -0.1800 
     24 N          -0.9112  -21.0733  -43.9523 N.am      10 UNK        -0.5000 
     25 C          -2.1676  -20.8234  -44.3509 C.2       9 UNK         0.5000 
     26 O          -2.9655  -21.7013  -44.6754 O.2       9 UNK        -0.5000 
     27 CA         -2.6004  -19.3496  -44.4445 C.3       9 UNK         0.1400 
     28 CB         -2.9908  -18.8064  -43.0626 C.3       9 UNK        -0.1800 
     29 N          -1.5748  -18.4944  -45.0383 N.am      9 UNK        -0.5000 
     30 C          -1.1078  -18.6131  -46.2896 C.2       8 UNK         0.5000 
     31 O          -1.5269  -19.4350  -47.1052 O.2       8 UNK        -0.5000 
     32 CA          0.0673  -17.6946  -46.6688 C.3       8 UNK         0.1400 
     33 CB         -0.4278  -16.2842  -47.0270 C.3       8 UNK        -0.1800 
     34 N           1.0691  -17.6112  -45.6057 N.am      8 UNK        -0.5000 
     35 C           1.7854  -18.6523  -45.1581 C.2       7 UNK         0.5000 
     36 O           1.6906  -19.7940  -45.6062 O.2       7 UNK        -0.5000 
     37 CA          2.7147  -18.3822  -43.9636 C.3       7 UNK         0.1400 
     38 CB          3.9905  -17.6551  -44.4153 C.3       7 UNK        -0.1800 
     39 N           2.0412  -17.6082  -42.9195 N.am      7 UNK        -0.5000 
     40 C           1.0425  -18.0834  -42.1584 C.2       6 UNK         0.5000 
     41 O           0.6296  -19.2401  -42.2257 O.2       6 UNK        -0.5000 
     42 CA          0.3550  -17.1008  -41.1878 C.3       6 UNK         0.1400 
     43 CB          1.0603  -17.1106  -39.8238 C.3       6 UNK        -0.1800 
     44 N           0.3040  -15.7289  -41.6920 N.am      6 UNK        -0.5000 
     45 C          -0.2861  -15.3510  -42.8337 C.2       5 UNK         0.5000 
     46 O          -0.9640  -16.1076  -43.5285 O.2       5 UNK        -0.5000 
     47 CA         -0.0454  -13.9056  -43.3116 C.3       5 UNK         0.1400 
     48 CB         -1.2854  -13.0423  -43.0369 C.3       5 UNK        -0.1800 
     49 N           1.1370  -13.2349  -42.7548 N.am      5 UNK        -0.5000 
     50 C           2.4053  -13.6727  -42.8135 C.2       4 UNK         0.5000 
     51 O           2.7266  -14.7930  -43.2129 O.2       4 UNK        -0.5000 
     52 CA          3.4820  -12.6663  -42.3767 C.3       4 UNK         0.1400 
     53 CB          4.9147  -13.1437  -42.6792 C.3       4 UNK        -0.1800 
     54 N           3.2378  -11.3991  -43.0589 N.am      4 UNK        -0.5000 
     55 C           3.3639  -10.1796  -42.5215 C.2       3 UNK         0.5000 
     56 O           3.7290   -9.9833  -41.3618 O.2       3 UNK        -0.5000 
     57 CA          3.0322   -8.9676  -43.4204 C.3       3 UNK         0.1400 
     58 CB          4.3241   -8.2758  -43.8829 C.3       3 UNK        -0.1800 
     59 N           2.2359   -9.3078  -44.6021 N.am      3 UNK        -0.5000 
     60 C           0.9496   -9.6834  -44.5840 C.2       2 UNK         0.5000 
     61 O           0.2634   -9.7081  -43.5622 O.2       2 UNK        -0.5000 
     62 CA          0.3358  -10.1454  -45.9231 C.3       2 UNK         0.1400 
     63 CB         -0.4604   -9.0037  -46.5721 C.3       2 UNK        -0.1800 
     64 N           1.3031  -10.6643  -46.8989 N.am      2 UNK        -0.5000 
     65 C           2.1275  -11.7038  -46.7107 C.2       1 UNK         0.5000 
     66 O           2.2021  -12.3079  -45.6433 O.2       1 UNK        -0.5000 
     67 C          -1.1691  -23.0332  -48.2309 C.2       11 UNK         0.5000 
     68 O          -1.3428  -24.0831  -48.8485 O.2       11 UNK        -0.5000 
     69 N          -2.1531  -22.1656  -47.9505 N.am      12 UNK        -0.5000 
     70 CA         -3.5574  -22.3640  -48.3158 C.3       12 UNK         0.1400 
     71 CB         -4.3630  -21.0982  -47.9917 C.3       12 UNK        -0.1800 
     72 C          -4.1819  -23.6043  -47.6529 C.2       12 UNK         0.5000 
     73 O          -4.8994  -24.3472  -48.3230 O.2       12 UNK        -0.5000 
     74 N          -3.8691  -23.8279  -46.3689 N.am      13 UNK        -0.5000 
     75 CA         -4.2786  -25.0046  -45.6037 C.3       13 UNK         0.1400 
     76 CB         -3.9368  -24.8067  -44.1195 C.3       13 UNK        -0.1800 
     77 C          -3.6559  -26.3042  -46.1423 C.2       13 UNK         0.5000 
     78 O          -4.3744  -27.2894  -46.3104 O.2       13 UNK        -0.5000 
     79 N          -2.3500  -26.2761  -46.4477 N.am      14 UNK        -0.5000 
     80 CA         -1.6104  -27.3905  -47.0489 C.3       14 UNK         0.1400 
     81 CB         -0.1110  -27.0583  -47.0768 C.3       14 UNK        -0.1800 
     82 C          -2.1143  -27.7528  -48.4590 C.2       14 UNK         0.5000 
     83 O          -2.1854  -28.9344  -48.7978 O.2       14 UNK        -0.5000 
     84 N          -2.4954  -26.7308  -49.2353 N.am      15 UNK        -0.5000 
     85 CA         -3.1245  -26.8562  -50.5497 C.3       15 UNK         0.1400 
     86 CB         -2.9378  -25.5328  -51.3070 C.3       15 UNK        -0.1800 
     87 C          -4.6212  -27.2268  -50.4890 C.2       15 UNK         0.5000 
     88 O          -5.2256  -27.4244  -51.5433 O.2       15 UNK        -0.5000 
     89 N          -5.2101  -27.2681  -49.2829 N.am      16 UNK        -0.5000 
     90 CA         -6.6270  -27.5189  -48.9869 C.3       16 UNK         0.1400 
     91 CB         -6.9788  -28.9933  -49.2718 C.3       16 UNK        -0.1800 
     92 C          -7.5807  -26.5285  -49.6928 C.2       16 UNK         0.5000 
     93 O          -8.6908  -26.9027  -50.0743 O.2       16 UNK        -0.5000 
     94 N          -7.1017  -25.2902  -49.8863 N.am      17 UNK        -0.5000 
     95 CA         -7.7110  -24.1832  -50.6310 C.3       17 UNK         0.1400 
     96 CB         -9.0015  -23.7047  -49.9350 C.3       17 UNK        -0.1800 
     97 C          -7.9235  -24.4498  -52.1410 C.2       17 UNK         0.5000 
     98 O          -8.5837  -23.6469  -52.8024 O.2       17 UNK        -0.5000 
     99 N          -7.3543  -25.5391  -52.6799 N.am      18 UNK        -0.5000 
    100 CA        -7.4234  -25.8964  -54.1011 C.3       18 UNK         0.1400 
    101 CB        -7.2977  -27.4216  -54.2405 C.3       18 UNK        -0.1800 
    102 C         -6.3455  -25.1836  -54.9419 C.2       18 UNK         0.5000 
    103 O         -6.4354  -25.1782  -56.1704 O.2       18 UNK        -0.5000 
    104 N         -5.3537  -24.5946  -54.2686 N.am      19 UNK        -0.5000 
    105 CA        -4.2698  -23.7935  -54.8197 C.3       19 UNK         0.1400 
    106 CB        -3.1359  -24.7117  -55.3190 C.3       19 UNK        -0.1800 
    107 C         -3.8090  -22.8080  -53.7309 C.2       19 UNK         0.5000 
    108 O         -4.4487  -22.7217  -52.6779 O.2       19 UNK        -0.5000 
    109 N         -2.7146  -22.0830  -54.0054 N.am      20 UNK        -0.5000 
    110 CA        -2.1078  -21.0548  -53.1484 C.3       20 UNK         0.1400 
    111 CB        -1.5681  -21.6639  -51.8362 C.3       20 UNK        -0.1800 
    112 C         -3.0330  -19.8379  -52.9284 C.2       20 UNK         0.5000 
    113 O         -3.0712  -19.2646  -51.8393 O.2       20 UNK        -0.5000 
    114 N         -3.7523  -19.4488  -53.9884 N.am      21 UNK        -0.5000 
    115 CA        -4.6268  -18.2790  -54.0335 C.3       21 UNK         0.1400 
    116 CB        -5.7868  -18.5698  -55.0031 C.3       21 UNK        -0.1800 
    117 C         -3.8179  -17.0267  -54.4271 C.2       21 UNK         0.5000 
    118 O         -3.9899  -16.4954  -55.5258 O.2       21 UNK        -0.5000 
    119 N         -2.9172  -16.6012  -53.5334 N.am      22 UNK        -0.5000 
    120 CA        -2.0461  -15.4233  -53.7037 C.3       22 UNK         0.1400 
    121 C         -2.7573  -14.0419  -53.5707 C.2       22 UNK         0.5000 
    122 N         -4.0021  -13.9712  -53.1143 N.am      22 UNK        -0.7600 
    123 O         -2.1714  -13.0153  -53.9034 O.2       22 UNK        -0.5000 
    124 C124       -0.7784  -15.5080  -52.8119 C.3       23 UNK        -0.0398 
    125 S125       -1.1545  -15.6845  -51.0318 S.3       23 UNK        -0.2404 
    126 C126       -0.6107  -17.3990  -50.7192 C.3       23 UNK        -0.0205 
    127 H127       -0.2791  -12.1126  -50.8867 H         1 UNK         0.0600 
    128 H128        1.0568  -11.7863  -51.9966 H         1 UNK         0.0600 
    129 H129        0.9793  -13.3261  -51.1403 H         1 UNK         0.0600 
    130 H130        2.0852  -13.4772  -49.2028 H         1 UNK         0.3000 
    131 H131        3.5928  -11.2321  -48.1654 H         1 UNK         0.0600 
    132 H132        4.8422  -13.2268  -48.3020 H         1 UNK         0.0800 
    133 H133        4.5526  -13.0043  -46.6123 H         1 UNK         0.0800 
    134 H134        3.8053  -14.8226  -49.8230 H         1 UNK         0.0800 
    135 H135        4.9062  -15.8961  -48.9960 H         1 UNK         0.0800 
    136 H136        1.2971  -15.5128  -49.8941 H         1 UNK         0.1150 
    137 H137        0.7641  -19.6923  -50.6721 H         1 UNK         0.1150 
    138 H138        4.4764  -18.2596  -49.0930 H         1 UNK         0.1150 
    139 H139        2.8641  -21.1065  -50.7250 H         1 UNK         0.0800 
    140 H140        4.2924  -20.5534  -49.8935 H         1 UNK         0.0800 
    141 H141        0.7736  -21.9202  -49.6729 H         1 UNK         0.0800 
    142 H142        0.4229  -20.6744  -48.4917 H         1 UNK         0.0800 
    143 H143        0.8309  -23.6109  -47.7657 H         1 UNK         0.0600 
    144 H144        0.5372  -21.3413  -46.0940 H         1 UNK         0.3000 
    145 H145       -0.9678  -23.0387  -43.2957 H         1 UNK         0.0600 
    146 H146        0.9661  -21.9890  -42.1882 H         1 UNK         0.0600 
    147 H147        1.5085  -23.3456  -43.1627 H         1 UNK         0.0600 
    148 H148        1.7516  -21.7022  -43.7392 H         1 UNK         0.0600 
    149 H149       -0.3233  -20.3025  -43.6524 H         1 UNK         0.3000 
    150 H150       -3.4810  -19.3019  -45.0882 H         1 UNK         0.0600 
    151 H151       -3.7944  -19.3992  -42.6238 H         1 UNK         0.0600 
    152 H152       -3.3429  -17.7766  -43.1275 H         1 UNK         0.0600 
    153 H153       -2.1502  -18.8299  -42.3696 H         1 UNK         0.0600 
    154 H154       -1.2041  -17.7517  -44.4510 H         1 UNK         0.3000 
    155 H155        0.5544  -18.1235  -47.5458 H         1 UNK         0.0600 
    156 H156        0.3939  -15.6465  -47.3509 H         1 UNK         0.0600 
    157 H157       -0.9158  -15.7967  -46.1834 H         1 UNK         0.0600 
    158 H158       -1.1492  -16.3216  -47.8436 H         1 UNK         0.0600 
    159 H159        1.1928  -16.7132  -45.1621 H         1 UNK         0.3000 
    160 H160        3.0066  -19.3453  -43.5396 H         1 UNK         0.0600 
    161 H161        3.7683  -16.6821  -44.8548 H         1 UNK         0.0600 
    162 H162        4.5245  -18.2378  -45.1670 H         1 UNK         0.0600 
    163 H163        4.6715  -17.4961  -43.5793 H         1 UNK         0.0600 
    164 H164        2.2964  -16.6262  -42.8496 H         1 UNK         0.3000 
    165 H165       -0.6725  -17.4394  -41.0441 H         1 UNK         0.0600 
    166 H166        2.0875  -16.7513  -39.8996 H         1 UNK         0.0600 
    167 H167        0.5360  -16.4825  -39.1034 H         1 UNK         0.0600 
    168 H168        1.0946  -18.1192  -39.4098 H         1 UNK         0.0600 
    169 H169        0.8485  -15.0413  -41.1934 H         1 UNK         0.3000 
    170 H170        0.1006  -13.9543  -44.3927 H         1 UNK         0.0600 
    171 H171       -2.1831  -13.4994  -43.4556 H         1 UNK         0.0600 
    172 H172       -1.4522  -12.9093  -41.9674 H         1 UNK         0.0600 
    173 H173       -1.1885  -12.0550  -43.4874 H         1 UNK         0.0600 
    174 H174        0.9860  -12.2949  -42.4175 H         1 UNK         0.3000 
    175 H175        3.3761  -12.5414  -41.2973 H         1 UNK         0.0600 
    176 H176        5.1320  -14.0818  -42.1672 H         1 UNK         0.0600 
    177 H177        5.6523  -12.4134  -42.3465 H         1 UNK         0.0600 
    178 H178        5.0630  -13.3081  -43.7474 H         1 UNK         0.0600 
    179 H179        2.8891  -11.4927  -44.0096 H         1 UNK         0.3000 
    180 H180        2.4615   -8.2594  -42.8162 H         1 UNK         0.0600 
    181 H181        4.9334   -8.9349  -44.5025 H         1 UNK         0.0600 
    182 H182        4.9326   -7.9722  -43.0299 H         1 UNK         0.0600 
    183 H183        4.1062   -7.3769  -44.4600 H         1 UNK         0.0600 
    184 H184        2.7194   -9.3133  -45.4879 H         1 UNK         0.3000 
    185 H185       -0.3574  -10.9570  -45.6934 H         1 UNK         0.0600 
    186 H186       -0.9824   -9.3452  -47.4662 H         1 UNK         0.0600 
    187 H187       -1.2135   -8.6119  -45.8871 H         1 UNK         0.0600 
    188 H188        0.1881   -8.1746  -46.8578 H         1 UNK         0.0600 
    189 H189        1.2949  -10.2412  -47.8220 H         1 UNK         0.3000 
    190 H190       -1.9275  -21.2999  -47.4675 H         1 UNK         0.3000 
    191 H191       -3.6046  -22.5207  -49.3940 H         1 UNK         0.0600 
    192 H192       -3.9731  -20.2363  -48.5341 H         1 UNK         0.0600 
    193 H193       -5.4088  -21.2172  -48.2777 H         1 UNK         0.0600 
    194 H194       -4.3363  -20.8643  -46.9274 H         1 UNK         0.0600 
    195 H195       -3.3229  -23.1300  -45.8702 H         1 UNK         0.3000 
    196 H196       -5.3633  -25.0960  -45.6907 H         1 UNK         0.0600 
    197 H197       -4.2468  -25.6692  -43.5282 H         1 UNK         0.0600 
    198 H198       -4.4459  -23.9331  -43.7120 H         1 UNK         0.0600 
    199 H199       -2.8661  -24.6701  -43.9663 H         1 UNK         0.0600 
    200 H200       -1.8145  -25.4361  -46.2430 H         1 UNK         0.3000 
    201 H201       -1.7527  -28.2660  -46.4122 H         1 UNK         0.0600 
    202 H202        0.2724  -26.8848  -46.0712 H         1 UNK         0.0600 
    203 H203        0.0925  -26.1664  -47.6702 H         1 UNK         0.0600 
    204 H204        0.4641  -27.8789  -47.5073 H         1 UNK         0.0600 
    205 H205       -2.3306  -25.7837  -48.9057 H         1 UNK         0.3000 
    206 H206       -2.6167  -27.6446  -51.1087 H         1 UNK         0.0600 
    207 H207       -1.8825  -25.2853  -51.4227 H         1 UNK         0.0600 
    208 H208       -3.3689  -25.5929  -52.3051 H         1 UNK         0.0600 
    209 H209       -3.4214  -24.7023  -50.7912 H         1 UNK         0.0600 
    210 H210       -4.6365  -27.0660  -48.4736 H         1 UNK         0.3000 
    211 H211       -6.7503  -27.3478  -47.9168 H         1 UNK         0.0600 
    212 H212       -6.9308  -29.2216  -50.3371 H         1 UNK         0.0600 
    213 H213       -7.9874  -29.2292  -48.9310 H         1 UNK         0.0600 
    214 H214       -6.2968  -29.6672  -48.7532 H         1 UNK         0.0600 
    215 H215       -6.1949  -25.0777  -49.4742 H         1 UNK         0.3000 
    216 H216       -6.9894  -23.3666  -50.5774 H         1 UNK         0.0600 
    217 H217       -8.8256  -23.4969  -48.8795 H         1 UNK         0.0600 
    218 H218       -9.7980  -24.4459  -50.0039 H         1 UNK         0.0600 
    219 H219       -9.3733  -22.7844  -50.3867 H         1 UNK         0.0600 
    220 H220       -6.8077  -26.1573  -52.0897 H         1 UNK         0.3000 
    221 H221       -8.3980  -25.6032  -54.4967 H         1 UNK         0.0600 
    222 H222       -6.3135  -27.7757  -53.9328 H         1 UNK         0.0600 
    223 H223       -8.0445  -27.9372  -53.6365 H         1 UNK         0.0600 
    224 H224       -7.4457  -27.7311  -55.2758 H         1 UNK         0.0600 
    225 H225       -5.4031  -24.5755  -53.2581 H         1 UNK         0.3000 
    226 H226       -4.6527  -23.2034  -55.6547 H         1 UNK         0.0600 
    227 H227       -3.5075  -25.4435  -56.0364 H         1 UNK         0.0600 
    228 H228       -2.3559  -24.1422  -55.8246 H         1 UNK         0.0600 
    229 H229       -2.6659  -25.2585  -54.5018 H         1 UNK         0.0600 
    230 H230       -2.2570  -22.2291  -54.8944 H         1 UNK         0.3000 
    231 H231       -1.2477  -20.6692  -53.6974 H         1 UNK         0.0600 
    232 H232       -1.0809  -20.9088  -51.2211 H         1 UNK         0.0600 
    233 H233       -0.8353  -22.4455  -52.0356 H         1 UNK         0.0600 
    234 H234       -2.3620  -22.1011  -51.2346 H         1 UNK         0.0600 
    235 H235       -3.6424  -19.9566  -54.8538 H         1 UNK         0.3000 
    236 H236       -5.0579  -18.1003  -53.0460 H         1 UNK         0.0600 
    237 H237       -6.4699  -17.7214  -55.0603 H         1 UNK         0.0600 
    238 H238       -5.4303  -18.7749  -56.0133 H         1 UNK         0.0600 
    239 H239       -6.3675  -19.4313  -54.6726 H         1 UNK         0.0600 
    240 H240       -2.8322  -17.0967  -52.6550 H         1 UNK         0.3000 
    241 H241       -1.6905  -15.4490  -54.7356 H         1 UNK         0.0600 
    242 H242       -4.4923  -14.8033  -52.8298 H         1 UNK         0.3800 
    243 H243       -4.4527  -13.0727  -53.0395 H         1 UNK         0.3800 
    244 H244       -0.1604  -16.3455  -53.1375 H         1 UNK         0.0800 
    245 H245       -0.1520  -14.6251  -52.9478 H         1 UNK         0.0800 
    246 H246       -1.2248  -17.8076  -49.9152 H         1 UNK         0.0800 
    247 H247       -0.8226  -18.0052  -51.5995 H         1 UNK         0.0800 
@<TRIPOS>BOND
     1    1    2 1    
     2    1  127 1    
     3    1  128 1    
     4    1  129 1    
     5    2    3 2    
     6    2    4 am   BACKBONE|DICT|INTERRES
     7    4    5 1    
     8    4  130 1    
     9    5    6 1    
    10    5   65 1    
    11    5  131 1    
    12    6    7 1    
    13    6  132 1    
    14    6  133 1    
    15    7    8 1    
    16    8    9 1    
    17    8  134 1    
    18    8  135 1    
    19    9   10 ar   
    20    9   14 ar   
    21   10   11 ar   
    22   10  136 1    
    23   11   12 ar   
    24   11  126 1    
    25   12   13 ar   
    26   12  137 1    
    27   13   14 ar   
    28   13   15 1    
    29   14  138 1    
    30   15   16 1    
    31   15  139 1    
    32   15  140 1    
    33   16   17 1    
    34   17   18 1    
    35   17  141 1    
    36   17  142 1    
    37   18   19 1    
    38   18   67 1    
    39   18  143 1    
    40   19   20 am   BACKBONE|DICT|INTERRES
    41   19  144 1    
    42   20   21 2    
    43   20   22 1    
    44   22   23 1    
    45   22   24 1    
    46   22  145 1    
    47   23  146 1    
    48   23  147 1    
    49   23  148 1    
    50   24   25 am   BACKBONE|DICT|INTERRES
    51   24  149 1    
    52   25   26 2    
    53   25   27 1    
    54   27   28 1    
    55   27   29 1    
    56   27  150 1    
    57   28  151 1    
    58   28  152 1    
    59   28  153 1    
    60   29   30 am   BACKBONE|DICT|INTERRES
    61   29  154 1    
    62   30   31 2    
    63   30   32 1    
    64   32   33 1    
    65   32   34 1    
    66   32  155 1    
    67   33  156 1    
    68   33  157 1    
    69   33  158 1    
    70   34   35 am   BACKBONE|DICT|INTERRES
    71   34  159 1    
    72   35   36 2    
    73   35   37 1    
    74   37   38 1    
    75   37   39 1    
    76   37  160 1    
    77   38  161 1    
    78   38  162 1    
    79   38  163 1    
    80   39   40 am   BACKBONE|DICT|INTERRES
    81   39  164 1    
    82   40   41 2    
    83   40   42 1    
    84   42   43 1    
    85   42   44 1    
    86   42  165 1    
    87   43  166 1    
    88   43  167 1    
    89   43  168 1    
    90   44   45 am   BACKBONE|DICT|INTERRES
    91   44  169 1    
    92   45   46 2    
    93   45   47 1    
    94   47   48 1    
    95   47   49 1    
    96   47  170 1    
    97   48  171 1    
    98   48  172 1    
    99   48  173 1    
   100   49   50 am   BACKBONE|DICT|INTERRES
   101   49  174 1    
   102   50   51 2    
   103   50   52 1    
   104   52   53 1    
   105   52   54 1    
   106   52  175 1    
   107   53  176 1    
   108   53  177 1    
   109   53  178 1    
   110   54   55 am   BACKBONE|DICT|INTERRES
   111   54  179 1    
   112   55   56 2    
   113   55   57 1    
   114   57   58 1    
   115   57   59 1    
   116   57  180 1    
   117   58  181 1    
   118   58  182 1    
   119   58  183 1    
   120   59   60 am   BACKBONE|DICT|INTERRES
   121   59  184 1    
   122   60   61 2    
   123   60   62 1    
   124   62   63 1    
   125   62   64 1    
   126   62  185 1    
   127   63  186 1    
   128   63  187 1    
   129   63  188 1    
   130   64   65 am   BACKBONE|DICT|INTERRES
   131   64  189 1    
   132   65   66 2    
   133   67   68 2    
   134   67   69 am   BACKBONE|DICT|INTERRES
   135   69   70 1    
   136   69  190 1    
   137   70   71 1    
   138   70   72 1    
   139   70  191 1    
   140   71  192 1    
   141   71  193 1    
   142   71  194 1    
   143   72   73 2    
   144   72   74 am   BACKBONE|DICT|INTERRES
   145   74   75 1    
   146   74  195 1    
   147   75   76 1    
   148   75   77 1    
   149   75  196 1    
   150   76  197 1    
   151   76  198 1    
   152   76  199 1    
   153   77   78 2    
   154   77   79 am   BACKBONE|DICT|INTERRES
   155   79   80 1    
   156   79  200 1    
   157   80   81 1    
   158   80   82 1    
   159   80  201 1    
   160   81  202 1    
   161   81  203 1    
   162   81  204 1    
   163   82   83 2    
   164   82   84 am   BACKBONE|DICT|INTERRES
   165   84   85 1    
   166   84  205 1    
   167   85   86 1    
   168   85   87 1    
   169   85  206 1    
   170   86  207 1    
   171   86  208 1    
   172   86  209 1    
   173   87   88 2    
   174   87   89 am   BACKBONE|DICT|INTERRES
   175   89   90 1    
   176   89  210 1    
   177   90   91 1    
   178   90   92 1    
   179   90  211 1    
   180   91  212 1    
   181   91  213 1    
   182   91  214 1    
   183   92   93 2    
   184   92   94 am   BACKBONE|DICT|INTERRES
   185   94   95 1    
   186   94  215 1    
   187   95   96 1    
   188   95   97 1    
   189   95  216 1    
   190   96  217 1    
   191   96  218 1    
   192   96  219 1    
   193   97   98 2    
   194   97   99 am   BACKBONE|DICT|INTERRES
   195   99  100 1    
   196   99  220 1    
   197  100  101 1    
   198  100  102 1    
   199  100  221 1    
   200  101  222 1    
   201  101  223 1    
   202  101  224 1    
   203  102  103 2    
   204  102  104 am   BACKBONE|DICT|INTERRES
   205  104  105 1    
   206  104  225 1    
   207  105  106 1    
   208  105  107 1    
   209  105  226 1    
   210  106  227 1    
   211  106  228 1    
   212  106  229 1    
   213  107  108 2    
   214  107  109 am   BACKBONE|DICT|INTERRES
   215  109  110 1    
   216  109  230 1    
   217  110  111 1    
   218  110  112 1    
   219  110  231 1    
   220  111  232 1    
   221  111  233 1    
   222  111  234 1    
   223  112  113 2    
   224  112  114 am   BACKBONE|DICT|INTERRES
   225  114  115 1    
   226  114  235 1    
   227  115  116 1    
   228  115  117 1    
   229  115  236 1    
   230  116  237 1    
   231  116  238 1    
   232  116  239 1    
   233  117  118 2    
   234  117  119 am   BACKBONE|DICT|INTERRES
   235  119  120 1    
   236  119  240 1    
   237  120  121 1    
   238  120  124 1    
   239  120  241 1    
   240  121  122 am   BACKBONE|DICT|INTERRES
   241  121  123 2    
   242  122  242 1    
   243  122  243 1    
   244  124  125 1    
   245  124  244 1    
   246  124  245 1    
   247  125  126 1    
   248  126  246 1    
   249  126  247 1    
@<TRIPOS>SUBSTRUCTURE
     1 UNK         1 GROUP             0       ****    0 ROOT    
