@<TRIPOS>MOLECULE
3R540
247   249    1
SMALL
USER_CHARGES


@<TRIPOS>ATOM
      1 CA          0.6228  -11.5877  -49.4249 C.3       0 UNK        -0.1800 
      2 C           1.5295  -12.8079  -49.4949 C.2       0 UNK         0.5000 
      3 O           1.1417  -13.8827  -49.0358 O.2       0 UNK        -0.5000 
      4 N           2.7336  -12.6421  -50.0627 N.am      1 UNK        -0.5000 
      5 CA          3.8032  -13.6399  -50.2130 C.3       1 UNK         0.1400 
      6 C6          3.3595  -14.9012  -51.0022 C.3       23 UNK        -0.0398 
      7 S7          4.7563  -15.9417  -51.5505 S.3       23 UNK        -0.2404 
      8 C8          4.5199  -17.4259  -50.5065 C.3       23 UNK        -0.0205 
      9 C9          3.3777  -18.3663  -50.9075 C.ar      23 UNK        -0.0193 
     10 C10         2.4822  -18.0850  -51.9484 C.ar      23 UNK        -0.1150 
     11 C11         1.4751  -18.9887  -52.2915 C.ar      23 UNK        -0.0193 
     12 C12         1.3599  -20.1874  -51.5860 C.ar      23 UNK        -0.1150 
     13 C13         2.2361  -20.4925  -50.5409 C.ar      23 UNK        -0.0193 
     14 C14         3.2410  -19.5722  -50.2105 C.ar      23 UNK        -0.1150 
     15 C15         2.0972  -21.8535  -49.8563 C.3       23 UNK        -0.0205 
     16 S16         2.8867  -22.0123  -48.2181 S.3       23 UNK        -0.2404 
     17 C17         1.5998  -21.3393  -47.1159 C.3       23 UNK        -0.0398 
     18 CA          0.8986  -22.4534  -46.2968 C.3       11 UNK         0.1400 
     19 N           0.3651  -21.9562  -45.0275 N.am      11 UNK        -0.5000 
     20 C          -0.0466  -22.7369  -44.0181 C.2       10 UNK         0.5000 
     21 O           0.0747  -23.9615  -44.0104 O.2       10 UNK        -0.5000 
     22 CA         -0.7478  -22.0400  -42.8356 C.3       10 UNK         0.1400 
     23 CB          0.2794  -21.5504  -41.8051 C.3       10 UNK        -0.1800 
     24 N          -1.6009  -20.9265  -43.2598 N.am      10 UNK        -0.5000 
     25 C          -2.6938  -21.0696  -44.0247 C.2       9 UNK         0.5000 
     26 O          -3.1238  -22.1600  -44.3983 O.2       9 UNK        -0.5000 
     27 CA         -3.3982  -19.7835  -44.4915 C.3       9 UNK         0.1400 
     28 CB         -4.3644  -19.2692  -43.4147 C.3       9 UNK        -0.1800 
     29 N          -2.4561  -18.7257  -44.8551 N.am      9 UNK        -0.5000 
     30 C          -1.5833  -18.7901  -45.8711 C.2       8 UNK         0.5000 
     31 O          -1.5132  -19.7368  -46.6541 O.2       8 UNK        -0.5000 
     32 CA         -0.5659  -17.6401  -45.9804 C.3       8 UNK         0.1400 
     33 CB         -1.1898  -16.3866  -46.6117 C.3       8 UNK        -0.1800 
     34 N           0.0060  -17.3078  -44.6753 N.am      8 UNK        -0.5000 
     35 C           0.8126  -18.1236  -43.9820 C.2       7 UNK         0.5000 
     36 O           1.2108  -19.2070  -44.4066 O.2       7 UNK        -0.5000 
     37 CA          1.2120  -17.6779  -42.5655 C.3       7 UNK         0.1400 
     38 CB          2.5813  -16.9928  -42.5727 C.3       7 UNK        -0.1800 
     39 N           0.2173  -16.7967  -41.9511 N.am      7 UNK        -0.5000 
     40 C          -0.9424  -17.2461  -41.4546 C.2       6 UNK         0.5000 
     41 O          -1.2931  -18.4260  -41.5099 O.2       6 UNK        -0.5000 
     42 CA         -1.8744  -16.2040  -40.8113 C.3       6 UNK         0.1400 
     43 CB         -1.2470  -15.6200  -39.5354 C.3       6 UNK        -0.1800 
     44 N          -2.2719  -15.1084  -41.6994 N.am      6 UNK        -0.5000 
     45 C          -2.8631  -15.2407  -42.8948 C.2       5 UNK         0.5000 
     46 O          -3.0051  -16.3139  -43.4754 O.2       5 UNK        -0.5000 
     47 CA         -3.3831  -13.9596  -43.5733 C.3       5 UNK         0.1400 
     48 CB         -4.8966  -13.8283  -43.3482 C.3       5 UNK        -0.1800 
     49 N          -2.7289  -12.7397  -43.0899 N.am      5 UNK        -0.5000 
     50 C          -1.5236  -12.2694  -43.4413 C.2       4 UNK         0.5000 
     51 O          -1.0784  -11.2314  -42.9498 O.2       4 UNK        -0.5000 
     52 CA         -0.6941  -13.0090  -44.5177 C.3       4 UNK         0.1400 
     53 CB         -1.0351  -12.4874  -45.9228 C.3       4 UNK        -0.1800 
     54 N           0.7409  -12.8572  -44.3088 N.am      4 UNK        -0.5000 
     55 C           1.4394  -13.3341  -43.2738 C.2       3 UNK         0.5000 
     56 O           0.9459  -14.0174  -42.3728 O.2       3 UNK        -0.5000 
     57 CA          2.9590  -13.0587  -43.3156 C.3       3 UNK         0.1400 
     58 CB          3.6417  -13.3066  -41.9591 C.3       3 UNK        -0.1800 
     59 N           3.6093  -13.8830  -44.3393 N.am      3 UNK        -0.5000 
     60 C           3.4861  -13.7065  -45.6614 C.2       2 UNK         0.5000 
     61 O           2.9345  -12.7193  -46.1585 O.2       2 UNK        -0.5000 
     62 CA          4.0346  -14.8314  -46.5625 C.3       2 UNK         0.1400 
     63 CB          3.4378  -16.2008  -46.1882 C.3       2 UNK        -0.1800 
     64 N           3.6822  -14.5608  -47.9507 N.am      2 UNK        -0.5000 
     65 C           4.4661  -13.9768  -48.8595 C.2       1 UNK         0.5000 
     66 O           5.6468  -13.6832  -48.6640 O.2       1 UNK        -0.5000 
     67 C          -0.1970  -23.1739  -47.1101 C.2       11 UNK         0.5000 
     68 O           0.0106  -24.3064  -47.5482 O.2       11 UNK        -0.5000 
     69 N          -1.3654  -22.5305  -47.2505 N.am      12 UNK        -0.5000 
     70 CA         -2.5409  -23.0496  -47.9547 C.3       12 UNK         0.1400 
     71 CB         -3.6332  -21.9748  -47.9808 C.3       12 UNK        -0.1800 
     72 C          -3.0968  -24.3614  -47.3732 C.2       12 UNK         0.5000 
     73 O          -3.6185  -25.1778  -48.1285 O.2       12 UNK        -0.5000 
     74 N          -2.9339  -24.5787  -46.0621 N.am      13 UNK        -0.5000 
     75 CA         -3.2879  -25.8258  -45.3797 C.3       13 UNK         0.1400 
     76 CB         -3.0997  -25.6472  -43.8658 C.3       13 UNK        -0.1800 
     77 C          -2.5072  -27.0593  -45.8854 C.2       13 UNK         0.5000 
     78 O          -3.0082  -28.1768  -45.7524 O.2       13 UNK        -0.5000 
     79 N          -1.3177  -26.8410  -46.4639 N.am      14 UNK        -0.5000 
     80 CA         -0.4897  -27.8730  -47.0842 C.3       14 UNK         0.1400 
     81 CB          0.9563  -27.7191  -46.5855 C.3       14 UNK        -0.1800 
     82 C          -0.5401  -27.7898  -48.6201 C.2       14 UNK         0.5000 
     83 O          -0.6851  -28.8198  -49.2791 O.2       14 UNK        -0.5000 
     84 N          -0.3969  -26.5750  -49.1659 N.am      15 UNK        -0.5000 
     85 CA         -0.1962  -26.3222  -50.5952 C.3       15 UNK         0.1400 
     86 CB          0.6797  -25.0670  -50.7336 C.3       15 UNK        -0.1800 
     87 C          -1.4952  -26.1367  -51.4019 C.2       15 UNK         0.5000 
     88 O          -1.4162  -25.9885  -52.6226 O.2       15 UNK        -0.5000 
     89 N          -2.6512  -26.0795  -50.7260 N.am      16 UNK        -0.5000 
     90 CA         -3.9826  -25.6970  -51.2189 C.3       16 UNK         0.1400 
     91 CB         -4.4552  -26.5601  -52.4054 C.3       16 UNK        -0.1800 
     92 C          -4.0737  -24.1902  -51.5227 C.2       16 UNK         0.5000 
     93 O          -4.9125  -23.5036  -50.9386 O.2       16 UNK        -0.5000 
     94 N          -3.1923  -23.7024  -52.4094 N.am      17 UNK        -0.5000 
     95 CA         -2.9205  -22.2969  -52.7439 C.3       17 UNK         0.1400 
     96 CB         -2.1389  -21.6394  -51.5894 C.3       17 UNK        -0.1800 
     97 C          -4.1643  -21.4686  -53.1317 C.2       17 UNK         0.5000 
     98 O          -4.2009  -20.2661  -52.8678 O.2       17 UNK        -0.5000 
     99 N          -5.1841  -22.1292  -53.7000 N.am      18 UNK        -0.5000 
    100 CA        -6.5138  -21.5861  -54.0064 C.3       18 UNK         0.1400 
    101 CB        -6.4279  -20.5965  -55.1875 C.3       18 UNK        -0.1800 
    102 C         -7.2188  -20.9838  -52.7670 C.2       18 UNK         0.5000 
    103 O         -7.8741  -19.9478  -52.8762 O.2       18 UNK        -0.5000 
    104 N         -7.0324  -21.6250  -51.6017 N.am      19 UNK        -0.5000 
    105 CA        -7.4736  -21.1888  -50.2714 C.3       19 UNK         0.1400 
    106 CB        -9.0134  -21.1465  -50.1728 C.3       19 UNK        -0.1800 
    107 C         -6.7904  -19.8745  -49.8358 C.2       19 UNK         0.5000 
    108 O         -7.4479  -18.9688  -49.3216 O.2       19 UNK        -0.5000 
    109 N         -5.4719  -19.8097  -50.0732 N.am      20 UNK        -0.5000 
    110 CA        -4.5459  -18.7039  -49.7924 C.3       20 UNK         0.1400 
    111 CB        -4.5674  -18.3077  -48.2993 C.3       20 UNK        -0.1800 
    112 C         -4.7113  -17.4813  -50.7198 C.2       20 UNK         0.5000 
    113 O         -4.0914  -16.4478  -50.4644 O.2       20 UNK        -0.5000 
    114 N         -5.5144  -17.6066  -51.7852 N.am      21 UNK        -0.5000 
    115 CA        -5.6889  -16.5715  -52.8050 C.3       21 UNK         0.1400 
    116 CB        -7.0387  -16.7742  -53.5088 C.3       21 UNK        -0.1800 
    117 C         -4.5439  -16.5575  -53.8356 C.2       21 UNK         0.5000 
    118 O         -4.3008  -15.5152  -54.4446 O.2       21 UNK        -0.5000 
    119 N         -3.8789  -17.7068  -54.0235 N.am      22 UNK        -0.5000 
    120 CA        -2.7687  -17.9452  -54.9634 C.3       22 UNK         0.1400 
    121 C         -3.1449  -17.8413  -56.4752 C.2       22 UNK         0.5000 
    122 N         -4.4192  -17.8180  -56.8461 N.am      22 UNK        -0.7600 
    123 O         -2.2692  -17.8201  -57.3361 O.2       22 UNK        -0.5000 
    124 C124       -1.4888  -17.1378  -54.6070 C.3       23 UNK        -0.0398 
    125 S125       -0.8108  -17.5728  -52.9665 S.3       23 UNK        -0.2404 
    126 C126        0.5467  -18.6820  -53.4560 C.3       23 UNK        -0.0205 
    127 H127        1.0275  -10.7484  -49.9908 H         1 UNK         0.0600 
    128 H128        0.5008  -11.2733  -48.3886 H         1 UNK         0.0600 
    129 H129       -0.3611  -11.8267  -49.8285 H         1 UNK         0.0600 
    130 H130        2.9796  -11.7186  -50.3914 H         1 UNK         0.3000 
    131 H131        4.5660  -13.1402  -50.8128 H         1 UNK         0.0600 
    132 H132        2.6541  -15.5021  -50.4266 H         1 UNK         0.0800 
    133 H133        2.8186  -14.5944  -51.8982 H         1 UNK         0.0800 
    134 H134        5.4516  -17.9929  -50.5285 H         1 UNK         0.0800 
    135 H135        4.3781  -17.1145  -49.4707 H         1 UNK         0.0800 
    136 H136        2.5601  -17.1700  -52.5154 H         1 UNK         0.1150 
    137 H137        0.5999  -20.8991  -51.8702 H         1 UNK         0.1150 
    138 H138        3.9433  -19.7968  -49.4211 H         1 UNK         0.1150 
    139 H139        1.0411  -22.1074  -49.7607 H         1 UNK         0.0800 
    140 H140        2.5359  -22.6041  -50.5147 H         1 UNK         0.0800 
    141 H141        0.8889  -20.7271  -47.6740 H         1 UNK         0.0800 
    142 H142        2.1118  -20.6517  -46.4421 H         1 UNK         0.0800 
    143 H143        1.6503  -23.2026  -46.0373 H         1 UNK         0.0600 
    144 H144        0.2968  -20.9494  -44.9250 H         1 UNK         0.3000 
    145 H145       -1.3885  -22.7782  -42.3485 H         1 UNK         0.0600 
    146 H146       -0.2042  -21.0388  -40.9727 H         1 UNK         0.0600 
    147 H147        0.8406  -22.3887  -41.3909 H         1 UNK         0.0600 
    148 H148        1.0009  -20.8667  -42.2501 H         1 UNK         0.0600 
    149 H149       -1.3476  -19.9996  -42.9371 H         1 UNK         0.3000 
    150 H150       -3.9840  -20.0269  -45.3787 H         1 UNK         0.0600 
    151 H151       -4.9295  -18.4086  -43.7731 H         1 UNK         0.0600 
    152 H152       -5.0850  -20.0388  -43.1354 H         1 UNK         0.0600 
    153 H153       -3.8358  -18.9676  -42.5098 H         1 UNK         0.0600 
    154 H154       -2.4808  -17.8896  -44.2755 H         1 UNK         0.3000 
    155 H155        0.2459  -17.9743  -46.6305 H         1 UNK         0.0600 
    156 H156       -2.0252  -16.0052  -46.0248 H         1 UNK         0.0600 
    157 H157       -1.5636  -16.6029  -47.6130 H         1 UNK         0.0600 
    158 H158       -0.4532  -15.5888  -46.7109 H         1 UNK         0.0600 
    159 H159       -0.3116  -16.4607  -44.2306 H         1 UNK         0.3000 
    160 H160        1.3019  -18.5742  -41.9494 H         1 UNK         0.0600 
    161 H161        2.5664  -16.0981  -43.1891 H         1 UNK         0.0600 
    162 H162        3.3490  -17.6576  -42.9705 H         1 UNK         0.0600 
    163 H163        2.8854  -16.7087  -41.5654 H         1 UNK         0.0600 
    164 H164        0.4333  -15.8029  -41.9134 H         1 UNK         0.3000 
    165 H165       -2.7878  -16.7285  -40.5235 H         1 UNK         0.0600 
    166 H166       -1.9600  -14.9964  -38.9959 H         1 UNK         0.0600 
    167 H167       -0.9313  -16.4123  -38.8553 H         1 UNK         0.0600 
    168 H168       -0.3709  -15.0094  -39.7588 H         1 UNK         0.0600 
    169 H169       -2.1628  -14.1757  -41.3289 H         1 UNK         0.3000 
    170 H170       -3.2244  -14.0622  -44.6475 H         1 UNK         0.0600 
    171 H171       -5.4250  -14.7085  -43.7177 H         1 UNK         0.0600 
    172 H172       -5.1403  -13.7197  -42.2905 H         1 UNK         0.0600 
    173 H173       -5.3005  -12.9644  -43.8765 H         1 UNK         0.0600 
    174 H174       -3.2552  -12.2136  -42.4078 H         1 UNK         0.3000 
    175 H175       -0.8939  -14.0788  -44.4851 H         1 UNK         0.0600 
    176 H176       -0.7978  -11.4276  -46.0245 H         1 UNK         0.0600 
    177 H177       -0.4799  -13.0285  -46.6896 H         1 UNK         0.0600 
    178 H178       -2.0952  -12.6067  -46.1472 H         1 UNK         0.0600 
    179 H179        1.2573  -12.3768  -45.0372 H         1 UNK         0.3000 
    180 H180        3.0990  -12.0055  -43.5682 H         1 UNK         0.0600 
    181 H181        3.5732  -14.3492  -41.6500 H         1 UNK         0.0600 
    182 H182        3.1804  -12.7030  -41.1764 H         1 UNK         0.0600 
    183 H183        4.6974  -13.0375  -41.9954 H         1 UNK         0.0600 
    184 H184        4.0871  -14.7058  -44.0036 H         1 UNK         0.3000 
    185 H185        5.1193  -14.8716  -46.4458 H         1 UNK         0.0600 
    186 H186        3.8051  -16.5423  -45.2214 H         1 UNK         0.0600 
    187 H187        2.3485  -16.1675  -46.1412 H         1 UNK         0.0600 
    188 H188        3.7140  -16.9645  -46.9156 H         1 UNK         0.0600 
    189 H189        2.6932  -14.6193  -48.1783 H         1 UNK         0.3000 
    190 H190       -1.4486  -21.5861  -46.8801 H         1 UNK         0.3000 
    191 H191       -2.2369  -23.2550  -48.9828 H         1 UNK         0.0600 
    192 H192       -3.2575  -21.0507  -48.4166 H         1 UNK         0.0600 
    193 H193       -4.4879  -22.2968  -48.5758 H         1 UNK         0.0600 
    194 H194       -3.9998  -21.7506  -46.9801 H         1 UNK         0.0600 
    195 H195       -2.5775  -23.8235  -45.4864 H         1 UNK         0.3000 
    196 H196       -4.3469  -26.0123  -45.5691 H         1 UNK         0.0600 
    197 H197       -3.4246  -26.5368  -43.3250 H         1 UNK         0.0600 
    198 H198       -3.6842  -24.8071  -43.4901 H         1 UNK         0.0600 
    199 H199       -2.0555  -25.4721  -43.6084 H         1 UNK         0.0600 
    200 H200       -0.9871  -25.8868  -46.5467 H         1 UNK         0.3000 
    201 H201       -0.8359  -28.8676  -46.7953 H         1 UNK         0.0600 
    202 H202        1.0130  -27.8447  -45.5041 H         1 UNK         0.0600 
    203 H203        1.3676  -26.7383  -46.8284 H         1 UNK         0.0600 
    204 H204        1.6073  -28.4700  -47.0350 H         1 UNK         0.0600 
    205 H205       -0.2671  -25.7726  -48.5525 H         1 UNK         0.3000 
    206 H206        0.3445  -27.1620  -51.0365 H         1 UNK         0.0600 
    207 H207        1.6105  -25.1673  -50.1747 H         1 UNK         0.0600 
    208 H208        0.9446  -24.8803  -51.7751 H         1 UNK         0.0600 
    209 H209        0.1592  -24.1838  -50.3638 H         1 UNK         0.0600 
    210 H210       -2.6013  -26.1579  -49.7167 H         1 UNK         0.3000 
    211 H211       -4.6719  -25.8938  -50.3970 H         1 UNK         0.0600 
    212 H212       -3.8744  -26.3835  -53.3105 H         1 UNK         0.0600 
    213 H213       -5.4968  -26.3440  -52.6458 H         1 UNK         0.0600 
    214 H214       -4.3908  -27.6219  -52.1680 H         1 UNK         0.0600 
    215 H215       -2.5523  -24.3792  -52.8156 H         1 UNK         0.3000 
    216 H216       -2.2747  -22.3069  -53.6227 H         1 UNK         0.0600 
    217 H217       -1.7842  -20.6461  -51.8678 H         1 UNK         0.0600 
    218 H218       -1.2694  -22.2338  -51.3106 H         1 UNK         0.0600 
    219 H219       -2.7619  -21.5243  -50.7042 H         1 UNK         0.0600 
    220 H220       -5.0651  -23.1191  -53.8614 H         1 UNK         0.3000 
    221 H221       -7.1285  -22.4291  -54.3244 H         1 UNK         0.0600 
    222 H222       -5.8574  -19.7059  -54.9269 H         1 UNK         0.0600 
    223 H223       -5.9508  -21.0562  -56.0529 H         1 UNK         0.0600 
    224 H224       -7.4203  -20.2702  -55.5004 H         1 UNK         0.0600 
    225 H225       -6.4183  -22.4349  -51.5961 H         1 UNK         0.3000 
    226 H226       -7.1256  -21.9528  -49.5746 H         1 UNK         0.0600 
    227 H227       -9.4542  -22.0935  -50.4836 H         1 UNK         0.0600 
    228 H228       -9.3312  -20.9625  -49.1460 H         1 UNK         0.0600 
    229 H229       -9.4420  -20.3573  -50.7908 H         1 UNK         0.0600 
    230 H230       -5.0587  -20.5896  -50.5656 H         1 UNK         0.3000 
    231 H231       -3.5519  -19.0981  -50.0083 H         1 UNK         0.0600 
    232 H232       -5.4797  -17.7736  -48.0337 H         1 UNK         0.0600 
    233 H233       -3.7305  -17.6524  -48.0590 H         1 UNK         0.0600 
    234 H234       -4.4902  -19.1781  -47.6500 H         1 UNK         0.0600 
    235 H235       -5.9828  -18.4891  -51.9393 H         1 UNK         0.3000 
    236 H236       -5.7101  -15.5948  -52.3169 H         1 UNK         0.0600 
    237 H237       -7.8599  -16.7964  -52.7920 H         1 UNK         0.0600 
    238 H238       -7.2385  -15.9616  -54.2084 H         1 UNK         0.0600 
    239 H239       -7.0634  -17.7049  -54.0752 H         1 UNK         0.0600 
    240 H240       -4.1414  -18.5194  -53.4704 H         1 UNK         0.3000 
    241 H241       -2.5200  -18.9992  -54.8354 H         1 UNK         0.0600 
    242 H242       -5.1527  -17.8322  -56.1577 H         1 UNK         0.3800 
    243 H243       -4.6487  -17.7634  -57.8260 H         1 UNK         0.3800 
    244 H244       -1.6954  -16.0673  -54.6218 H         1 UNK         0.0800 
    245 H245       -0.7097  -17.2926  -55.3543 H         1 UNK         0.0800 
    246 H246        0.1279  -19.6026  -53.8655 H         1 UNK         0.0800 
    247 H247        1.1268  -18.2237  -54.2584 H         1 UNK         0.0800 
@<TRIPOS>BOND
     1    1    2 1    
     2    1  127 1    
     3    1  128 1    
     4    1  129 1    
     5    2    3 2    
     6    2    4 am   BACKBONE|DICT|INTERRES
     7    4    5 1    
     8    4  130 1    
     9    5    6 1    
    10    5   65 1    
    11    5  131 1    
    12    6    7 1    
    13    6  132 1    
    14    6  133 1    
    15    7    8 1    
    16    8    9 1    
    17    8  134 1    
    18    8  135 1    
    19    9   10 ar   
    20    9   14 ar   
    21   10   11 ar   
    22   10  136 1    
    23   11   12 ar   
    24   11  126 1    
    25   12   13 ar   
    26   12  137 1    
    27   13   14 ar   
    28   13   15 1    
    29   14  138 1    
    30   15   16 1    
    31   15  139 1    
    32   15  140 1    
    33   16   17 1    
    34   17   18 1    
    35   17  141 1    
    36   17  142 1    
    37   18   19 1    
    38   18   67 1    
    39   18  143 1    
    40   19   20 am   BACKBONE|DICT|INTERRES
    41   19  144 1    
    42   20   21 2    
    43   20   22 1    
    44   22   23 1    
    45   22   24 1    
    46   22  145 1    
    47   23  146 1    
    48   23  147 1    
    49   23  148 1    
    50   24   25 am   BACKBONE|DICT|INTERRES
    51   24  149 1    
    52   25   26 2    
    53   25   27 1    
    54   27   28 1    
    55   27   29 1    
    56   27  150 1    
    57   28  151 1    
    58   28  152 1    
    59   28  153 1    
    60   29   30 am   BACKBONE|DICT|INTERRES
    61   29  154 1    
    62   30   31 2    
    63   30   32 1    
    64   32   33 1    
    65   32   34 1    
    66   32  155 1    
    67   33  156 1    
    68   33  157 1    
    69   33  158 1    
    70   34   35 am   BACKBONE|DICT|INTERRES
    71   34  159 1    
    72   35   36 2    
    73   35   37 1    
    74   37   38 1    
    75   37   39 1    
    76   37  160 1    
    77   38  161 1    
    78   38  162 1    
    79   38  163 1    
    80   39   40 am   BACKBONE|DICT|INTERRES
    81   39  164 1    
    82   40   41 2    
    83   40   42 1    
    84   42   43 1    
    85   42   44 1    
    86   42  165 1    
    87   43  166 1    
    88   43  167 1    
    89   43  168 1    
    90   44   45 am   BACKBONE|DICT|INTERRES
    91   44  169 1    
    92   45   46 2    
    93   45   47 1    
    94   47   48 1    
    95   47   49 1    
    96   47  170 1    
    97   48  171 1    
    98   48  172 1    
    99   48  173 1    
   100   49   50 am   BACKBONE|DICT|INTERRES
   101   49  174 1    
   102   50   51 2    
   103   50   52 1    
   104   52   53 1    
   105   52   54 1    
   106   52  175 1    
   107   53  176 1    
   108   53  177 1    
   109   53  178 1    
   110   54   55 am   BACKBONE|DICT|INTERRES
   111   54  179 1    
   112   55   56 2    
   113   55   57 1    
   114   57   58 1    
   115   57   59 1    
   116   57  180 1    
   117   58  181 1    
   118   58  182 1    
   119   58  183 1    
   120   59   60 am   BACKBONE|DICT|INTERRES
   121   59  184 1    
   122   60   61 2    
   123   60   62 1    
   124   62   63 1    
   125   62   64 1    
   126   62  185 1    
   127   63  186 1    
   128   63  187 1    
   129   63  188 1    
   130   64   65 am   BACKBONE|DICT|INTERRES
   131   64  189 1    
   132   65   66 2    
   133   67   68 2    
   134   67   69 am   BACKBONE|DICT|INTERRES
   135   69   70 1    
   136   69  190 1    
   137   70   71 1    
   138   70   72 1    
   139   70  191 1    
   140   71  192 1    
   141   71  193 1    
   142   71  194 1    
   143   72   73 2    
   144   72   74 am   BACKBONE|DICT|INTERRES
   145   74   75 1    
   146   74  195 1    
   147   75   76 1    
   148   75   77 1    
   149   75  196 1    
   150   76  197 1    
   151   76  198 1    
   152   76  199 1    
   153   77   78 2    
   154   77   79 am   BACKBONE|DICT|INTERRES
   155   79   80 1    
   156   79  200 1    
   157   80   81 1    
   158   80   82 1    
   159   80  201 1    
   160   81  202 1    
   161   81  203 1    
   162   81  204 1    
   163   82   83 2    
   164   82   84 am   BACKBONE|DICT|INTERRES
   165   84   85 1    
   166   84  205 1    
   167   85   86 1    
   168   85   87 1    
   169   85  206 1    
   170   86  207 1    
   171   86  208 1    
   172   86  209 1    
   173   87   88 2    
   174   87   89 am   BACKBONE|DICT|INTERRES
   175   89   90 1    
   176   89  210 1    
   177   90   91 1    
   178   90   92 1    
   179   90  211 1    
   180   91  212 1    
   181   91  213 1    
   182   91  214 1    
   183   92   93 2    
   184   92   94 am   BACKBONE|DICT|INTERRES
   185   94   95 1    
   186   94  215 1    
   187   95   96 1    
   188   95   97 1    
   189   95  216 1    
   190   96  217 1    
   191   96  218 1    
   192   96  219 1    
   193   97   98 2    
   194   97   99 am   BACKBONE|DICT|INTERRES
   195   99  100 1    
   196   99  220 1    
   197  100  101 1    
   198  100  102 1    
   199  100  221 1    
   200  101  222 1    
   201  101  223 1    
   202  101  224 1    
   203  102  103 2    
   204  102  104 am   BACKBONE|DICT|INTERRES
   205  104  105 1    
   206  104  225 1    
   207  105  106 1    
   208  105  107 1    
   209  105  226 1    
   210  106  227 1    
   211  106  228 1    
   212  106  229 1    
   213  107  108 2    
   214  107  109 am   BACKBONE|DICT|INTERRES
   215  109  110 1    
   216  109  230 1    
   217  110  111 1    
   218  110  112 1    
   219  110  231 1    
   220  111  232 1    
   221  111  233 1    
   222  111  234 1    
   223  112  113 2    
   224  112  114 am   BACKBONE|DICT|INTERRES
   225  114  115 1    
   226  114  235 1    
   227  115  116 1    
   228  115  117 1    
   229  115  236 1    
   230  116  237 1    
   231  116  238 1    
   232  116  239 1    
   233  117  118 2    
   234  117  119 am   BACKBONE|DICT|INTERRES
   235  119  120 1    
   236  119  240 1    
   237  120  121 1    
   238  120  124 1    
   239  120  241 1    
   240  121  122 am   BACKBONE|DICT|INTERRES
   241  121  123 2    
   242  122  242 1    
   243  122  243 1    
   244  124  125 1    
   245  124  244 1    
   246  124  245 1    
   247  125  126 1    
   248  126  246 1    
   249  126  247 1    
@<TRIPOS>SUBSTRUCTURE
     1 UNK         1 GROUP             0       ****    0 ROOT    
