@<TRIPOS>MOLECULE
3R540
247   249    1
SMALL
USER_CHARGES


@<TRIPOS>ATOM
      1 CA         -1.3366  -12.6871  -45.4574 C.3       0 UNK        -0.1800 
      2 C          -0.8524  -11.2795  -45.8089 C.2       0 UNK         0.5000 
      3 O          -1.6519  -10.3501  -45.7266 O.2       0 UNK        -0.5000 
      4 N           0.4065  -11.0415  -46.2114 N.am      1 UNK        -0.5000 
      5 CA          1.5463  -11.9593  -46.3544 C.3       1 UNK         0.1400 
      6 C6          1.3804  -13.0228  -47.4736 C.3       23 UNK        -0.0398 
      7 S7          1.3101  -12.2565  -49.1278 S.3       23 UNK        -0.2404 
      8 C8         -0.4579  -12.3806  -49.5401 C.3       23 UNK        -0.0205 
      9 C9         -0.8295  -13.7613  -50.0591 C.ar      23 UNK        -0.0193 
     10 C10        -0.6496  -14.0708  -51.4120 C.ar      23 UNK        -0.1150 
     11 C11        -1.0249  -15.3218  -51.9090 C.ar      23 UNK        -0.0193 
     12 C12        -1.5688  -16.2687  -51.0383 C.ar      23 UNK        -0.1150 
     13 C13        -1.7651  -15.9694  -49.6895 C.ar      23 UNK        -0.0193 
     14 C14        -1.3893  -14.7149  -49.2021 C.ar      23 UNK        -0.1150 
     15 C15        -2.4384  -16.9879  -48.7856 C.3       23 UNK        -0.0205 
     16 S16        -1.4614  -18.5133  -48.6306 S.3       23 UNK        -0.2404 
     17 C17        -2.7265  -19.6056  -47.9155 C.3       23 UNK        -0.0398 
     18 CA         -2.1559  -20.9686  -47.4630 C.3       11 UNK         0.1400 
     19 N          -1.0865  -20.8485  -46.4682 N.am      11 UNK        -0.5000 
     20 C          -0.3194  -21.8641  -46.0452 C.2       10 UNK         0.5000 
     21 O          -0.4005  -23.0115  -46.4792 O.2       10 UNK        -0.5000 
     22 CA          0.6619  -21.5563  -44.9023 C.3       10 UNK         0.1400 
     23 CB          1.9661  -20.9622  -45.4533 C.3       10 UNK        -0.1800 
     24 N           0.0688  -20.6498  -43.9177 N.am      10 UNK        -0.5000 
     25 C          -0.9364  -21.0022  -43.0997 C.2       9 UNK         0.5000 
     26 O          -1.4090  -22.1385  -43.0545 O.2       9 UNK        -0.5000 
     27 CA         -1.5605  -19.8962  -42.2290 C.3       9 UNK         0.1400 
     28 CB         -0.8787  -19.8355  -40.8559 C.3       9 UNK        -0.1800 
     29 N          -1.5196  -18.5821  -42.8753 N.am      9 UNK        -0.5000 
     30 C          -2.2315  -18.2734  -43.9699 C.2       8 UNK         0.5000 
     31 O          -3.0123  -19.0658  -44.4993 O.2       8 UNK        -0.5000 
     32 CA         -2.0008  -16.9017  -44.6354 C.3       8 UNK         0.1400 
     33 CB         -3.3217  -16.1906  -44.9935 C.3       8 UNK        -0.1800 
     34 N          -1.0776  -16.0231  -43.9107 N.am      8 UNK        -0.5000 
     35 C          -1.2823  -15.3349  -42.7781 C.2       7 UNK         0.5000 
     36 O          -2.3477  -15.3093  -42.1621 O.2       7 UNK        -0.5000 
     37 CA         -0.0531  -14.5609  -42.2534 C.3       7 UNK         0.1400 
     38 CB         -0.2191  -14.0535  -40.8052 C.3       7 UNK        -0.1800 
     39 N           1.1940  -15.3235  -42.4172 N.am      7 UNK        -0.5000 
     40 C           1.4863  -16.4999  -41.8360 C.2       6 UNK         0.5000 
     41 O           0.7499  -17.0559  -41.0228 O.2       6 UNK        -0.5000 
     42 CA          2.7960  -17.1863  -42.2849 C.3       6 UNK         0.1400 
     43 CB          2.8667  -18.6759  -41.8911 C.3       6 UNK        -0.1800 
     44 N           3.0569  -17.0301  -43.7192 N.am      6 UNK        -0.5000 
     45 C           2.2489  -17.3814  -44.7320 C.2       5 UNK         0.5000 
     46 O           1.1603  -17.9379  -44.5723 O.2       5 UNK        -0.5000 
     47 CA          2.7091  -16.9966  -46.1496 C.3       5 UNK         0.1400 
     48 CB          1.5166  -16.5961  -47.0344 C.3       5 UNK        -0.1800 
     49 N           3.6641  -15.8877  -46.0868 N.am      5 UNK        -0.5000 
     50 C           4.9050  -15.9084  -46.5871 C.2       4 UNK         0.5000 
     51 O           5.3571  -16.8271  -47.2711 O.2       4 UNK        -0.5000 
     52 CA          5.8125  -14.7161  -46.2268 C.3       4 UNK         0.1400 
     53 CB          5.5392  -13.5249  -47.1579 C.3       4 UNK        -0.1800 
     54 N           5.6986  -14.2699  -44.8342 N.am      4 UNK        -0.5000 
     55 C           5.9117  -15.0064  -43.7352 C.2       3 UNK         0.5000 
     56 O           6.1631  -16.2104  -43.7610 O.2       3 UNK        -0.5000 
     57 CA          5.7747  -14.3018  -42.3678 C.3       3 UNK         0.1400 
     58 CB          7.0409  -13.4954  -42.0211 C.3       3 UNK        -0.1800 
     59 N           4.5526  -13.4949  -42.2327 N.am      3 UNK        -0.5000 
     60 C           4.2196  -12.3793  -42.8944 C.2       2 UNK         0.5000 
     61 O           4.9662  -11.7861  -43.6767 O.2       2 UNK        -0.5000 
     62 CA          2.7740  -11.8849  -42.7137 C.3       2 UNK         0.1400 
     63 CB          2.7301  -10.6087  -41.8615 C.3       2 UNK        -0.1800 
     64 N           2.1560  -11.6231  -44.0141 N.am      2 UNK        -0.5000 
     65 C           1.9998  -12.5271  -44.9924 C.2       1 UNK         0.5000 
     66 O           2.1891  -13.7386  -44.8401 O.2       1 UNK        -0.5000 
     67 C          -3.2927  -21.8690  -46.9497 C.2       11 UNK         0.5000 
     68 O          -3.7588  -22.7305  -47.6932 O.2       11 UNK        -0.5000 
     69 N          -3.6908  -21.6789  -45.6833 N.am      12 UNK        -0.5000 
     70 CA         -4.6960  -22.4920  -44.9990 C.3       12 UNK         0.1400 
     71 CB         -5.0004  -21.8861  -43.6209 C.3       12 UNK        -0.1800 
     72 C          -4.2774  -23.9686  -44.8756 C.2       12 UNK         0.5000 
     73 O          -5.0838  -24.8506  -45.1715 O.2       12 UNK        -0.5000 
     74 N          -3.0136  -24.2098  -44.4963 N.am      13 UNK        -0.5000 
     75 CA         -2.4091  -25.5422  -44.4145 C.3       13 UNK         0.1400 
     76 CB         -1.0294  -25.4356  -43.7478 C.3       13 UNK        -0.1800 
     77 C          -2.2996  -26.2432  -45.7833 C.2       13 UNK         0.5000 
     78 O          -2.5197  -27.4517  -45.8678 O.2       13 UNK        -0.5000 
     79 N          -1.9890  -25.4688  -46.8309 N.am      14 UNK        -0.5000 
     80 CA         -1.8989  -25.9224  -48.2206 C.3       14 UNK         0.1400 
     81 CB         -1.0280  -24.9238  -48.9981 C.3       14 UNK        -0.1800 
     82 C          -3.2691  -26.0983  -48.9111 C.2       14 UNK         0.5000 
     83 O          -3.3116  -26.6147  -50.0278 O.2       14 UNK        -0.5000 
     84 N          -4.3518  -25.6579  -48.2527 N.am      15 UNK        -0.5000 
     85 CA         -5.7383  -25.6267  -48.7293 C.3       15 UNK         0.1400 
     86 CB         -6.2985  -27.0510  -48.9233 C.3       15 UNK        -0.1800 
     87 C          -5.9392  -24.6981  -49.9479 C.2       15 UNK         0.5000 
     88 O          -6.7291  -25.0040  -50.8440 O.2       15 UNK        -0.5000 
     89 N          -5.2309  -23.5594  -49.9244 N.am      16 UNK        -0.5000 
     90 CA         -5.3030  -22.4109  -50.8278 C.3       16 UNK         0.1400 
     91 CB         -6.5249  -21.5423  -50.4613 C.3       16 UNK        -0.1800 
     92 C          -5.2396  -22.7924  -52.3207 C.2       16 UNK         0.5000 
     93 O          -4.1600  -23.1087  -52.8258 O.2       16 UNK        -0.5000 
     94 N          -6.3969  -22.7674  -52.9953 N.am      17 UNK        -0.5000 
     95 CA         -6.5745  -23.0751  -54.4141 C.3       17 UNK         0.1400 
     96 CB         -8.0393  -22.8237  -54.7999 C.3       17 UNK        -0.1800 
     97 C          -6.1488  -24.5015  -54.8111 C.2       17 UNK         0.5000 
     98 O          -5.7842  -24.7111  -55.9678 O.2       17 UNK        -0.5000 
     99 N          -6.1385  -25.4413  -53.8531 N.am      18 UNK        -0.5000 
    100 CA        -5.6285  -26.8045  -54.0344 C.3       18 UNK         0.1400 
    101 CB        -5.9515  -27.6338  -52.7849 C.3       18 UNK        -0.1800 
    102 C         -4.1144  -26.8557  -54.3290 C.2       18 UNK         0.5000 
    103 O         -3.6596  -27.7866  -54.9945 O.2       18 UNK        -0.5000 
    104 N         -3.3741  -25.8447  -53.8558 N.am      19 UNK        -0.5000 
    105 CA        -1.9499  -25.6352  -54.1167 C.3       19 UNK         0.1400 
    106 CB        -1.2540  -25.3542  -52.7769 C.3       19 UNK        -0.1800 
    107 C         -1.7158  -24.4854  -55.1180 C.2       19 UNK         0.5000 
    108 O         -0.5707  -24.0716  -55.3034 O.2       19 UNK        -0.5000 
    109 N         -2.7977  -23.9821  -55.7334 N.am      20 UNK        -0.5000 
    110 CA        -2.8572  -22.8548  -56.6690 C.3       20 UNK         0.1400 
    111 CB        -2.1078  -23.1854  -57.9768 C.3       20 UNK        -0.1800 
    112 C         -2.4271  -21.5050  -56.0519 C.2       20 UNK         0.5000 
    113 O         -1.9818  -20.6159  -56.7807 O.2       20 UNK        -0.5000 
    114 N         -2.5809  -21.3592  -54.7280 N.am      21 UNK        -0.5000 
    115 CA        -2.3581  -20.1050  -54.0095 C.3       21 UNK         0.1400 
    116 CB        -2.0547  -20.4189  -52.5351 C.3       21 UNK        -0.1800 
    117 C         -3.5752  -19.1679  -54.1437 C.2       21 UNK         0.5000 
    118 O         -4.6487  -19.5985  -54.5731 O.2       21 UNK        -0.5000 
    119 N         -3.3804  -17.9005  -53.7604 N.am      22 UNK        -0.5000 
    120 CA        -4.3740  -16.8150  -53.8522 C.3       22 UNK         0.1400 
    121 C         -5.6665  -17.0131  -53.0031 C.2       22 UNK         0.5000 
    122 N         -5.6706  -17.8670  -51.9864 N.am      22 UNK        -0.7600 
    123 O         -6.6798  -16.3733  -53.2704 O.2       22 UNK        -0.5000 
    124 C124       -3.7576  -15.4273  -53.5272 C.3       23 UNK        -0.0398 
    125 S125       -2.2200  -15.0141  -54.4345 S.3       23 UNK        -0.2404 
    126 C126       -0.8643  -15.6561  -53.3854 C.3       23 UNK        -0.0205 
    127 H127       -0.5448  -13.4200  -45.3366 H         1 UNK         0.0600 
    128 H128       -2.0102  -13.0460  -46.2347 H         1 UNK         0.0600 
    129 H129       -1.8967  -12.6596  -44.5228 H         1 UNK         0.0600 
    130 H130        0.6304  -10.0842  -46.4445 H         1 UNK         0.3000 
    131 H131        2.3810  -11.3259  -46.6597 H         1 UNK         0.0600 
    132 H132        2.2328  -13.7028  -47.4853 H         1 UNK         0.0800 
    133 H133        0.5042  -13.6458  -47.3153 H         1 UNK         0.0800 
    134 H134       -0.6887  -11.6355  -50.3029 H         1 UNK         0.0800 
    135 H135       -1.0648  -12.1173  -48.6735 H         1 UNK         0.0800 
    136 H136       -0.2309  -13.3323  -52.0814 H         1 UNK         0.1150 
    137 H137       -1.8679  -17.2368  -51.4095 H         1 UNK         0.1150 
    138 H138       -1.5524  -14.4750  -48.1617 H         1 UNK         0.1150 
    139 H139       -3.4205  -17.2218  -49.1995 H         1 UNK         0.0800 
    140 H140       -2.6105  -16.5705  -47.7939 H         1 UNK         0.0800 
    141 H141       -3.5002  -19.7541  -48.6715 H         1 UNK         0.0800 
    142 H142       -3.2068  -19.0868  -47.0852 H         1 UNK         0.0800 
    143 H143       -1.7280  -21.4583  -48.3407 H         1 UNK         0.0600 
    144 H144       -0.9611  -19.9400  -46.0490 H         1 UNK         0.3000 
    145 H145        0.9031  -22.4949  -44.3988 H         1 UNK         0.0600 
    146 H146        2.4854  -21.6882  -46.0798 H         1 UNK         0.0600 
    147 H147        2.6459  -20.6793  -44.6494 H         1 UNK         0.0600 
    148 H148        1.7800  -20.0809  -46.0672 H         1 UNK         0.0600 
    149 H149        0.3855  -19.6852  -43.9345 H         1 UNK         0.3000 
    150 H150       -2.6090  -20.1540  -42.0673 H         1 UNK         0.0600 
    151 H151        0.1919  -19.6547  -40.9430 H         1 UNK         0.0600 
    152 H152       -1.0058  -20.7763  -40.3189 H         1 UNK         0.0600 
    153 H153       -1.3041  -19.0460  -40.2361 H         1 UNK         0.0600 
    154 H154       -0.8760  -17.9016  -42.4935 H         1 UNK         0.3000 
    155 H155       -1.4951  -17.1258  -45.5757 H         1 UNK         0.0600 
    156 H156       -3.9327  -15.9953  -44.1125 H         1 UNK         0.0600 
    157 H157       -3.9225  -16.8005  -45.6690 H         1 UNK         0.0600 
    158 H158       -3.1367  -15.2405  -45.4939 H         1 UNK         0.0600 
    159 H159       -0.1334  -16.0378  -44.2703 H         1 UNK         0.3000 
    160 H160        0.0382  -13.6819  -42.8914 H         1 UNK         0.0600 
    161 H161       -0.4093  -14.8680  -40.1060 H         1 UNK         0.0600 
    162 H162       -1.0583  -13.3610  -40.7309 H         1 UNK         0.0600 
    163 H163        0.6693  -13.5219  -40.4654 H         1 UNK         0.0600 
    164 H164        1.8213  -14.9728  -43.1317 H         1 UNK         0.3000 
    165 H165        3.6020  -16.6701  -41.7626 H         1 UNK         0.0600 
    166 H166        2.7606  -18.8050  -40.8134 H         1 UNK         0.0600 
    167 H167        2.0830  -19.2605  -42.3713 H         1 UNK         0.0600 
    168 H168        3.8251  -19.1105  -42.1750 H         1 UNK         0.0600 
    169 H169        3.9552  -16.6323  -43.9611 H         1 UNK         0.3000 
    170 H170        3.1756  -17.8849  -46.5791 H         1 UNK         0.0600 
    171 H171        1.8433  -16.2435  -48.0127 H         1 UNK         0.0600 
    172 H172        0.9184  -15.8123  -46.5711 H         1 UNK         0.0600 
    173 H173        0.8600  -17.4491  -47.2018 H         1 UNK         0.0600 
    174 H174        3.3577  -15.0764  -45.5566 H         1 UNK         0.3000 
    175 H175        6.8448  -15.0365  -46.3802 H         1 UNK         0.0600 
    176 H176        5.6000  -13.8221  -48.2057 H         1 UNK         0.0600 
    177 H177        4.5484  -13.1024  -46.9918 H         1 UNK         0.0600 
    178 H178        6.2694  -12.7304  -47.0034 H         1 UNK         0.0600 
    179 H179        5.4827  -13.2875  -44.6861 H         1 UNK         0.3000 
    180 H180        5.6860  -15.0912  -41.6197 H         1 UNK         0.0600 
    181 H181        7.2400  -12.7060  -42.7460 H         1 UNK         0.0600 
    182 H182        7.9180  -14.1434  -42.0019 H         1 UNK         0.0600 
    183 H183        6.9567  -13.0339  -41.0373 H         1 UNK         0.0600 
    184 H184        3.8651  -13.8833  -41.6034 H         1 UNK         0.3000 
    185 H185        2.1919  -12.6547  -42.2079 H         1 UNK         0.0600 
    186 H186        3.1687  -10.7814  -40.8778 H         1 UNK         0.0600 
    187 H187        3.2828   -9.7926  -42.3289 H         1 UNK         0.0600 
    188 H188        1.7044  -10.2741  -41.7051 H         1 UNK         0.0600 
    189 H189        1.9691  -10.6542  -44.2273 H         1 UNK         0.3000 
    190 H190       -3.2923  -20.9074  -45.1567 H         1 UNK         0.3000 
    191 H191       -5.6105  -22.4544  -45.5947 H         1 UNK         0.0600 
    192 H192       -5.3307  -20.8509  -43.7090 H         1 UNK         0.0600 
    193 H193       -5.7942  -22.4405  -43.1190 H         1 UNK         0.0600 
    194 H194       -4.1270  -21.9038  -42.9694 H         1 UNK         0.0600 
    195 H195       -2.4248  -23.4273  -44.2279 H         1 UNK         0.3000 
    196 H196       -3.0470  -26.1586  -43.7777 H         1 UNK         0.0600 
    197 H197       -0.5645  -26.4175  -43.6510 H         1 UNK         0.0600 
    198 H198       -1.1074  -25.0121  -42.7463 H         1 UNK         0.0600 
    199 H199       -0.3514  -24.8057  -44.3245 H         1 UNK         0.0600 
    200 H200       -1.7543  -24.4955  -46.6633 H         1 UNK         0.3000 
    201 H201       -1.3990  -26.8929  -48.2370 H         1 UNK         0.0600 
    202 H202       -0.8464  -25.2706  -50.0132 H         1 UNK         0.0600 
    203 H203       -0.0531  -24.7987  -48.5269 H         1 UNK         0.0600 
    204 H204       -1.4998  -23.9426  -49.0620 H         1 UNK         0.0600 
    205 H205       -4.1978  -25.2260  -47.3508 H         1 UNK         0.3000 
    206 H206       -6.3136  -25.1679  -47.9239 H         1 UNK         0.0600 
    207 H207       -6.2389  -27.6209  -47.9962 H         1 UNK         0.0600 
    208 H208       -7.3480  -27.0251  -49.2185 H         1 UNK         0.0600 
    209 H209       -5.7571  -27.6069  -49.6868 H         1 UNK         0.0600 
    210 H210       -4.6109  -23.4234  -49.1273 H         1 UNK         0.3000 
    211 H211       -4.4121  -21.8179  -50.6235 H         1 UNK         0.0600 
    212 H212       -6.4377  -21.1651  -49.4421 H         1 UNK         0.0600 
    213 H213       -6.6056  -20.6748  -51.1176 H         1 UNK         0.0600 
    214 H214       -7.4603  -22.0996  -50.5239 H         1 UNK         0.0600 
    215 H215       -7.2343  -22.5311  -52.4837 H         1 UNK         0.3000 
    216 H216       -5.9475  -22.3808  -54.9778 H         1 UNK         0.0600 
    217 H217       -8.7183  -23.4679  -54.2397 H         1 UNK         0.0600 
    218 H218       -8.2033  -23.0166  -55.8610 H         1 UNK         0.0600 
    219 H219       -8.3247  -21.7884  -54.6120 H         1 UNK         0.0600 
    220 H220       -6.4336  -25.1885  -52.9149 H         1 UNK         0.3000 
    221 H221       -6.1498  -27.2470  -54.8857 H         1 UNK         0.0600 
    222 H222       -5.4056  -27.2610  -51.9187 H         1 UNK         0.0600 
    223 H223       -7.0159  -27.6083  -52.5510 H         1 UNK         0.0600 
    224 H224       -5.6704  -28.6782  -52.9246 H         1 UNK         0.0600 
    225 H225       -3.8319  -25.1075  -53.3301 H         1 UNK         0.3000 
    226 H226       -1.5034  -26.5321  -54.5500 H         1 UNK         0.0600 
    227 H227       -1.3902  -26.1915  -52.0926 H         1 UNK         0.0600 
    228 H228       -0.1803  -25.2136  -52.9059 H         1 UNK         0.0600 
    229 H229       -1.6515  -24.4581  -52.2978 H         1 UNK         0.0600 
    230 H230       -3.6902  -24.4160  -55.5342 H         1 UNK         0.3000 
    231 H231       -3.9116  -22.7369  -56.9222 H         1 UNK         0.0600 
    232 H232       -1.0300  -23.2445  -57.8235 H         1 UNK         0.0600 
    233 H233       -2.2875  -22.4225  -58.7351 H         1 UNK         0.0600 
    234 H234       -2.4410  -24.1365  -58.3922 H         1 UNK         0.0600 
    235 H235       -3.0045  -22.1117  -54.1959 H         1 UNK         0.3000 
    236 H236       -1.4878  -19.6023  -54.4369 H         1 UNK         0.0600 
    237 H237       -2.9296  -20.8059  -52.0181 H         1 UNK         0.0600 
    238 H238       -1.2585  -21.1582  -52.4435 H         1 UNK         0.0600 
    239 H239       -1.7281  -19.5281  -51.9990 H         1 UNK         0.0600 
    240 H240       -2.4676  -17.6220  -53.4389 H         1 UNK         0.3000 
    241 H241       -4.6999  -16.7902  -54.8937 H         1 UNK         0.0600 
    242 H242       -6.5120  -17.9811  -51.4445 H         1 UNK         0.3800 
    243 H243       -4.8480  -18.4001  -51.7634 H         1 UNK         0.3800 
    244 H244       -3.6065  -15.3097  -52.4554 H         1 UNK         0.0800 
    245 H245       -4.4785  -14.6502  -53.7877 H         1 UNK         0.0800 
    246 H246       -0.7773  -16.7342  -53.5228 H         1 UNK         0.0800 
    247 H247        0.0773  -15.2399  -53.7468 H         1 UNK         0.0800 
@<TRIPOS>BOND
     1    1    2 1    
     2    1  127 1    
     3    1  128 1    
     4    1  129 1    
     5    2    3 2    
     6    2    4 am   BACKBONE|DICT|INTERRES
     7    4    5 1    
     8    4  130 1    
     9    5    6 1    
    10    5   65 1    
    11    5  131 1    
    12    6    7 1    
    13    6  132 1    
    14    6  133 1    
    15    7    8 1    
    16    8    9 1    
    17    8  134 1    
    18    8  135 1    
    19    9   10 ar   
    20    9   14 ar   
    21   10   11 ar   
    22   10  136 1    
    23   11   12 ar   
    24   11  126 1    
    25   12   13 ar   
    26   12  137 1    
    27   13   14 ar   
    28   13   15 1    
    29   14  138 1    
    30   15   16 1    
    31   15  139 1    
    32   15  140 1    
    33   16   17 1    
    34   17   18 1    
    35   17  141 1    
    36   17  142 1    
    37   18   19 1    
    38   18   67 1    
    39   18  143 1    
    40   19   20 am   BACKBONE|DICT|INTERRES
    41   19  144 1    
    42   20   21 2    
    43   20   22 1    
    44   22   23 1    
    45   22   24 1    
    46   22  145 1    
    47   23  146 1    
    48   23  147 1    
    49   23  148 1    
    50   24   25 am   BACKBONE|DICT|INTERRES
    51   24  149 1    
    52   25   26 2    
    53   25   27 1    
    54   27   28 1    
    55   27   29 1    
    56   27  150 1    
    57   28  151 1    
    58   28  152 1    
    59   28  153 1    
    60   29   30 am   BACKBONE|DICT|INTERRES
    61   29  154 1    
    62   30   31 2    
    63   30   32 1    
    64   32   33 1    
    65   32   34 1    
    66   32  155 1    
    67   33  156 1    
    68   33  157 1    
    69   33  158 1    
    70   34   35 am   BACKBONE|DICT|INTERRES
    71   34  159 1    
    72   35   36 2    
    73   35   37 1    
    74   37   38 1    
    75   37   39 1    
    76   37  160 1    
    77   38  161 1    
    78   38  162 1    
    79   38  163 1    
    80   39   40 am   BACKBONE|DICT|INTERRES
    81   39  164 1    
    82   40   41 2    
    83   40   42 1    
    84   42   43 1    
    85   42   44 1    
    86   42  165 1    
    87   43  166 1    
    88   43  167 1    
    89   43  168 1    
    90   44   45 am   BACKBONE|DICT|INTERRES
    91   44  169 1    
    92   45   46 2    
    93   45   47 1    
    94   47   48 1    
    95   47   49 1    
    96   47  170 1    
    97   48  171 1    
    98   48  172 1    
    99   48  173 1    
   100   49   50 am   BACKBONE|DICT|INTERRES
   101   49  174 1    
   102   50   51 2    
   103   50   52 1    
   104   52   53 1    
   105   52   54 1    
   106   52  175 1    
   107   53  176 1    
   108   53  177 1    
   109   53  178 1    
   110   54   55 am   BACKBONE|DICT|INTERRES
   111   54  179 1    
   112   55   56 2    
   113   55   57 1    
   114   57   58 1    
   115   57   59 1    
   116   57  180 1    
   117   58  181 1    
   118   58  182 1    
   119   58  183 1    
   120   59   60 am   BACKBONE|DICT|INTERRES
   121   59  184 1    
   122   60   61 2    
   123   60   62 1    
   124   62   63 1    
   125   62   64 1    
   126   62  185 1    
   127   63  186 1    
   128   63  187 1    
   129   63  188 1    
   130   64   65 am   BACKBONE|DICT|INTERRES
   131   64  189 1    
   132   65   66 2    
   133   67   68 2    
   134   67   69 am   BACKBONE|DICT|INTERRES
   135   69   70 1    
   136   69  190 1    
   137   70   71 1    
   138   70   72 1    
   139   70  191 1    
   140   71  192 1    
   141   71  193 1    
   142   71  194 1    
   143   72   73 2    
   144   72   74 am   BACKBONE|DICT|INTERRES
   145   74   75 1    
   146   74  195 1    
   147   75   76 1    
   148   75   77 1    
   149   75  196 1    
   150   76  197 1    
   151   76  198 1    
   152   76  199 1    
   153   77   78 2    
   154   77   79 am   BACKBONE|DICT|INTERRES
   155   79   80 1    
   156   79  200 1    
   157   80   81 1    
   158   80   82 1    
   159   80  201 1    
   160   81  202 1    
   161   81  203 1    
   162   81  204 1    
   163   82   83 2    
   164   82   84 am   BACKBONE|DICT|INTERRES
   165   84   85 1    
   166   84  205 1    
   167   85   86 1    
   168   85   87 1    
   169   85  206 1    
   170   86  207 1    
   171   86  208 1    
   172   86  209 1    
   173   87   88 2    
   174   87   89 am   BACKBONE|DICT|INTERRES
   175   89   90 1    
   176   89  210 1    
   177   90   91 1    
   178   90   92 1    
   179   90  211 1    
   180   91  212 1    
   181   91  213 1    
   182   91  214 1    
   183   92   93 2    
   184   92   94 am   BACKBONE|DICT|INTERRES
   185   94   95 1    
   186   94  215 1    
   187   95   96 1    
   188   95   97 1    
   189   95  216 1    
   190   96  217 1    
   191   96  218 1    
   192   96  219 1    
   193   97   98 2    
   194   97   99 am   BACKBONE|DICT|INTERRES
   195   99  100 1    
   196   99  220 1    
   197  100  101 1    
   198  100  102 1    
   199  100  221 1    
   200  101  222 1    
   201  101  223 1    
   202  101  224 1    
   203  102  103 2    
   204  102  104 am   BACKBONE|DICT|INTERRES
   205  104  105 1    
   206  104  225 1    
   207  105  106 1    
   208  105  107 1    
   209  105  226 1    
   210  106  227 1    
   211  106  228 1    
   212  106  229 1    
   213  107  108 2    
   214  107  109 am   BACKBONE|DICT|INTERRES
   215  109  110 1    
   216  109  230 1    
   217  110  111 1    
   218  110  112 1    
   219  110  231 1    
   220  111  232 1    
   221  111  233 1    
   222  111  234 1    
   223  112  113 2    
   224  112  114 am   BACKBONE|DICT|INTERRES
   225  114  115 1    
   226  114  235 1    
   227  115  116 1    
   228  115  117 1    
   229  115  236 1    
   230  116  237 1    
   231  116  238 1    
   232  116  239 1    
   233  117  118 2    
   234  117  119 am   BACKBONE|DICT|INTERRES
   235  119  120 1    
   236  119  240 1    
   237  120  121 1    
   238  120  124 1    
   239  120  241 1    
   240  121  122 am   BACKBONE|DICT|INTERRES
   241  121  123 2    
   242  122  242 1    
   243  122  243 1    
   244  124  125 1    
   245  124  244 1    
   246  124  245 1    
   247  125  126 1    
   248  126  246 1    
   249  126  247 1    
@<TRIPOS>SUBSTRUCTURE
     1 UNK         1 GROUP             0       ****    0 ROOT    
