@<TRIPOS>MOLECULE
3R540
247   249    1
SMALL
USER_CHARGES


@<TRIPOS>ATOM
      1 CA         -0.3734   -8.1504  -50.1664 C.3       0 UNK        -0.1800 
      2 C          -1.7799   -8.7440  -50.0969 C.2       0 UNK         0.5000 
      3 O          -2.7510   -7.9903  -50.1232 O.2       0 UNK        -0.5000 
      4 N          -1.9520  -10.0717  -50.0238 N.am      1 UNK        -0.5000 
      5 CA         -0.9180  -11.1009  -49.8854 C.3       1 UNK         0.1400 
      6 C6         -1.5031  -12.5056  -50.1790 C.3       23 UNK        -0.0398 
      7 S7         -0.2428  -13.8238  -50.1902 S.3       23 UNK        -0.2404 
      8 C8         -1.2624  -15.2795  -50.5669 C.3       23 UNK        -0.0205 
      9 C9         -0.5133  -16.5641  -50.2442 C.ar      23 UNK        -0.0193 
     10 C10         0.4306  -17.0765  -51.1385 C.ar      23 UNK        -0.1150 
     11 C11         1.1364  -18.2448  -50.8335 C.ar      23 UNK        -0.0193 
     12 C12         0.9029  -18.8929  -49.6169 C.ar      23 UNK        -0.1150 
     13 C13        -0.0323  -18.3866  -48.7098 C.ar      23 UNK        -0.0193 
     14 C14        -0.7462  -17.2304  -49.0376 C.ar      23 UNK        -0.1150 
     15 C15        -0.2272  -19.0526  -47.3537 C.3       23 UNK        -0.0205 
     16 S16        -1.8408  -19.8809  -47.1824 S.3       23 UNK        -0.2404 
     17 C17        -1.6409  -21.3226  -48.2824 C.3       23 UNK        -0.0398 
     18 CA         -1.2611  -22.6522  -47.5822 C.3       11 UNK         0.1400 
     19 N          -0.0766  -22.5587  -46.7298 N.am      11 UNK        -0.5000 
     20 C           0.7734  -23.5764  -46.5366 C.2       10 UNK         0.5000 
     21 O           0.6760  -24.6689  -47.0963 O.2       10 UNK        -0.5000 
     22 CA          1.9074  -23.3465  -45.5257 C.3       10 UNK         0.1400 
     23 CB          3.0592  -22.5582  -46.1687 C.3       10 UNK        -0.1800 
     24 N           1.4515  -22.6652  -44.3137 N.am      10 UNK        -0.5000 
     25 C           0.6139  -23.2082  -43.4168 C.2       9 UNK         0.5000 
     26 O           0.0873  -24.3111  -43.5566 O.2       9 UNK        -0.5000 
     27 CA          0.2943  -22.3882  -42.1531 C.3       9 UNK         0.1400 
     28 CB          1.2821  -22.7354  -41.0296 C.3       9 UNK        -0.1800 
     29 N           0.3020  -20.9425  -42.3637 N.am      9 UNK        -0.5000 
     30 C          -0.5021  -20.2792  -43.2051 C.2       8 UNK         0.5000 
     31 O          -1.3441  -20.8195  -43.9219 O.2       8 UNK        -0.5000 
     32 CA         -0.2866  -18.7574  -43.2838 C.3       8 UNK         0.1400 
     33 CB         -1.0366  -18.0640  -42.1367 C.3       8 UNK        -0.1800 
     34 N           1.1201  -18.3411  -43.2461 N.am      8 UNK        -0.5000 
     35 C           2.1097  -18.8036  -44.0269 C.2       7 UNK         0.5000 
     36 O           1.9838  -19.7525  -44.8015 O.2       7 UNK        -0.5000 
     37 CA          3.4590  -18.0719  -43.9268 C.3       7 UNK         0.1400 
     38 CB          4.3114  -18.2259  -45.2009 C.3       7 UNK        -0.1800 
     39 N           3.2486  -16.6499  -43.6564 N.am      7 UNK        -0.5000 
     40 C           3.9933  -15.9031  -42.8341 C.2       6 UNK         0.5000 
     41 O           4.9307  -16.3499  -42.1716 O.2       6 UNK        -0.5000 
     42 CA          3.6577  -14.4027  -42.7328 C.3       6 UNK         0.1400 
     43 CB          4.5860  -13.5850  -43.6446 C.3       6 UNK        -0.1800 
     44 N           2.2677  -14.0572  -43.0409 N.am      6 UNK        -0.5000 
     45 C           1.2205  -14.3369  -42.2511 C.2       5 UNK         0.5000 
     46 O           1.2922  -15.0498  -41.2501 O.2       5 UNK        -0.5000 
     47 CA         -0.1296  -13.7132  -42.6411 C.3       5 UNK         0.1400 
     48 CB         -0.1289  -12.1990  -42.3758 C.3       5 UNK        -0.1800 
     49 N          -0.4110  -13.9551  -44.0522 N.am      5 UNK        -0.5000 
     50 C          -1.3439  -14.7987  -44.5131 C.2       4 UNK         0.5000 
     51 O          -2.1773  -15.3549  -43.7986 O.2       4 UNK        -0.5000 
     52 CA         -1.3514  -15.0905  -46.0276 C.3       4 UNK         0.1400 
     53 CB         -2.5190  -14.3648  -46.7119 C.3       4 UNK        -0.1800 
     54 N          -0.1026  -14.7417  -46.7105 N.am      4 UNK        -0.5000 
     55 C           1.0860  -15.3147  -46.4741 C.2       3 UNK         0.5000 
     56 O           1.2464  -16.2367  -45.6802 O.2       3 UNK        -0.5000 
     57 CA          2.3189  -14.7060  -47.1637 C.3       3 UNK         0.1400 
     58 CB          2.7072  -15.5097  -48.4127 C.3       3 UNK        -0.1800 
     59 N           2.1564  -13.2902  -47.5062 N.am      3 UNK        -0.5000 
     60 C           1.9875  -12.3011  -46.6145 C.2       2 UNK         0.5000 
     61 O           1.9231  -12.4853  -45.3978 O.2       2 UNK        -0.5000 
     62 CA          1.8182  -10.8808  -47.1809 C.3       2 UNK         0.1400 
     63 CB          3.1879  -10.2308  -47.4252 C.3       2 UNK        -0.1800 
     64 N           1.0463  -10.8752  -48.4255 N.am      2 UNK        -0.5000 
     65 C          -0.2832  -11.0310  -48.4797 C.2       1 UNK         0.5000 
     66 O          -1.0014  -11.1342  -47.4840 O.2       1 UNK        -0.5000 
     67 C          -2.4323  -23.3116  -46.8295 C.2       11 UNK         0.5000 
     68 O          -3.1210  -24.1414  -47.4246 O.2       11 UNK        -0.5000 
     69 N          -2.6212  -22.9941  -45.5376 N.am      12 UNK        -0.5000 
     70 CA         -3.6925  -23.5449  -44.6970 C.3       12 UNK         0.1400 
     71 CB         -3.6957  -22.8591  -43.3246 C.3       12 UNK        -0.1800 
     72 C          -3.6439  -25.0749  -44.5357 C.2       12 UNK         0.5000 
     73 O          -4.6969  -25.7129  -44.5484 O.2       12 UNK        -0.5000 
     74 N          -2.4340  -25.6406  -44.4223 N.am      13 UNK        -0.5000 
     75 CA         -2.2123  -27.0872  -44.3633 C.3       13 UNK         0.1400 
     76 CB         -0.7857  -27.3625  -43.8648 C.3       13 UNK        -0.1800 
     77 C          -2.4511  -27.7963  -45.7110 C.2       13 UNK         0.5000 
     78 O          -2.7278  -28.9965  -45.7153 O.2       13 UNK        -0.5000 
     79 N          -2.3266  -27.0572  -46.8213 N.am      14 UNK        -0.5000 
     80 CA         -2.5222  -27.5582  -48.1766 C.3       14 UNK         0.1400 
     81 CB         -1.6349  -26.7685  -49.1534 C.3       14 UNK        -0.1800 
     82 C          -4.0084  -27.5255  -48.5707 C.2       14 UNK         0.5000 
     83 O          -4.6142  -28.5892  -48.7098 O.2       14 UNK        -0.5000 
     84 N          -4.5702  -26.3206  -48.7470 N.am      15 UNK        -0.5000 
     85 CA         -5.9496  -26.1162  -49.2108 C.3       15 UNK         0.1400 
     86 CB         -6.0788  -26.4773  -50.7073 C.3       15 UNK        -0.1800 
     87 C          -6.4961  -24.7020  -48.9245 C.2       15 UNK         0.5000 
     88 O          -7.5180  -24.3263  -49.5026 O.2       15 UNK        -0.5000 
     89 N          -5.8228  -23.9318  -48.0568 N.am      16 UNK        -0.5000 
     90 CA         -6.1545  -22.5623  -47.6509 C.3       16 UNK         0.1400 
     91 CB         -7.4173  -22.5511  -46.7614 C.3       16 UNK        -0.1800 
     92 C          -6.2109  -21.6111  -48.8603 C.2       16 UNK         0.5000 
     93 O          -5.2080  -21.4854  -49.5634 O.2       16 UNK        -0.5000 
     94 N          -7.3698  -20.9886  -49.1099 N.am      17 UNK        -0.5000 
     95 CA         -7.6109  -20.0467  -50.2061 C.3       17 UNK         0.1400 
     96 CB         -9.0426  -19.5028  -50.0873 C.3       17 UNK        -0.1800 
     97 C          -7.3707  -20.6253  -51.6160 C.2       17 UNK         0.5000 
     98 O          -7.0632  -19.8611  -52.5304 O.2       17 UNK        -0.5000 
     99 N          -7.4988  -21.9512  -51.7685 N.am      18 UNK        -0.5000 
    100 CA        -7.2168  -22.6609  -53.0167 C.3       18 UNK         0.1400 
    101 CB        -8.0374  -23.9583  -53.0518 C.3       18 UNK        -0.1800 
    102 C         -5.7159  -22.9534  -53.2177 C.2       18 UNK         0.5000 
    103 O         -5.3001  -23.1685  -54.3569 O.2       18 UNK        -0.5000 
    104 N         -4.9329  -22.9635  -52.1295 N.am      19 UNK        -0.5000 
    105 CA        -3.4796  -23.1425  -52.1603 C.3       19 UNK         0.1400 
    106 CB        -3.0345  -23.9322  -50.9222 C.3       19 UNK        -0.1800 
    107 C         -2.7398  -21.7970  -52.2302 C.2       19 UNK         0.5000 
    108 O         -1.6809  -21.7246  -52.8530 O.2       19 UNK        -0.5000 
    109 N         -3.3078  -20.7660  -51.5904 N.am      20 UNK        -0.5000 
    110 CA        -2.8309  -19.3844  -51.5937 C.3       20 UNK         0.1400 
    111 CB        -3.7128  -18.5685  -50.6349 C.3       20 UNK        -0.1800 
    112 C         -2.8255  -18.7481  -52.9998 C.2       20 UNK         0.5000 
    113 O         -3.5220  -19.2206  -53.9012 O.2       20 UNK        -0.5000 
    114 N         -2.0453  -17.6661  -53.1370 N.am      21 UNK        -0.5000 
    115 CA        -1.7360  -16.9431  -54.3779 C.3       21 UNK         0.1400 
    116 CB        -2.9985  -16.3150  -55.0050 C.3       21 UNK        -0.1800 
    117 C         -0.9411  -17.8438  -55.3439 C.2       21 UNK         0.5000 
    118 O         -1.3825  -18.1251  -56.4592 O.2       21 UNK        -0.5000 
    119 N          0.2089  -18.3129  -54.8451 N.am      22 UNK        -0.5000 
    120 CA         1.0724  -19.3441  -55.4444 C.3       22 UNK         0.1400 
    121 C          1.7275  -18.9830  -56.8112 C.2       22 UNK         0.5000 
    122 N          1.7456  -17.7246  -57.2325 N.am      22 UNK        -0.7600 
    123 O          2.2324  -19.8647  -57.5010 O.2       22 UNK        -0.5000 
    124 C124        2.1597  -19.8264  -54.4441 C.3       23 UNK        -0.0398 
    125 S125        1.5132  -20.1848  -52.7695 S.3       23 UNK        -0.2404 
    126 C126        2.1744  -18.7885  -51.8022 C.3       23 UNK        -0.0205 
    127 H127        0.1009   -8.1676  -49.1854 H         1 UNK         0.0600 
    128 H128       -0.4181   -7.1115  -50.4936 H         1 UNK         0.0600 
    129 H129        0.2570   -8.6856  -50.8753 H         1 UNK         0.0600 
    130 H130       -2.8992  -10.4160  -49.9618 H         1 UNK         0.3000 
    131 H131       -0.1475  -10.9107  -50.6344 H         1 UNK         0.0600 
    132 H132       -2.2770  -12.7600  -49.4527 H         1 UNK         0.0800 
    133 H133       -1.9902  -12.5039  -51.1553 H         1 UNK         0.0800 
    134 H134       -2.1944  -15.2374  -50.0025 H         1 UNK         0.0800 
    135 H135       -1.5418  -15.2534  -51.6204 H         1 UNK         0.0800 
    136 H136        0.6321  -16.5497  -52.0606 H         1 UNK         0.1150 
    137 H137        1.4627  -19.7848  -49.3723 H         1 UNK         0.1150 
    138 H138       -1.4715  -16.8391  -48.3409 H         1 UNK         0.1150 
    139 H139        0.5731  -19.7665  -47.1561 H         1 UNK         0.0800 
    140 H140       -0.1448  -18.2939  -46.5765 H         1 UNK         0.0800 
    141 H141       -2.5702  -21.4439  -48.8401 H         1 UNK         0.0800 
    142 H142       -0.8899  -21.0895  -49.0374 H         1 UNK         0.0800 
    143 H143       -1.0244  -23.3379  -48.3990 H         1 UNK         0.0600 
    144 H144        0.0418  -21.7071  -46.1986 H         1 UNK         0.3000 
    145 H145        2.2933  -24.3246  -45.2306 H         1 UNK         0.0600 
    146 H146        3.8693  -22.3898  -45.4591 H         1 UNK         0.0600 
    147 H147        3.4761  -23.1038  -47.0160 H         1 UNK         0.0600 
    148 H148        2.7300  -21.5868  -46.5389 H         1 UNK         0.0600 
    149 H149        1.7711  -21.7118  -44.1818 H         1 UNK         0.3000 
    150 H150       -0.7055  -22.6690  -41.8199 H         1 UNK         0.0600 
    151 H151        1.2835  -23.8077  -40.8285 H         1 UNK         0.0600 
    152 H152        1.0157  -22.2328  -40.0996 H         1 UNK         0.0600 
    153 H153        2.3022  -22.4483  -41.2877 H         1 UNK         0.0600 
    154 H154        0.9783  -20.4109  -41.8361 H         1 UNK         0.3000 
    155 H155       -0.7036  -18.4082  -44.2300 H         1 UNK         0.0600 
    156 H156       -0.8990  -16.9838  -42.1669 H         1 UNK         0.0600 
    157 H157       -0.6935  -18.4111  -41.1613 H         1 UNK         0.0600 
    158 H158       -2.1082  -18.2579  -42.1985 H         1 UNK         0.0600 
    159 H159        1.3352  -17.5637  -42.6383 H         1 UNK         0.3000 
    160 H160        3.9929  -18.5366  -43.0957 H         1 UNK         0.0600 
    161 H161        3.7979  -17.8197  -46.0733 H         1 UNK         0.0600 
    162 H162        4.5302  -19.2747  -45.4052 H         1 UNK         0.0600 
    163 H163        5.2662  -17.7095  -45.1026 H         1 UNK         0.0600 
    164 H164        2.4843  -16.2272  -44.1762 H         1 UNK         0.3000 
    165 H165        3.8527  -14.1001  -41.7017 H         1 UNK         0.0600 
    166 H166        4.4390  -13.8322  -44.6958 H         1 UNK         0.0600 
    167 H167        4.4136  -12.5150  -43.5260 H         1 UNK         0.0600 
    168 H168        5.6338  -13.7730  -43.4070 H         1 UNK         0.0600 
    169 H169        2.1292  -13.4579  -43.8509 H         1 UNK         0.3000 
    170 H170       -0.8975  -14.1641  -42.0092 H         1 UNK         0.0600 
    171 H171        0.0976  -11.9857  -41.3304 H         1 UNK         0.0600 
    172 H172        0.6100  -11.6782  -42.9862 H         1 UNK         0.0600 
    173 H173       -1.1047  -11.7641  -42.5924 H         1 UNK         0.0600 
    174 H174        0.2309  -13.5372  -44.7146 H         1 UNK         0.3000 
    175 H175       -1.5039  -16.1657  -46.1363 H         1 UNK         0.0600 
    176 H176       -3.4702  -14.6325  -46.2502 H         1 UNK         0.0600 
    177 H177       -2.4148  -13.2820  -46.6418 H         1 UNK         0.0600 
    178 H178       -2.5879  -14.6299  -47.7653 H         1 UNK         0.0600 
    179 H179       -0.1430  -13.9795  -47.3709 H         1 UNK         0.3000 
    180 H180        3.1454  -14.7809  -46.4552 H         1 UNK         0.0600 
    181 H181        1.9514  -15.4386  -49.1923 H         1 UNK         0.0600 
    182 H182        2.8279  -16.5678  -48.1758 H         1 UNK         0.0600 
    183 H183        3.6518  -15.1603  -48.8291 H         1 UNK         0.0600 
    184 H184        2.1694  -13.0602  -48.4889 H         1 UNK         0.3000 
    185 H185        1.2889  -10.2846  -46.4342 H         1 UNK         0.0600 
    186 H186        3.0795   -9.2010  -47.7663 H         1 UNK         0.0600 
    187 H187        3.7773  -10.2079  -46.5074 H         1 UNK         0.0600 
    188 H188        3.7668  -10.7735  -48.1735 H         1 UNK         0.0600 
    189 H189        1.5731  -10.7890  -49.2830 H         1 UNK         0.3000 
    190 H190       -2.0335  -22.2865  -45.1062 H         1 UNK         0.3000 
    191 H191       -4.6416  -23.3096  -45.1782 H         1 UNK         0.0600 
    192 H192       -4.5051  -23.2379  -42.6992 H         1 UNK         0.0600 
    193 H193       -3.8387  -21.7828  -43.4213 H         1 UNK         0.0600 
    194 H194       -2.7621  -23.0304  -42.7911 H         1 UNK         0.0600 
    195 H195       -1.6082  -25.0523  -44.3637 H         1 UNK         0.3000 
    196 H196       -2.9110  -27.5126  -43.6398 H         1 UNK         0.0600 
    197 H197       -0.5960  -28.4339  -43.7889 H         1 UNK         0.0600 
    198 H198       -0.6243  -26.9342  -42.8754 H         1 UNK         0.0600 
    199 H199       -0.0378  -26.9425  -44.5389 H         1 UNK         0.0600 
    200 H200       -2.1504  -26.0665  -46.7261 H         1 UNK         0.3000 
    201 H201       -2.1968  -28.5998  -48.2235 H         1 UNK         0.0600 
    202 H202       -1.8310  -27.0578  -50.1866 H         1 UNK         0.0600 
    203 H203       -0.5794  -26.9580  -48.9574 H         1 UNK         0.0600 
    204 H204       -1.7903  -25.6946  -49.0735 H         1 UNK         0.0600 
    205 H205       -4.0140  -25.4929  -48.5606 H         1 UNK         0.3000 
    206 H206       -6.5909  -26.7945  -48.6446 H         1 UNK         0.0600 
    207 H207       -5.6770  -27.4654  -50.9285 H         1 UNK         0.0600 
    208 H208       -7.1254  -26.4945  -51.0113 H         1 UNK         0.0600 
    209 H209       -5.5634  -25.7581  -51.3431 H         1 UNK         0.0600 
    210 H210       -4.9472  -24.2765  -47.6772 H         1 UNK         0.3000 
    211 H211       -5.3222  -22.2019  -47.0473 H         1 UNK         0.0600 
    212 H212       -8.3018  -22.9040  -47.2929 H         1 UNK         0.0600 
    213 H213       -7.6279  -21.5489  -46.3860 H         1 UNK         0.0600 
    214 H214       -7.2813  -23.1937  -45.8914 H         1 UNK         0.0600 
    215 H215       -8.1529  -21.1776  -48.5016 H         1 UNK         0.3000 
    216 H216       -6.9190  -19.2127  -50.0761 H         1 UNK         0.0600 
    217 H217       -9.7830  -20.2989  -50.1750 H         1 UNK         0.0600 
    218 H218       -9.1976  -19.0023  -49.1313 H         1 UNK         0.0600 
    219 H219       -9.2506  -18.7732  -50.8712 H         1 UNK         0.0600 
    220 H220       -7.7441  -22.5183  -50.9659 H         1 UNK         0.3000 
    221 H221       -7.5409  -22.0435  -53.8573 H         1 UNK         0.0600 
    222 H222       -9.1063  -23.7486  -53.0115 H         1 UNK         0.0600 
    223 H223       -7.8501  -24.5177  -53.9693 H         1 UNK         0.0600 
    224 H224       -7.7941  -24.6093  -52.2141 H         1 UNK         0.0600 
    225 H225       -5.3362  -22.7113  -51.2358 H         1 UNK         0.3000 
    226 H226       -3.1933  -23.7207  -53.0414 H         1 UNK         0.0600 
    227 H227       -3.4010  -23.4793  -50.0022 H         1 UNK         0.0600 
    228 H228       -3.3974  -24.9575  -50.9640 H         1 UNK         0.0600 
    229 H229       -1.9467  -23.9796  -50.8577 H         1 UNK         0.0600 
    230 H230       -4.1498  -20.9433  -51.0527 H         1 UNK         0.3000 
    231 H231       -1.8068  -19.3892  -51.2145 H         1 UNK         0.0600 
    232 H232       -3.6869  -18.9810  -49.6261 H         1 UNK         0.0600 
    233 H233       -3.3780  -17.5335  -50.5690 H         1 UNK         0.0600 
    234 H234       -4.7513  -18.5547  -50.9665 H         1 UNK         0.0600 
    235 H235       -1.5209  -17.3739  -52.3249 H         1 UNK         0.3000 
    236 H236       -1.0732  -16.1214  -54.1021 H         1 UNK         0.0600 
    237 H237       -3.5241  -15.6872  -54.2856 H         1 UNK         0.0600 
    238 H238       -2.7339  -15.6849  -55.8548 H         1 UNK         0.0600 
    239 H239       -3.6988  -17.0675  -55.3676 H         1 UNK         0.0600 
    240 H240        0.4606  -18.0544  -53.9043 H         1 UNK         0.3000 
    241 H241        0.4201  -20.1959  -55.6465 H         1 UNK         0.0600 
    242 H242        1.3230  -16.9941  -56.6829 H         1 UNK         0.3800 
    243 H243        2.1697  -17.5034  -58.1199 H         1 UNK         0.3800 
    244 H244        2.6227  -20.7417  -54.8168 H         1 UNK         0.0800 
    245 H245        2.9689  -19.0976  -54.3756 H         1 UNK         0.0800 
    246 H246        3.0555  -19.1222  -51.2521 H         1 UNK         0.0800 
    247 H247        2.5150  -17.9873  -52.4590 H         1 UNK         0.0800 
@<TRIPOS>BOND
     1    1    2 1    
     2    1  127 1    
     3    1  128 1    
     4    1  129 1    
     5    2    3 2    
     6    2    4 am   BACKBONE|DICT|INTERRES
     7    4    5 1    
     8    4  130 1    
     9    5    6 1    
    10    5   65 1    
    11    5  131 1    
    12    6    7 1    
    13    6  132 1    
    14    6  133 1    
    15    7    8 1    
    16    8    9 1    
    17    8  134 1    
    18    8  135 1    
    19    9   10 ar   
    20    9   14 ar   
    21   10   11 ar   
    22   10  136 1    
    23   11   12 ar   
    24   11  126 1    
    25   12   13 ar   
    26   12  137 1    
    27   13   14 ar   
    28   13   15 1    
    29   14  138 1    
    30   15   16 1    
    31   15  139 1    
    32   15  140 1    
    33   16   17 1    
    34   17   18 1    
    35   17  141 1    
    36   17  142 1    
    37   18   19 1    
    38   18   67 1    
    39   18  143 1    
    40   19   20 am   BACKBONE|DICT|INTERRES
    41   19  144 1    
    42   20   21 2    
    43   20   22 1    
    44   22   23 1    
    45   22   24 1    
    46   22  145 1    
    47   23  146 1    
    48   23  147 1    
    49   23  148 1    
    50   24   25 am   BACKBONE|DICT|INTERRES
    51   24  149 1    
    52   25   26 2    
    53   25   27 1    
    54   27   28 1    
    55   27   29 1    
    56   27  150 1    
    57   28  151 1    
    58   28  152 1    
    59   28  153 1    
    60   29   30 am   BACKBONE|DICT|INTERRES
    61   29  154 1    
    62   30   31 2    
    63   30   32 1    
    64   32   33 1    
    65   32   34 1    
    66   32  155 1    
    67   33  156 1    
    68   33  157 1    
    69   33  158 1    
    70   34   35 am   BACKBONE|DICT|INTERRES
    71   34  159 1    
    72   35   36 2    
    73   35   37 1    
    74   37   38 1    
    75   37   39 1    
    76   37  160 1    
    77   38  161 1    
    78   38  162 1    
    79   38  163 1    
    80   39   40 am   BACKBONE|DICT|INTERRES
    81   39  164 1    
    82   40   41 2    
    83   40   42 1    
    84   42   43 1    
    85   42   44 1    
    86   42  165 1    
    87   43  166 1    
    88   43  167 1    
    89   43  168 1    
    90   44   45 am   BACKBONE|DICT|INTERRES
    91   44  169 1    
    92   45   46 2    
    93   45   47 1    
    94   47   48 1    
    95   47   49 1    
    96   47  170 1    
    97   48  171 1    
    98   48  172 1    
    99   48  173 1    
   100   49   50 am   BACKBONE|DICT|INTERRES
   101   49  174 1    
   102   50   51 2    
   103   50   52 1    
   104   52   53 1    
   105   52   54 1    
   106   52  175 1    
   107   53  176 1    
   108   53  177 1    
   109   53  178 1    
   110   54   55 am   BACKBONE|DICT|INTERRES
   111   54  179 1    
   112   55   56 2    
   113   55   57 1    
   114   57   58 1    
   115   57   59 1    
   116   57  180 1    
   117   58  181 1    
   118   58  182 1    
   119   58  183 1    
   120   59   60 am   BACKBONE|DICT|INTERRES
   121   59  184 1    
   122   60   61 2    
   123   60   62 1    
   124   62   63 1    
   125   62   64 1    
   126   62  185 1    
   127   63  186 1    
   128   63  187 1    
   129   63  188 1    
   130   64   65 am   BACKBONE|DICT|INTERRES
   131   64  189 1    
   132   65   66 2    
   133   67   68 2    
   134   67   69 am   BACKBONE|DICT|INTERRES
   135   69   70 1    
   136   69  190 1    
   137   70   71 1    
   138   70   72 1    
   139   70  191 1    
   140   71  192 1    
   141   71  193 1    
   142   71  194 1    
   143   72   73 2    
   144   72   74 am   BACKBONE|DICT|INTERRES
   145   74   75 1    
   146   74  195 1    
   147   75   76 1    
   148   75   77 1    
   149   75  196 1    
   150   76  197 1    
   151   76  198 1    
   152   76  199 1    
   153   77   78 2    
   154   77   79 am   BACKBONE|DICT|INTERRES
   155   79   80 1    
   156   79  200 1    
   157   80   81 1    
   158   80   82 1    
   159   80  201 1    
   160   81  202 1    
   161   81  203 1    
   162   81  204 1    
   163   82   83 2    
   164   82   84 am   BACKBONE|DICT|INTERRES
   165   84   85 1    
   166   84  205 1    
   167   85   86 1    
   168   85   87 1    
   169   85  206 1    
   170   86  207 1    
   171   86  208 1    
   172   86  209 1    
   173   87   88 2    
   174   87   89 am   BACKBONE|DICT|INTERRES
   175   89   90 1    
   176   89  210 1    
   177   90   91 1    
   178   90   92 1    
   179   90  211 1    
   180   91  212 1    
   181   91  213 1    
   182   91  214 1    
   183   92   93 2    
   184   92   94 am   BACKBONE|DICT|INTERRES
   185   94   95 1    
   186   94  215 1    
   187   95   96 1    
   188   95   97 1    
   189   95  216 1    
   190   96  217 1    
   191   96  218 1    
   192   96  219 1    
   193   97   98 2    
   194   97   99 am   BACKBONE|DICT|INTERRES
   195   99  100 1    
   196   99  220 1    
   197  100  101 1    
   198  100  102 1    
   199  100  221 1    
   200  101  222 1    
   201  101  223 1    
   202  101  224 1    
   203  102  103 2    
   204  102  104 am   BACKBONE|DICT|INTERRES
   205  104  105 1    
   206  104  225 1    
   207  105  106 1    
   208  105  107 1    
   209  105  226 1    
   210  106  227 1    
   211  106  228 1    
   212  106  229 1    
   213  107  108 2    
   214  107  109 am   BACKBONE|DICT|INTERRES
   215  109  110 1    
   216  109  230 1    
   217  110  111 1    
   218  110  112 1    
   219  110  231 1    
   220  111  232 1    
   221  111  233 1    
   222  111  234 1    
   223  112  113 2    
   224  112  114 am   BACKBONE|DICT|INTERRES
   225  114  115 1    
   226  114  235 1    
   227  115  116 1    
   228  115  117 1    
   229  115  236 1    
   230  116  237 1    
   231  116  238 1    
   232  116  239 1    
   233  117  118 2    
   234  117  119 am   BACKBONE|DICT|INTERRES
   235  119  120 1    
   236  119  240 1    
   237  120  121 1    
   238  120  124 1    
   239  120  241 1    
   240  121  122 am   BACKBONE|DICT|INTERRES
   241  121  123 2    
   242  122  242 1    
   243  122  243 1    
   244  124  125 1    
   245  124  244 1    
   246  124  245 1    
   247  125  126 1    
   248  126  246 1    
   249  126  247 1    
@<TRIPOS>SUBSTRUCTURE
     1 UNK         1 GROUP             0       ****    0 ROOT    
