@<TRIPOS>MOLECULE
3R540
247   249    1
SMALL
USER_CHARGES


@<TRIPOS>ATOM
      1 CA          0.9999  -10.8252  -45.9287 C.3       0 UNK        -0.1800 
      2 C           1.8674  -11.3924  -47.0437 C.2       0 UNK         0.5000 
      3 O           2.2307  -10.6657  -47.9684 O.2       0 UNK        -0.5000 
      4 N           2.2001  -12.6831  -46.9476 N.am      1 UNK        -0.5000 
      5 CA          3.0156  -13.4428  -47.9037 C.3       1 UNK         0.1400 
      6 C6          2.1972  -14.5740  -48.5822 C.3       23 UNK        -0.0398 
      7 S7          0.7902  -13.9147  -49.5465 S.3       23 UNK        -0.2404 
      8 C8          1.0039  -14.7203  -51.1644 C.3       23 UNK        -0.0205 
      9 C9          0.4664  -16.1422  -51.1459 C.ar      23 UNK        -0.0193 
     10 C10        -0.8991  -16.3764  -51.3354 C.ar      23 UNK        -0.1150 
     11 C11        -1.4087  -17.6775  -51.3005 C.ar      23 UNK        -0.0193 
     12 C12        -0.5416  -18.7463  -51.0604 C.ar      23 UNK        -0.1150 
     13 C13         0.8264  -18.5265  -50.8819 C.ar      23 UNK        -0.0193 
     14 C14         1.3271  -17.2225  -50.9356 C.ar      23 UNK        -0.1150 
     15 C15         1.7545  -19.7012  -50.6122 C.3       23 UNK        -0.0205 
     16 S16         2.6118  -19.5757  -49.0080 S.3       23 UNK        -0.2404 
     17 C17         1.2527  -19.2233  -47.8425 C.3       23 UNK        -0.0398 
     18 CA          0.5615  -20.4999  -47.3049 C.3       11 UNK         0.1400 
     19 N           0.2700  -20.3946  -45.8751 N.am      11 UNK        -0.5000 
     20 C          -0.0073  -21.4301  -45.0732 C.2       10 UNK         0.5000 
     21 O          -0.0102  -22.6022  -45.4477 O.2       10 UNK        -0.5000 
     22 CA         -0.3835  -21.0892  -43.6188 C.3       10 UNK         0.1400 
     23 CB          0.8696  -21.0357  -42.7325 C.3       10 UNK        -0.1800 
     24 N          -1.1147  -19.8236  -43.5110 N.am      10 UNK        -0.5000 
     25 C          -2.3592  -19.6386  -43.9731 C.2       9 UNK         0.5000 
     26 O          -3.0292  -20.5281  -44.4953 O.2       9 UNK        -0.5000 
     27 CA         -2.9298  -18.2113  -43.8973 C.3       9 UNK         0.1400 
     28 CB         -3.6481  -17.9768  -42.5605 C.3       9 UNK        -0.1800 
     29 N          -1.9318  -17.1583  -44.1106 N.am      9 UNK        -0.5000 
     30 C          -1.2526  -16.9815  -45.2569 C.2       8 UNK         0.5000 
     31 O          -1.3113  -17.7707  -46.2001 O.2       8 UNK        -0.5000 
     32 CA         -0.3503  -15.7435  -45.3900 C.3       8 UNK         0.1400 
     33 CB         -1.0084  -14.6879  -46.2936 C.3       8 UNK        -0.1800 
     34 N          -0.0231  -15.1555  -44.0939 N.am      8 UNK        -0.5000 
     35 C           1.0890  -14.4844  -43.7955 C.2       7 UNK         0.5000 
     36 O           1.9798  -14.2467  -44.6111 O.2       7 UNK        -0.5000 
     37 CA          1.2503  -14.0177  -42.3385 C.3       7 UNK         0.1400 
     38 CB          0.3285  -12.8238  -42.0308 C.3       7 UNK        -0.1800 
     39 N           1.0988  -15.0818  -41.3382 N.am      7 UNK        -0.5000 
     40 C           0.0217  -15.8213  -41.0247 C.2       6 UNK         0.5000 
     41 O          -1.0599  -15.7424  -41.6123 O.2       6 UNK        -0.5000 
     42 CA          0.1718  -16.8398  -39.8755 C.3       6 UNK         0.1400 
     43 CB          0.1067  -18.2779  -40.4103 C.3       6 UNK        -0.1800 
     44 N           1.4163  -16.6746  -39.1230 N.am      6 UNK        -0.5000 
     45 C           1.6208  -15.7441  -38.1797 C.2       5 UNK         0.5000 
     46 O           0.7490  -14.9654  -37.7924 O.2       5 UNK        -0.5000 
     47 CA          3.0378  -15.6510  -37.5761 C.3       5 UNK         0.1400 
     48 CB          3.0757  -16.3140  -36.1906 C.3       5 UNK        -0.1800 
     49 N           4.0848  -16.2455  -38.4131 N.am      5 UNK        -0.5000 
     50 C           4.4668  -15.7936  -39.6154 C.2       4 UNK         0.5000 
     51 O           3.9676  -14.8025  -40.1539 O.2       4 UNK        -0.5000 
     52 CA          5.5758  -16.5831  -40.3487 C.3       4 UNK         0.1400 
     53 CB          5.8378  -17.9894  -39.7631 C.3       4 UNK        -0.1800 
     54 N           5.3295  -16.6791  -41.7906 N.am      4 UNK        -0.5000 
     55 C           4.2439  -17.1764  -42.3992 C.2       3 UNK         0.5000 
     56 O           3.2768  -17.6458  -41.7966 O.2       3 UNK        -0.5000 
     57 CA          4.2456  -17.1156  -43.9407 C.3       3 UNK         0.1400 
     58 CB          2.9410  -17.6430  -44.5612 C.3       3 UNK        -0.1800 
     59 N           4.4861  -15.7564  -44.4320 N.am      3 UNK        -0.5000 
     60 C           5.6912  -15.1883  -44.5759 C.2       2 UNK         0.5000 
     61 O           6.7386  -15.7506  -44.2498 O.2       2 UNK        -0.5000 
     62 CA          5.7324  -13.7512  -45.1396 C.3       2 UNK         0.1400 
     63 CB          7.0766  -13.4123  -45.8174 C.3       2 UNK        -0.1800 
     64 N           4.6058  -13.4270  -46.0219 N.am      2 UNK        -0.5000 
     65 C           4.2875  -13.9796  -47.2051 C.2       1 UNK         0.5000 
     66 O           4.9488  -14.8690  -47.7419 O.2       1 UNK        -0.5000 
     67 C          -0.7182  -20.8330  -48.0958 C.2       11 UNK         0.5000 
     68 O          -0.6908  -21.7009  -48.9670 O.2       11 UNK        -0.5000 
     69 N          -1.8329  -20.1771  -47.7411 N.am      12 UNK        -0.5000 
     70 CA         -3.1609  -20.4544  -48.2872 C.3       12 UNK         0.1400 
     71 CB         -4.1583  -19.3979  -47.7931 C.3       12 UNK        -0.1800 
     72 C          -3.6478  -21.8758  -47.9549 C.2       12 UNK         0.5000 
     73 O          -4.2124  -22.5358  -48.8263 O.2       12 UNK        -0.5000 
     74 N          -3.3777  -22.3440  -46.7277 N.am      13 UNK        -0.5000 
     75 CA         -3.6320  -23.7160  -46.2855 C.3       13 UNK         0.1400 
     76 CB         -3.3937  -23.8318  -44.7733 C.3       13 UNK        -0.1800 
     77 C          -2.7935  -24.7535  -47.0551 C.2       13 UNK         0.5000 
     78 O          -3.3304  -25.7925  -47.4388 O.2       13 UNK        -0.5000 
     79 N          -1.5166  -24.4390  -47.3228 N.am      14 UNK        -0.5000 
     80 CA         -0.6249  -25.2435  -48.1665 C.3       14 UNK         0.1400 
     81 CB          0.8132  -24.7144  -48.0590 C.3       14 UNK        -0.1800 
     82 C          -1.0852  -25.3058  -49.6383 C.2       14 UNK         0.5000 
     83 O          -0.9028  -26.3346  -50.2891 O.2       14 UNK        -0.5000 
     84 N          -1.7322  -24.2324  -50.1124 N.am      15 UNK        -0.5000 
     85 CA         -2.4241  -24.1430  -51.4011 C.3       15 UNK         0.1400 
     86 CB         -2.4519  -22.6703  -51.8503 C.3       15 UNK        -0.1800 
     87 C          -3.8449  -24.7569  -51.3778 C.2       15 UNK         0.5000 
     88 O          -4.6073  -24.5352  -52.3193 O.2       15 UNK        -0.5000 
     89 N          -4.1870  -25.4993  -50.3122 N.am      16 UNK        -0.5000 
     90 CA         -5.4460  -26.2138  -50.0758 C.3       16 UNK         0.1400 
     91 CB         -5.6095  -27.3778  -51.0739 C.3       16 UNK        -0.1800 
     92 C          -6.6681  -25.2762  -50.0130 C.2       16 UNK         0.5000 
     93 O          -7.7102  -25.5725  -50.5984 O.2       16 UNK        -0.5000 
     94 N          -6.4979  -24.1542  -49.2991 N.am      17 UNK        -0.5000 
     95 CA         -7.4324  -23.0336  -49.1583 C.3       17 UNK         0.1400 
     96 CB         -8.7581  -23.4719  -48.5002 C.3       17 UNK        -0.1800 
     97 C          -7.6157  -22.2802  -50.4904 C.2       17 UNK         0.5000 
     98 O          -8.7378  -21.9184  -50.8485 O.2       17 UNK        -0.5000 
     99 N          -6.4895  -22.0663  -51.1892 N.am      18 UNK        -0.5000 
    100 CA        -6.3629  -21.4286  -52.5040 C.3       18 UNK         0.1400 
    101 CB        -6.7136  -19.9286  -52.4128 C.3       18 UNK        -0.1800 
    102 C         -7.1612  -22.1790  -53.5921 C.2       18 UNK         0.5000 
    103 O         -8.0172  -21.5947  -54.2614 O.2       18 UNK        -0.5000 
    104 N         -6.8893  -23.4842  -53.7223 N.am      19 UNK        -0.5000 
    105 CA        -7.5003  -24.3722  -54.7080 C.3       19 UNK         0.1400 
    106 CB        -7.3110  -25.8299  -54.2594 C.3       19 UNK        -0.1800 
    107 C         -6.8889  -24.1212  -56.0970 C.2       19 UNK         0.5000 
    108 O         -5.8393  -24.6845  -56.4152 O.2       19 UNK        -0.5000 
    109 N         -7.5307  -23.2377  -56.8737 N.am      20 UNK        -0.5000 
    110 CA        -7.1633  -22.7351  -58.2067 C.3       20 UNK         0.1400 
    111 CB        -7.0540  -23.8732  -59.2398 C.3       20 UNK        -0.1800 
    112 C         -5.9070  -21.8405  -58.2163 C.2       20 UNK         0.5000 
    113 O         -5.9271  -20.7767  -58.8371 O.2       20 UNK        -0.5000 
    114 N         -4.8525  -22.2633  -57.5109 N.am      21 UNK        -0.5000 
    115 CA        -3.6646  -21.4725  -57.2031 C.3       21 UNK         0.1400 
    116 CB        -2.6046  -22.3957  -56.5825 C.3       21 UNK        -0.1800 
    117 C         -4.0023  -20.3239  -56.2353 C.2       21 UNK         0.5000 
    118 O         -4.8655  -20.4944  -55.3741 O.2       21 UNK        -0.5000 
    119 N         -3.3116  -19.1908  -56.4061 N.am      22 UNK        -0.5000 
    120 CA        -3.3415  -17.9465  -55.6082 C.3       22 UNK         0.1400 
    121 C         -4.7104  -17.2298  -55.3817 C.2       22 UNK         0.5000 
    122 N         -5.8465  -17.8183  -55.7246 N.am      22 UNK        -0.7600 
    123 O         -4.7345  -16.0889  -54.9275 O.2       22 UNK        -0.5000 
    124 C124       -2.4788  -18.0327  -54.3189 C.3       23 UNK        -0.0398 
    125 S125       -3.1823  -19.0270  -52.9546 S.3       23 UNK        -0.2404 
    126 C126       -2.8926  -17.9308  -51.5295 C.3       23 UNK        -0.0205 
    127 H127        0.6840  -11.5990  -45.2289 H         1 UNK         0.0600 
    128 H128        0.1055  -10.3640  -46.3473 H         1 UNK         0.0600 
    129 H129        1.5498  -10.0656  -45.3732 H         1 UNK         0.0600 
    130 H130        1.9091  -13.2169  -46.1311 H         1 UNK         0.3000 
    131 H131        3.3795  -12.7805  -48.6915 H         1 UNK         0.0600 
    132 H132        2.8346  -15.1611  -49.2445 H         1 UNK         0.0800 
    133 H133        1.8106  -15.2708  -47.8375 H         1 UNK         0.0800 
    134 H134        0.4675  -14.1407  -51.9170 H         1 UNK         0.0800 
    135 H135        2.0538  -14.7015  -51.4609 H         1 UNK         0.0800 
    136 H136       -1.5641  -15.5415  -51.5067 H         1 UNK         0.1150 
    137 H137       -0.9362  -19.7523  -51.0238 H         1 UNK         0.1150 
    138 H138        2.3843  -17.0507  -50.7909 H         1 UNK         0.1150 
    139 H139        1.2070  -20.6444  -50.6451 H         1 UNK         0.0800 
    140 H140        2.4994  -19.7543  -51.4071 H         1 UNK         0.0800 
    141 H141        0.5437  -18.5055  -48.2581 H         1 UNK         0.0800 
    142 H142        1.7208  -18.6888  -47.0195 H         1 UNK         0.0800 
    143 H143        1.2449  -21.3438  -47.4242 H         1 UNK         0.0600 
    144 H144        0.1676  -19.4610  -45.5061 H         1 UNK         0.3000 
    145 H145       -1.0266  -21.8900  -43.2480 H         1 UNK         0.0600 
    146 H146        0.6018  -20.9303  -41.6813 H         1 UNK         0.0600 
    147 H147        1.4530  -21.9528  -42.8243 H         1 UNK         0.0600 
    148 H148        1.5217  -20.2036  -42.9992 H         1 UNK         0.0600 
    149 H149       -0.6276  -19.0399  -43.1043 H         1 UNK         0.3000 
    150 H150       -3.6723  -18.1206  -44.6926 H         1 UNK         0.0600 
    151 H151       -4.4079  -18.7398  -42.3856 H         1 UNK         0.0600 
    152 H152       -4.1518  -17.0101  -42.5498 H         1 UNK         0.0600 
    153 H153       -2.9584  -18.0010  -41.7177 H         1 UNK         0.0600 
    154 H154       -1.8189  -16.5060  -43.3449 H         1 UNK         0.3000 
    155 H155        0.5709  -16.0830  -45.8670 H         1 UNK         0.0600 
    156 H156       -1.9351  -14.3114  -45.8592 H         1 UNK         0.0600 
    157 H157       -1.2477  -15.1053  -47.2728 H         1 UNK         0.0600 
    158 H158       -0.3490  -13.8374  -46.4598 H         1 UNK         0.0600 
    159 H159       -0.6614  -15.3265  -43.3223 H         1 UNK         0.3000 
    160 H160        2.2794  -13.6688  -42.2378 H         1 UNK         0.0600 
    161 H161       -0.7265  -13.0867  -42.1136 H         1 UNK         0.0600 
    162 H162        0.5142  -12.0001  -42.7209 H         1 UNK         0.0600 
    163 H163        0.5002  -12.4466  -41.0226 H         1 UNK         0.0600 
    164 H164        1.9449  -15.2685  -40.8123 H         1 UNK         0.3000 
    165 H165       -0.6720  -16.6932  -39.1981 H         1 UNK         0.0600 
    166 H166        0.2165  -19.0047  -39.6054 H         1 UNK         0.0600 
    167 H167       -0.8506  -18.4749  -40.8903 H         1 UNK         0.0600 
    168 H168        0.8889  -18.4697  -41.1439 H         1 UNK         0.0600 
    169 H169        2.1919  -17.2582  -39.4050 H         1 UNK         0.3000 
    170 H170        3.2685  -14.5906  -37.4544 H         1 UNK         0.0600 
    171 H171        2.8719  -17.3839  -36.2511 H         1 UNK         0.0600 
    172 H172        4.0483  -16.1826  -35.7159 H         1 UNK         0.0600 
    173 H173        2.3303  -15.8751  -35.5259 H         1 UNK         0.0600 
    174 H174        4.5366  -17.0704  -38.0456 H         1 UNK         0.3000 
    175 H175        6.4894  -15.9987  -40.2332 H         1 UNK         0.0600 
    176 H176        6.6098  -18.5089  -40.3310 H         1 UNK         0.0600 
    177 H177        4.9425  -18.6123  -39.7804 H         1 UNK         0.0600 
    178 H178        6.1899  -17.9344  -38.7324 H         1 UNK         0.0600 
    179 H179        6.0509  -16.2935  -42.3903 H         1 UNK         0.3000 
    180 H180        5.0541  -17.7615  -44.2894 H         1 UNK         0.0600 
    181 H181        2.9193  -17.4419  -45.6310 H         1 UNK         0.0600 
    182 H182        2.0598  -17.1852  -44.1145 H         1 UNK         0.0600 
    183 H183        2.8546  -18.7211  -44.4245 H         1 UNK         0.0600 
    184 H184        3.6634  -15.2057  -44.6583 H         1 UNK         0.3000 
    185 H185        5.6309  -13.0947  -44.2744 H         1 UNK         0.0600 
    186 H186        7.9041  -13.4981  -45.1122 H         1 UNK         0.0600 
    187 H187        7.2898  -14.0805  -46.6521 H         1 UNK         0.0600 
    188 H188        7.0810  -12.3902  -46.1958 H         1 UNK         0.0600 
    189 H189        3.9748  -12.7201  -45.6714 H         1 UNK         0.3000 
    190 H190       -1.7634  -19.4329  -47.0527 H         1 UNK         0.3000 
    191 H191       -3.0931  -20.3776  -49.3736 H         1 UNK         0.0600 
    192 H192       -3.8265  -18.3915  -48.0492 H         1 UNK         0.0600 
    193 H193       -5.1380  -19.5455  -48.2495 H         1 UNK         0.0600 
    194 H194       -4.2895  -19.4417  -46.7119 H         1 UNK         0.0600 
    195 H195       -2.9865  -21.7096  -46.0376 H         1 UNK         0.3000 
    196 H196       -4.6846  -23.9348  -46.4771 H         1 UNK         0.0600 
    197 H197       -3.6117  -24.8404  -44.4202 H         1 UNK         0.0600 
    198 H198       -4.0370  -23.1478  -44.2195 H         1 UNK         0.0600 
    199 H199       -2.3607  -23.6081  -44.5087 H         1 UNK         0.0600 
    200 H200       -1.1268  -23.5898  -46.9293 H         1 UNK         0.3000 
    201 H201       -0.6357  -26.2638  -47.7777 H         1 UNK         0.0600 
    202 H202        1.1566  -24.7127  -47.0243 H         1 UNK         0.0600 
    203 H203        0.9035  -23.6990  -48.4429 H         1 UNK         0.0600 
    204 H204        1.5009  -25.3404  -48.6288 H         1 UNK         0.0600 
    205 H205       -1.7747  -23.4068  -49.5252 H         1 UNK         0.3000 
    206 H206       -1.8513  -24.7039  -52.1419 H         1 UNK         0.0600 
    207 H207       -1.4489  -22.2434  -51.8681 H         1 UNK         0.0600 
    208 H208       -2.8611  -22.5709  -52.8566 H         1 UNK         0.0600 
    209 H209       -3.0618  -22.0558  -51.1893 H         1 UNK         0.0600 
    210 H210       -3.5138  -25.5786  -49.5602 H         1 UNK         0.3000 
    211 H211       -5.3625  -26.6548  -49.0817 H         1 UNK         0.0600 
    212 H212       -5.7009  -27.0233  -52.0990 H         1 UNK         0.0600 
    213 H213       -6.4998  -27.9662  -50.8495 H         1 UNK         0.0600 
    214 H214       -4.7556  -28.0538  -51.0303 H         1 UNK         0.0600 
    215 H215       -5.5678  -23.9647  -48.9389 H         1 UNK         0.3000 
    216 H216       -6.9559  -22.3271  -48.4772 H         1 UNK         0.0600 
    217 H217       -9.3753  -22.6058  -48.2593 H         1 UNK         0.0600 
    218 H218       -8.5773  -24.0100  -47.5698 H         1 UNK         0.0600 
    219 H219       -9.3469  -24.1164  -49.1531 H         1 UNK         0.0600 
    220 H220       -5.6308  -22.4286  -50.7966 H         1 UNK         0.3000 
    221 H221       -5.3114  -21.5033  -52.7854 H         1 UNK         0.0600 
    222 H222       -7.7640  -19.7665  -52.1707 H         1 UNK         0.0600 
    223 H223       -6.1114  -19.4291  -51.6540 H         1 UNK         0.0600 
    224 H224       -6.5161  -19.4286  -53.3613 H         1 UNK         0.0600 
    225 H225       -6.1407  -23.8856  -53.1608 H         1 UNK         0.3000 
    226 H226       -8.5732  -24.1736  -54.7515 H         1 UNK         0.0600 
    227 H227       -7.7839  -26.0097  -53.2942 H         1 UNK         0.0600 
    228 H228       -7.7592  -26.5196  -54.9753 H         1 UNK         0.0600 
    229 H229       -6.2555  -26.0889  -54.1704 H         1 UNK         0.0600 
    230 H230       -8.3276  -22.7714  -56.4598 H         1 UNK         0.3000 
    231 H231       -7.9960  -22.1006  -58.5146 H         1 UNK         0.0600 
    232 H232       -6.2183  -24.5409  -59.0293 H         1 UNK         0.0600 
    233 H233       -6.9014  -23.4714  -60.2421 H         1 UNK         0.0600 
    234 H234       -7.9645  -24.4719  -59.2648 H         1 UNK         0.0600 
    235 H235       -4.9533  -23.1477  -57.0208 H         1 UNK         0.3000 
    236 H236       -3.2743  -21.0582  -58.1349 H         1 UNK         0.0600 
    237 H237       -2.3355  -23.2026  -57.2643 H         1 UNK         0.0600 
    238 H238       -1.6916  -21.8451  -56.3523 H         1 UNK         0.0600 
    239 H239       -2.9596  -22.8456  -55.6538 H         1 UNK         0.0600 
    240 H240       -2.6570  -19.1659  -57.1747 H         1 UNK         0.3000 
    241 H241       -2.8138  -17.2456  -56.2564 H         1 UNK         0.0600 
    242 H242       -5.8289  -18.8021  -55.9624 H         1 UNK         0.3800 
    243 H243       -6.7226  -17.3400  -55.5906 H         1 UNK         0.3800 
    244 H244       -1.4992  -18.4475  -54.5588 H         1 UNK         0.0800 
    245 H245       -2.2796  -17.0228  -53.9575 H         1 UNK         0.0800 
    246 H246       -3.4313  -16.9951  -51.6871 H         1 UNK         0.0800 
    247 H247       -3.3212  -18.3845  -50.6365 H         1 UNK         0.0800 
@<TRIPOS>BOND
     1    1    2 1    
     2    1  127 1    
     3    1  128 1    
     4    1  129 1    
     5    2    3 2    
     6    2    4 am   BACKBONE|DICT|INTERRES
     7    4    5 1    
     8    4  130 1    
     9    5    6 1    
    10    5   65 1    
    11    5  131 1    
    12    6    7 1    
    13    6  132 1    
    14    6  133 1    
    15    7    8 1    
    16    8    9 1    
    17    8  134 1    
    18    8  135 1    
    19    9   10 ar   
    20    9   14 ar   
    21   10   11 ar   
    22   10  136 1    
    23   11   12 ar   
    24   11  126 1    
    25   12   13 ar   
    26   12  137 1    
    27   13   14 ar   
    28   13   15 1    
    29   14  138 1    
    30   15   16 1    
    31   15  139 1    
    32   15  140 1    
    33   16   17 1    
    34   17   18 1    
    35   17  141 1    
    36   17  142 1    
    37   18   19 1    
    38   18   67 1    
    39   18  143 1    
    40   19   20 am   BACKBONE|DICT|INTERRES
    41   19  144 1    
    42   20   21 2    
    43   20   22 1    
    44   22   23 1    
    45   22   24 1    
    46   22  145 1    
    47   23  146 1    
    48   23  147 1    
    49   23  148 1    
    50   24   25 am   BACKBONE|DICT|INTERRES
    51   24  149 1    
    52   25   26 2    
    53   25   27 1    
    54   27   28 1    
    55   27   29 1    
    56   27  150 1    
    57   28  151 1    
    58   28  152 1    
    59   28  153 1    
    60   29   30 am   BACKBONE|DICT|INTERRES
    61   29  154 1    
    62   30   31 2    
    63   30   32 1    
    64   32   33 1    
    65   32   34 1    
    66   32  155 1    
    67   33  156 1    
    68   33  157 1    
    69   33  158 1    
    70   34   35 am   BACKBONE|DICT|INTERRES
    71   34  159 1    
    72   35   36 2    
    73   35   37 1    
    74   37   38 1    
    75   37   39 1    
    76   37  160 1    
    77   38  161 1    
    78   38  162 1    
    79   38  163 1    
    80   39   40 am   BACKBONE|DICT|INTERRES
    81   39  164 1    
    82   40   41 2    
    83   40   42 1    
    84   42   43 1    
    85   42   44 1    
    86   42  165 1    
    87   43  166 1    
    88   43  167 1    
    89   43  168 1    
    90   44   45 am   BACKBONE|DICT|INTERRES
    91   44  169 1    
    92   45   46 2    
    93   45   47 1    
    94   47   48 1    
    95   47   49 1    
    96   47  170 1    
    97   48  171 1    
    98   48  172 1    
    99   48  173 1    
   100   49   50 am   BACKBONE|DICT|INTERRES
   101   49  174 1    
   102   50   51 2    
   103   50   52 1    
   104   52   53 1    
   105   52   54 1    
   106   52  175 1    
   107   53  176 1    
   108   53  177 1    
   109   53  178 1    
   110   54   55 am   BACKBONE|DICT|INTERRES
   111   54  179 1    
   112   55   56 2    
   113   55   57 1    
   114   57   58 1    
   115   57   59 1    
   116   57  180 1    
   117   58  181 1    
   118   58  182 1    
   119   58  183 1    
   120   59   60 am   BACKBONE|DICT|INTERRES
   121   59  184 1    
   122   60   61 2    
   123   60   62 1    
   124   62   63 1    
   125   62   64 1    
   126   62  185 1    
   127   63  186 1    
   128   63  187 1    
   129   63  188 1    
   130   64   65 am   BACKBONE|DICT|INTERRES
   131   64  189 1    
   132   65   66 2    
   133   67   68 2    
   134   67   69 am   BACKBONE|DICT|INTERRES
   135   69   70 1    
   136   69  190 1    
   137   70   71 1    
   138   70   72 1    
   139   70  191 1    
   140   71  192 1    
   141   71  193 1    
   142   71  194 1    
   143   72   73 2    
   144   72   74 am   BACKBONE|DICT|INTERRES
   145   74   75 1    
   146   74  195 1    
   147   75   76 1    
   148   75   77 1    
   149   75  196 1    
   150   76  197 1    
   151   76  198 1    
   152   76  199 1    
   153   77   78 2    
   154   77   79 am   BACKBONE|DICT|INTERRES
   155   79   80 1    
   156   79  200 1    
   157   80   81 1    
   158   80   82 1    
   159   80  201 1    
   160   81  202 1    
   161   81  203 1    
   162   81  204 1    
   163   82   83 2    
   164   82   84 am   BACKBONE|DICT|INTERRES
   165   84   85 1    
   166   84  205 1    
   167   85   86 1    
   168   85   87 1    
   169   85  206 1    
   170   86  207 1    
   171   86  208 1    
   172   86  209 1    
   173   87   88 2    
   174   87   89 am   BACKBONE|DICT|INTERRES
   175   89   90 1    
   176   89  210 1    
   177   90   91 1    
   178   90   92 1    
   179   90  211 1    
   180   91  212 1    
   181   91  213 1    
   182   91  214 1    
   183   92   93 2    
   184   92   94 am   BACKBONE|DICT|INTERRES
   185   94   95 1    
   186   94  215 1    
   187   95   96 1    
   188   95   97 1    
   189   95  216 1    
   190   96  217 1    
   191   96  218 1    
   192   96  219 1    
   193   97   98 2    
   194   97   99 am   BACKBONE|DICT|INTERRES
   195   99  100 1    
   196   99  220 1    
   197  100  101 1    
   198  100  102 1    
   199  100  221 1    
   200  101  222 1    
   201  101  223 1    
   202  101  224 1    
   203  102  103 2    
   204  102  104 am   BACKBONE|DICT|INTERRES
   205  104  105 1    
   206  104  225 1    
   207  105  106 1    
   208  105  107 1    
   209  105  226 1    
   210  106  227 1    
   211  106  228 1    
   212  106  229 1    
   213  107  108 2    
   214  107  109 am   BACKBONE|DICT|INTERRES
   215  109  110 1    
   216  109  230 1    
   217  110  111 1    
   218  110  112 1    
   219  110  231 1    
   220  111  232 1    
   221  111  233 1    
   222  111  234 1    
   223  112  113 2    
   224  112  114 am   BACKBONE|DICT|INTERRES
   225  114  115 1    
   226  114  235 1    
   227  115  116 1    
   228  115  117 1    
   229  115  236 1    
   230  116  237 1    
   231  116  238 1    
   232  116  239 1    
   233  117  118 2    
   234  117  119 am   BACKBONE|DICT|INTERRES
   235  119  120 1    
   236  119  240 1    
   237  120  121 1    
   238  120  124 1    
   239  120  241 1    
   240  121  122 am   BACKBONE|DICT|INTERRES
   241  121  123 2    
   242  122  242 1    
   243  122  243 1    
   244  124  125 1    
   245  124  244 1    
   246  124  245 1    
   247  125  126 1    
   248  126  246 1    
   249  126  247 1    
@<TRIPOS>SUBSTRUCTURE
     1 UNK         1 GROUP             0       ****    0 ROOT    
