@<TRIPOS>MOLECULE
3R540
247   249    1
SMALL
USER_CHARGES


@<TRIPOS>ATOM
      1 CA         -5.2695  -16.6134  -48.9658 C.3       0 UNK        -0.1800 
      2 C          -4.3251  -15.5132  -48.5032 C.2       0 UNK         0.5000 
      3 O          -4.7465  -14.3672  -48.3459 O.2       0 UNK        -0.5000 
      4 N          -3.0454  -15.8542  -48.3118 N.am      1 UNK        -0.5000 
      5 CA         -1.9932  -14.9400  -47.8589 C.3       1 UNK         0.1400 
      6 C6         -0.6013  -15.5704  -48.0927 C.3       23 UNK        -0.0398 
      7 S7          0.7710  -14.3680  -48.0131 S.3       23 UNK        -0.2404 
      8 C8          1.1778  -14.1359  -49.7793 C.3       23 UNK        -0.0205 
      9 C9          1.5949  -15.4072  -50.5193 C.ar      23 UNK        -0.0193 
     10 C10         1.3416  -15.5101  -51.8892 C.ar      23 UNK        -0.1150 
     11 C11         1.6867  -16.6632  -52.6094 C.ar      23 UNK        -0.0193 
     12 C12         2.2975  -17.7232  -51.9284 C.ar      23 UNK        -0.1150 
     13 C13         2.5697  -17.6307  -50.5592 C.ar      23 UNK        -0.0193 
     14 C14         2.2309  -16.4673  -49.8675 C.ar      23 UNK        -0.1150 
     15 C15         3.2210  -18.7822  -49.8057 C.3       23 UNK        -0.0205 
     16 S16         2.0559  -20.1346  -49.4403 S.3       23 UNK        -0.2404 
     17 C17         0.5916  -19.2438  -48.8074 C.3       23 UNK        -0.0398 
     18 CA         -0.4752  -20.2256  -48.2611 C.3       11 UNK         0.1400 
     19 N          -0.0710  -20.7539  -46.9594 N.am      11 UNK        -0.5000 
     20 C           0.0772  -22.0386  -46.6199 C.2       10 UNK         0.5000 
     21 O          -0.1036  -22.9763  -47.3958 O.2       10 UNK        -0.5000 
     22 CA          0.4774  -22.3303  -45.1556 C.3       10 UNK         0.1400 
     23 CB          1.9625  -22.7157  -45.0775 C.3       10 UNK        -0.1800 
     24 N           0.2365  -21.2145  -44.2342 N.am      10 UNK        -0.5000 
     25 C          -0.9659  -20.7013  -43.9378 C.2       9 UNK         0.5000 
     26 O          -2.0245  -21.1571  -44.3698 O.2       9 UNK        -0.5000 
     27 CA         -0.9788  -19.4096  -43.0980 C.3       9 UNK         0.1400 
     28 CB         -0.8960  -19.7364  -41.6011 C.3       9 UNK        -0.1800 
     29 N           0.0919  -18.4762  -43.4662 N.am      9 UNK        -0.5000 
     30 C           0.2459  -17.9439  -44.6884 C.2       8 UNK         0.5000 
     31 O          -0.5011  -18.1862  -45.6314 O.2       8 UNK        -0.5000 
     32 CA          1.4579  -17.0339  -44.9244 C.3       8 UNK         0.1400 
     33 CB          1.1486  -15.5964  -44.5004 C.3       8 UNK        -0.1800 
     34 N           2.6319  -17.5242  -44.2092 N.am      8 UNK        -0.5000 
     35 C           3.4774  -18.4371  -44.7071 C.2       7 UNK         0.5000 
     36 O           3.3998  -18.8910  -45.8485 O.2       7 UNK        -0.5000 
     37 CA          4.5884  -18.9446  -43.7679 C.3       7 UNK         0.1400 
     38 CB          5.8507  -18.0817  -43.9162 C.3       7 UNK        -0.1800 
     39 N           4.1920  -18.9734  -42.3587 N.am      7 UNK        -0.5000 
     40 C           3.2295  -19.7549  -41.8495 C.2       6 UNK         0.5000 
     41 O           2.5724  -20.5559  -42.5148 O.2       6 UNK        -0.5000 
     42 CA          2.9161  -19.5727  -40.3515 C.3       6 UNK         0.1400 
     43 CB          3.8166  -20.4824  -39.5029 C.3       6 UNK        -0.1800 
     44 N           3.0316  -18.1919  -39.8663 N.am      6 UNK        -0.5000 
     45 C           2.3851  -17.1257  -40.3611 C.2       5 UNK         0.5000 
     46 O           1.6681  -17.1801  -41.3622 O.2       5 UNK        -0.5000 
     47 CA          2.5801  -15.7746  -39.6388 C.3       5 UNK         0.1400 
     48 CB          3.4395  -15.8613  -38.3609 C.3       5 UNK        -0.1800 
     49 N           3.1921  -14.8089  -40.5495 N.am      5 UNK        -0.5000 
     50 C           2.5246  -14.0058  -41.3866 C.2       4 UNK         0.5000 
     51 O           1.2947  -13.9071  -41.4114 O.2       4 UNK        -0.5000 
     52 CA          3.3776  -13.1778  -42.3645 C.3       4 UNK         0.1400 
     53 CB          4.5034  -14.0102  -43.0177 C.3       4 UNK        -0.1800 
     54 N           2.5116  -12.6257  -43.4020 N.am      4 UNK        -0.5000 
     55 C           2.7634  -11.5469  -44.1496 C.2       3 UNK         0.5000 
     56 O           3.7644  -10.8433  -44.0056 O.2       3 UNK        -0.5000 
     57 CA          1.7549  -11.2013  -45.2662 C.3       3 UNK         0.1400 
     58 CB          2.4227  -11.3298  -46.6456 C.3       3 UNK        -0.1800 
     59 N           0.5446  -12.0314  -45.2619 N.am      3 UNK        -0.5000 
     60 C          -0.5249  -11.8229  -44.4795 C.2       2 UNK         0.5000 
     61 O          -0.5708  -10.9349  -43.6276 O.2       2 UNK        -0.5000 
     62 CA         -1.7449  -12.7424  -44.6975 C.3       2 UNK         0.1400 
     63 CB         -3.0831  -12.0331  -44.4156 C.3       2 UNK        -0.1800 
     64 N          -1.7587  -13.2945  -46.0544 N.am      2 UNK        -0.5000 
     65 C          -2.1856  -14.5201  -46.3820 C.2       1 UNK         0.5000 
     66 O          -2.6652  -15.3121  -45.5691 O.2       1 UNK        -0.5000 
     67 C          -1.8824  -19.5888  -48.1643 C.2       11 UNK         0.5000 
     68 O          -2.2186  -18.7069  -48.9594 O.2       11 UNK        -0.5000 
     69 N          -2.6884  -20.0527  -47.2002 N.am      12 UNK        -0.5000 
     70 CA         -4.0709  -19.6399  -46.9747 C.3       12 UNK         0.1400 
     71 CB         -4.1257  -18.5625  -45.8831 C.3       12 UNK        -0.1800 
     72 C          -4.9416  -20.8478  -46.6063 C.2       12 UNK         0.5000 
     73 O          -6.0412  -20.9836  -47.1461 O.2       12 UNK        -0.5000 
     74 N          -4.4248  -21.7243  -45.7326 N.am      13 UNK        -0.5000 
     75 CA         -5.0493  -22.9809  -45.3177 C.3       13 UNK         0.1400 
     76 CB         -4.1319  -23.6796  -44.3029 C.3       13 UNK        -0.1800 
     77 C          -5.3477  -23.9211  -46.5004 C.2       13 UNK         0.5000 
     78 O          -4.5983  -23.9343  -47.4809 O.2       13 UNK        -0.5000 
     79 N          -6.4445  -24.6824  -46.3780 N.am      14 UNK        -0.5000 
     80 CA         -6.9748  -25.6217  -47.3740 C.3       14 UNK         0.1400 
     81 CB         -6.0429  -26.8442  -47.5151 C.3       14 UNK        -0.1800 
     82 C          -7.2856  -24.9437  -48.7258 C.2       14 UNK         0.5000 
     83 O          -6.9808  -25.5047  -49.7782 O.2       14 UNK        -0.5000 
     84 N          -7.8568  -23.7301  -48.6628 N.am      15 UNK        -0.5000 
     85 CA         -8.1649  -22.8416  -49.7901 C.3       15 UNK         0.1400 
     86 CB         -9.2899  -23.4354  -50.6644 C.3       15 UNK        -0.1800 
     87 C          -6.8997  -22.4841  -50.5957 C.2       15 UNK         0.5000 
     88 O          -6.8377  -22.7310  -51.8012 O.2       15 UNK        -0.5000 
     89 N          -5.8943  -21.9516  -49.8861 N.am      16 UNK        -0.5000 
     90 CA         -4.5556  -21.6096  -50.3764 C.3       16 UNK         0.1400 
     91 CB         -4.6201  -20.3918  -51.3213 C.3       16 UNK        -0.1800 
     92 C          -3.8345  -22.8278  -50.9882 C.2       16 UNK         0.5000 
     93 O          -3.3478  -22.7602  -52.1186 O.2       16 UNK        -0.5000 
     94 N          -3.8163  -23.9316  -50.2261 N.am      17 UNK        -0.5000 
     95 CA         -3.2531  -25.2383  -50.5764 C.3       17 UNK         0.1400 
     96 CB         -1.7126  -25.1567  -50.6215 C.3       17 UNK        -0.1800 
     97 C          -3.8690  -25.8155  -51.8688 C.2       17 UNK         0.5000 
     98 O          -3.1401  -26.1901  -52.7868 O.2       17 UNK        -0.5000 
     99 N          -5.2086  -25.8307  -51.9307 N.am      18 UNK        -0.5000 
    100 CA        -6.0383  -26.2029  -53.0823 C.3       18 UNK         0.1400 
    101 CB        -5.9326  -27.7156  -53.3663 C.3       18 UNK        -0.1800 
    102 C         -5.7510  -25.3262  -54.3208 C.2       18 UNK         0.5000 
    103 O         -5.6286  -25.8383  -55.4351 O.2       18 UNK        -0.5000 
    104 N         -5.6271  -24.0136  -54.0798 N.am      19 UNK        -0.5000 
    105 CA        -5.2968  -22.9462  -55.0273 C.3       19 UNK         0.1400 
    106 CB        -6.4287  -22.7666  -56.0602 C.3       19 UNK        -0.1800 
    107 C         -3.9025  -23.0760  -55.6816 C.2       19 UNK         0.5000 
    108 O         -3.6793  -22.5007  -56.7488 O.2       19 UNK        -0.5000 
    109 N         -2.9792  -23.8075  -55.0402 N.am      20 UNK        -0.5000 
    110 CA        -1.5758  -23.8903  -55.4499 C.3       20 UNK         0.1400 
    111 CB        -0.9363  -25.1595  -54.8693 C.3       20 UNK        -0.1800 
    112 C         -0.7816  -22.6435  -55.0210 C.2       20 UNK         0.5000 
    113 O          0.1467  -22.2454  -55.7267 O.2       20 UNK        -0.5000 
    114 N         -1.1651  -22.0486  -53.8847 N.am      21 UNK        -0.5000 
    115 CA        -0.6512  -20.7765  -53.3890 C.3       21 UNK         0.1400 
    116 CB        -0.5137  -20.8654  -51.8637 C.3       21 UNK        -0.1800 
    117 C         -1.5772  -19.6201  -53.8116 C.2       21 UNK         0.5000 
    118 O         -2.5488  -19.8346  -54.5412 O.2       21 UNK        -0.5000 
    119 N         -1.2517  -18.4047  -53.3577 N.am      22 UNK        -0.5000 
    120 CA        -1.9237  -17.1612  -53.7613 C.3       22 UNK         0.1400 
    121 C         -2.1845  -16.1665  -52.5952 C.2       22 UNK         0.5000 
    122 N         -2.1173  -16.5909  -51.3394 N.am      22 UNK        -0.7600 
    123 O         -2.4903  -14.9999  -52.8244 O.2       22 UNK        -0.5000 
    124 C124       -1.2761  -16.5453  -55.0346 C.3       23 UNK        -0.0398 
    125 S125        0.2762  -15.5934  -54.8407 S.3       23 UNK        -0.2404 
    126 C126        1.4729  -16.7781  -54.1234 C.3       23 UNK        -0.0205 
    127 H127       -5.9757  -16.2228  -49.6985 H         1 UNK         0.0600 
    128 H128       -5.8343  -17.0065  -48.1207 H         1 UNK         0.0600 
    129 H129       -4.7247  -17.4332  -49.4341 H         1 UNK         0.0600 
    130 H130       -2.7743  -16.8278  -48.4134 H         1 UNK         0.3000 
    131 H131       -2.0666  -14.0434  -48.4786 H         1 UNK         0.0600 
    132 H132       -0.4112  -16.3625  -47.3713 H         1 UNK         0.0800 
    133 H133       -0.5769  -16.0624  -49.0641 H         1 UNK         0.0800 
    134 H134        0.3121  -13.6878  -50.2699 H         1 UNK         0.0800 
    135 H135        1.9881  -13.4101  -49.8559 H         1 UNK         0.0800 
    136 H136        0.8758  -14.6734  -52.3882 H         1 UNK         0.1150 
    137 H137        2.5737  -18.6208  -52.4642 H         1 UNK         0.1150 
    138 H138        2.4504  -16.4006  -48.8117 H         1 UNK         0.1150 
    139 H139        4.0524  -19.1779  -50.3904 H         1 UNK         0.0800 
    140 H140        3.6507  -18.4306  -48.8659 H         1 UNK         0.0800 
    141 H141        0.1970  -18.6411  -49.6255 H         1 UNK         0.0800 
    142 H142        0.9033  -18.5392  -48.0350 H         1 UNK         0.0800 
    143 H143       -0.5845  -21.0451  -48.9734 H         1 UNK         0.0600 
    144 H144        0.0396  -20.0474  -46.2407 H         1 UNK         0.3000 
    145 H145       -0.1195  -23.1796  -44.8171 H         1 UNK         0.0600 
    146 H146        2.1852  -23.5597  -45.7316 H         1 UNK         0.0600 
    147 H147        2.6061  -21.8870  -45.3771 H         1 UNK         0.0600 
    148 H148        2.2419  -23.0067  -44.0647 H         1 UNK         0.0600 
    149 H149        1.0574  -20.8050  -43.7976 H         1 UNK         0.3000 
    150 H150       -1.9270  -18.9013  -43.2825 H         1 UNK         0.0600 
    151 H151       -1.7680  -20.3087  -41.2822 H         1 UNK         0.0600 
    152 H152       -0.8598  -18.8305  -40.9956 H         1 UNK         0.0600 
    153 H153       -0.0152  -20.3343  -41.3712 H         1 UNK         0.0600 
    154 H154        0.7242  -18.1863  -42.7264 H         1 UNK         0.3000 
    155 H155        1.6632  -17.0212  -45.9973 H         1 UNK         0.0600 
    156 H156        0.2656  -15.2222  -45.0147 H         1 UNK         0.0600 
    157 H157        1.9759  -14.9350  -44.7520 H         1 UNK         0.0600 
    158 H158        0.9537  -15.5285  -43.4316 H         1 UNK         0.0600 
    159 H159        2.7134  -17.2580  -43.2362 H         1 UNK         0.3000 
    160 H160        4.8323  -19.9657  -44.0689 H         1 UNK         0.0600 
    161 H161        5.6747  -17.0521  -43.6022 H         1 UNK         0.0600 
    162 H162        6.1858  -18.0555  -44.9539 H         1 UNK         0.0600 
    163 H163        6.6729  -18.4792  -43.3208 H         1 UNK         0.0600 
    164 H164        4.6752  -18.3434  -41.7358 H         1 UNK         0.3000 
    165 H165        1.8833  -19.8828  -40.1916 H         1 UNK         0.0600 
    166 H166        3.5344  -20.4472  -38.4505 H         1 UNK         0.0600 
    167 H167        3.7359  -21.5219  -39.8240 H         1 UNK         0.0600 
    168 H168        4.8661  -20.1955  -39.5797 H         1 UNK         0.0600 
    169 H169        3.6101  -18.0567  -39.0499 H         1 UNK         0.3000 
    170 H170        1.5872  -15.4271  -39.3460 H         1 UNK         0.0600 
    171 H171        3.0043  -16.5502  -37.6355 H         1 UNK         0.0600 
    172 H172        4.4587  -16.1886  -38.5709 H         1 UNK         0.0600 
    173 H173        3.5032  -14.8887  -37.8724 H         1 UNK         0.0600 
    174 H174        4.1998  -14.8297  -40.6050 H         1 UNK         0.3000 
    175 H175        3.8184  -12.3573  -41.7947 H         1 UNK         0.0600 
    176 H176        4.1101  -14.8943  -43.5203 H         1 UNK         0.0600 
    177 H177        5.0511  -13.4265  -43.7576 H         1 UNK         0.0600 
    178 H178        5.2344  -14.3454  -42.2817 H         1 UNK         0.0600 
    179 H179        1.6229  -13.0964  -43.5022 H         1 UNK         0.3000 
    180 H180        1.4656  -10.1573  -45.1286 H         1 UNK         0.0600 
    181 H181        2.7801  -12.3444  -46.8257 H         1 UNK         0.0600 
    182 H182        3.2809  -10.6619  -46.7300 H         1 UNK         0.0600 
    183 H183        1.7315  -11.0694  -47.4474 H         1 UNK         0.0600 
    184 H184        0.5314  -12.7993  -45.9181 H         1 UNK         0.3000 
    185 H185       -1.6314  -13.5562  -43.9781 H         1 UNK         0.0600 
    186 H186       -3.1247  -11.6583  -43.3922 H         1 UNK         0.0600 
    187 H187       -3.2345  -11.1858  -45.0852 H         1 UNK         0.0600 
    188 H188       -3.9247  -12.7144  -44.5421 H         1 UNK         0.0600 
    189 H189       -1.3921  -12.6902  -46.7774 H         1 UNK         0.3000 
    190 H190       -2.3244  -20.7570  -46.5725 H         1 UNK         0.3000 
    191 H191       -4.4808  -19.2255  -47.8967 H         1 UNK         0.0600 
    192 H192       -3.5029  -17.7102  -46.1480 H         1 UNK         0.0600 
    193 H193       -5.1430  -18.1960  -45.7430 H         1 UNK         0.0600 
    194 H194       -3.7737  -18.9410  -44.9235 H         1 UNK         0.0600 
    195 H195       -3.5330  -21.5165  -45.2890 H         1 UNK         0.3000 
    196 H196       -5.9907  -22.7306  -44.8247 H         1 UNK         0.0600 
    197 H197       -4.5683  -24.6172  -43.9561 H         1 UNK         0.0600 
    198 H198       -3.9662  -23.0547  -43.4251 H         1 UNK         0.0600 
    199 H199       -3.1579  -23.9100  -44.7373 H         1 UNK         0.0600 
    200 H200       -6.9922  -24.5979  -45.5327 H         1 UNK         0.3000 
    201 H201       -7.9304  -25.9792  -46.9880 H         1 UNK         0.0600 
    202 H202       -5.8660  -27.3173  -46.5493 H         1 UNK         0.0600 
    203 H203       -5.0751  -26.5715  -47.9357 H         1 UNK         0.0600 
    204 H204       -6.4823  -27.5987  -48.1688 H         1 UNK         0.0600 
    205 H205       -8.0337  -23.3445  -47.7459 H         1 UNK         0.3000 
    206 H206       -8.5353  -21.9084  -49.3631 H         1 UNK         0.0600 
    207 H207      -10.1777  -23.6516  -50.0704 H         1 UNK         0.0600 
    208 H208       -9.5847  -22.7345  -51.4462 H         1 UNK         0.0600 
    209 H209       -8.9824  -24.3591  -51.1557 H         1 UNK         0.0600 
    210 H210       -6.0455  -21.7947  -48.8932 H         1 UNK         0.3000 
    211 H211       -3.9709  -21.3196  -49.5045 H         1 UNK         0.0600 
    212 H212       -5.1350  -20.6261  -52.2534 H         1 UNK         0.0600 
    213 H213       -3.6219  -20.0409  -51.5794 H         1 UNK         0.0600 
    214 H214       -5.1401  -19.5573  -50.8514 H         1 UNK         0.0600 
    215 H215       -4.2340  -23.8819  -49.2983 H         1 UNK         0.3000 
    216 H216       -3.5265  -25.9210  -49.7712 H         1 UNK         0.0600 
    217 H217       -1.2735  -26.1387  -50.8006 H         1 UNK         0.0600 
    218 H218       -1.3116  -24.7888  -49.6767 H         1 UNK         0.0600 
    219 H219       -1.3630  -24.4920  -51.4120 H         1 UNK         0.0600 
    220 H220       -5.7358  -25.5278  -51.1132 H         1 UNK         0.3000 
    221 H221       -7.0690  -25.9927  -52.7927 H         1 UNK         0.0600 
    222 H222       -4.9354  -27.9966  -53.7063 H         1 UNK         0.0600 
    223 H223       -6.1604  -28.2996  -52.4747 H         1 UNK         0.0600 
    224 H224       -6.6388  -28.0171  -54.1406 H         1 UNK         0.0600 
    225 H225       -5.7933  -23.6911  -53.1298 H         1 UNK         0.3000 
    226 H226       -5.2526  -22.0338  -54.4309 H         1 UNK         0.0600 
    227 H227       -7.3954  -22.6554  -55.5690 H         1 UNK         0.0600 
    228 H228       -6.2703  -21.8728  -56.6647 H         1 UNK         0.0600 
    229 H229       -6.4929  -23.6150  -56.7420 H         1 UNK         0.0600 
    230 H230       -3.2299  -24.2518  -54.1654 H         1 UNK         0.3000 
    231 H231       -1.5304  -23.9617  -56.5386 H         1 UNK         0.0600 
    232 H232       -0.8908  -25.1251  -53.7805 H         1 UNK         0.0600 
    233 H233        0.0839  -25.2824  -55.2344 H         1 UNK         0.0600 
    234 H234       -1.4953  -26.0508  -55.1550 H         1 UNK         0.0600 
    235 H235       -1.9798  -22.4096  -53.3940 H         1 UNK         0.3000 
    236 H236        0.3375  -20.5818  -53.8093 H         1 UNK         0.0600 
    237 H237        0.0964  -21.7197  -51.5694 H         1 UNK         0.0600 
    238 H238       -0.0260  -19.9738  -51.4778 H         1 UNK         0.0600 
    239 H239       -1.4780  -20.9559  -51.3670 H         1 UNK         0.0600 
    240 H240       -0.4543  -18.2861  -52.7500 H         1 UNK         0.3000 
    241 H241       -2.9420  -17.4270  -54.0508 H         1 UNK         0.0600 
    242 H242       -2.3175  -15.9307  -50.6079 H         1 UNK         0.3800 
    243 H243       -1.9605  -17.5595  -51.1091 H         1 UNK         0.3800 
    244 H244       -1.1071  -17.3240  -55.7795 H         1 UNK         0.0800 
    245 H245       -1.9957  -15.8676  -55.4965 H         1 UNK         0.0800 
    246 H246        2.4368  -16.5979  -54.6008 H         1 UNK         0.0800 
    247 H247        1.1924  -17.7951  -54.3983 H         1 UNK         0.0800 
@<TRIPOS>BOND
     1    1    2 1    
     2    1  127 1    
     3    1  128 1    
     4    1  129 1    
     5    2    3 2    
     6    2    4 am   BACKBONE|DICT|INTERRES
     7    4    5 1    
     8    4  130 1    
     9    5    6 1    
    10    5   65 1    
    11    5  131 1    
    12    6    7 1    
    13    6  132 1    
    14    6  133 1    
    15    7    8 1    
    16    8    9 1    
    17    8  134 1    
    18    8  135 1    
    19    9   10 ar   
    20    9   14 ar   
    21   10   11 ar   
    22   10  136 1    
    23   11   12 ar   
    24   11  126 1    
    25   12   13 ar   
    26   12  137 1    
    27   13   14 ar   
    28   13   15 1    
    29   14  138 1    
    30   15   16 1    
    31   15  139 1    
    32   15  140 1    
    33   16   17 1    
    34   17   18 1    
    35   17  141 1    
    36   17  142 1    
    37   18   19 1    
    38   18   67 1    
    39   18  143 1    
    40   19   20 am   BACKBONE|DICT|INTERRES
    41   19  144 1    
    42   20   21 2    
    43   20   22 1    
    44   22   23 1    
    45   22   24 1    
    46   22  145 1    
    47   23  146 1    
    48   23  147 1    
    49   23  148 1    
    50   24   25 am   BACKBONE|DICT|INTERRES
    51   24  149 1    
    52   25   26 2    
    53   25   27 1    
    54   27   28 1    
    55   27   29 1    
    56   27  150 1    
    57   28  151 1    
    58   28  152 1    
    59   28  153 1    
    60   29   30 am   BACKBONE|DICT|INTERRES
    61   29  154 1    
    62   30   31 2    
    63   30   32 1    
    64   32   33 1    
    65   32   34 1    
    66   32  155 1    
    67   33  156 1    
    68   33  157 1    
    69   33  158 1    
    70   34   35 am   BACKBONE|DICT|INTERRES
    71   34  159 1    
    72   35   36 2    
    73   35   37 1    
    74   37   38 1    
    75   37   39 1    
    76   37  160 1    
    77   38  161 1    
    78   38  162 1    
    79   38  163 1    
    80   39   40 am   BACKBONE|DICT|INTERRES
    81   39  164 1    
    82   40   41 2    
    83   40   42 1    
    84   42   43 1    
    85   42   44 1    
    86   42  165 1    
    87   43  166 1    
    88   43  167 1    
    89   43  168 1    
    90   44   45 am   BACKBONE|DICT|INTERRES
    91   44  169 1    
    92   45   46 2    
    93   45   47 1    
    94   47   48 1    
    95   47   49 1    
    96   47  170 1    
    97   48  171 1    
    98   48  172 1    
    99   48  173 1    
   100   49   50 am   BACKBONE|DICT|INTERRES
   101   49  174 1    
   102   50   51 2    
   103   50   52 1    
   104   52   53 1    
   105   52   54 1    
   106   52  175 1    
   107   53  176 1    
   108   53  177 1    
   109   53  178 1    
   110   54   55 am   BACKBONE|DICT|INTERRES
   111   54  179 1    
   112   55   56 2    
   113   55   57 1    
   114   57   58 1    
   115   57   59 1    
   116   57  180 1    
   117   58  181 1    
   118   58  182 1    
   119   58  183 1    
   120   59   60 am   BACKBONE|DICT|INTERRES
   121   59  184 1    
   122   60   61 2    
   123   60   62 1    
   124   62   63 1    
   125   62   64 1    
   126   62  185 1    
   127   63  186 1    
   128   63  187 1    
   129   63  188 1    
   130   64   65 am   BACKBONE|DICT|INTERRES
   131   64  189 1    
   132   65   66 2    
   133   67   68 2    
   134   67   69 am   BACKBONE|DICT|INTERRES
   135   69   70 1    
   136   69  190 1    
   137   70   71 1    
   138   70   72 1    
   139   70  191 1    
   140   71  192 1    
   141   71  193 1    
   142   71  194 1    
   143   72   73 2    
   144   72   74 am   BACKBONE|DICT|INTERRES
   145   74   75 1    
   146   74  195 1    
   147   75   76 1    
   148   75   77 1    
   149   75  196 1    
   150   76  197 1    
   151   76  198 1    
   152   76  199 1    
   153   77   78 2    
   154   77   79 am   BACKBONE|DICT|INTERRES
   155   79   80 1    
   156   79  200 1    
   157   80   81 1    
   158   80   82 1    
   159   80  201 1    
   160   81  202 1    
   161   81  203 1    
   162   81  204 1    
   163   82   83 2    
   164   82   84 am   BACKBONE|DICT|INTERRES
   165   84   85 1    
   166   84  205 1    
   167   85   86 1    
   168   85   87 1    
   169   85  206 1    
   170   86  207 1    
   171   86  208 1    
   172   86  209 1    
   173   87   88 2    
   174   87   89 am   BACKBONE|DICT|INTERRES
   175   89   90 1    
   176   89  210 1    
   177   90   91 1    
   178   90   92 1    
   179   90  211 1    
   180   91  212 1    
   181   91  213 1    
   182   91  214 1    
   183   92   93 2    
   184   92   94 am   BACKBONE|DICT|INTERRES
   185   94   95 1    
   186   94  215 1    
   187   95   96 1    
   188   95   97 1    
   189   95  216 1    
   190   96  217 1    
   191   96  218 1    
   192   96  219 1    
   193   97   98 2    
   194   97   99 am   BACKBONE|DICT|INTERRES
   195   99  100 1    
   196   99  220 1    
   197  100  101 1    
   198  100  102 1    
   199  100  221 1    
   200  101  222 1    
   201  101  223 1    
   202  101  224 1    
   203  102  103 2    
   204  102  104 am   BACKBONE|DICT|INTERRES
   205  104  105 1    
   206  104  225 1    
   207  105  106 1    
   208  105  107 1    
   209  105  226 1    
   210  106  227 1    
   211  106  228 1    
   212  106  229 1    
   213  107  108 2    
   214  107  109 am   BACKBONE|DICT|INTERRES
   215  109  110 1    
   216  109  230 1    
   217  110  111 1    
   218  110  112 1    
   219  110  231 1    
   220  111  232 1    
   221  111  233 1    
   222  111  234 1    
   223  112  113 2    
   224  112  114 am   BACKBONE|DICT|INTERRES
   225  114  115 1    
   226  114  235 1    
   227  115  116 1    
   228  115  117 1    
   229  115  236 1    
   230  116  237 1    
   231  116  238 1    
   232  116  239 1    
   233  117  118 2    
   234  117  119 am   BACKBONE|DICT|INTERRES
   235  119  120 1    
   236  119  240 1    
   237  120  121 1    
   238  120  124 1    
   239  120  241 1    
   240  121  122 am   BACKBONE|DICT|INTERRES
   241  121  123 2    
   242  122  242 1    
   243  122  243 1    
   244  124  125 1    
   245  124  244 1    
   246  124  245 1    
   247  125  126 1    
   248  126  246 1    
   249  126  247 1    
@<TRIPOS>SUBSTRUCTURE
     1 UNK         1 GROUP             0       ****    0 ROOT    
