@<TRIPOS>MOLECULE
3R540
247   249    1
SMALL
USER_CHARGES


@<TRIPOS>ATOM
      1 CA         -1.1671  -13.9532  -47.9652 C.3       0 UNK        -0.1800 
      2 C           0.2011  -13.3851  -48.3044 C.2       0 UNK         0.5000 
      3 O           0.7081  -12.5183  -47.5911 O.2       0 UNK        -0.5000 
      4 N           0.8105  -13.8911  -49.3849 N.am      1 UNK        -0.5000 
      5 CA          2.0894  -13.4294  -49.9509 C.3       1 UNK         0.1400 
      6 C6          2.3951  -14.0657  -51.3315 C.3       23 UNK        -0.0398 
      7 S7          1.0165  -13.9280  -52.5244 S.3       23 UNK        -0.2404 
      8 C8          0.5639  -15.6743  -52.7854 C.3       23 UNK        -0.0205 
      9 C9         -0.0913  -16.2853  -51.5559 C.ar      23 UNK        -0.0193 
     10 C10        -1.4572  -16.1024  -51.3236 C.ar      23 UNK        -0.1150 
     11 C11        -2.0683  -16.6573  -50.1955 C.ar      23 UNK        -0.0193 
     12 C12        -1.2983  -17.3899  -49.2892 C.ar      23 UNK        -0.1150 
     13 C13         0.0691  -17.5745  -49.5074 C.ar      23 UNK        -0.0193 
     14 C14         0.6656  -17.0291  -50.6462 C.ar      23 UNK        -0.1150 
     15 C15         0.9037  -18.3320  -48.4921 C.3       23 UNK        -0.0205 
     16 S16         1.5103  -19.9153  -49.1363 S.3       23 UNK        -0.2404 
     17 C17         1.9429  -20.7319  -47.5552 C.3       23 UNK        -0.0398 
     18 CA          0.9743  -21.8198  -46.9889 C.3       11 UNK         0.1400 
     19 N           0.7742  -21.7048  -45.5404 N.am      11 UNK        -0.5000 
     20 C           0.3322  -22.7089  -44.7685 C.2       10 UNK         0.5000 
     21 O           0.0646  -23.8321  -45.1977 O.2       10 UNK        -0.5000 
     22 CA          0.1179  -22.4030  -43.2758 C.3       10 UNK         0.1400 
     23 CB          1.4580  -22.3500  -42.5271 C.3       10 UNK        -0.1800 
     24 N          -0.6278  -21.1649  -43.0503 N.am      10 UNK        -0.5000 
     25 C          -1.8924  -20.9611  -43.4474 C.2       9 UNK         0.5000 
     26 O          -2.5684  -21.8026  -44.0388 O.2       9 UNK        -0.5000 
     27 CA         -2.4944  -19.5719  -43.1712 C.3       9 UNK         0.1400 
     28 CB         -2.9542  -19.4575  -41.7103 C.3       9 UNK        -0.1800 
     29 N          -1.5725  -18.4809  -43.4863 N.am      9 UNK        -0.5000 
     30 C          -1.0834  -18.2345  -44.7100 C.2       8 UNK         0.5000 
     31 O          -1.3787  -18.8840  -45.7108 O.2       8 UNK        -0.5000 
     32 CA         -0.0398  -17.1131  -44.8269 C.3       8 UNK         0.1400 
     33 CB         -0.7054  -15.7306  -44.7687 C.3       8 UNK        -0.1800 
     34 N           0.9972  -17.2147  -43.8042 N.am      8 UNK        -0.5000 
     35 C           1.8232  -18.2583  -43.6425 C.2       7 UNK         0.5000 
     36 O           1.8387  -19.2447  -44.3787 O.2       7 UNK        -0.5000 
     37 CA          2.7526  -18.2123  -42.4190 C.3       7 UNK         0.1400 
     38 CB          3.9861  -17.3414  -42.6931 C.3       7 UNK        -0.1800 
     39 N           2.0607  -17.7179  -41.2303 N.am      7 UNK        -0.5000 
     40 C           1.1007  -18.3905  -40.5814 C.2       6 UNK         0.5000 
     41 O           0.7074  -19.5112  -40.9060 O.2       6 UNK        -0.5000 
     42 CA          0.4476  -17.6668  -39.3912 C.3       6 UNK         0.1400 
     43 CB          1.3229  -17.7845  -38.1344 C.3       6 UNK        -0.1800 
     44 N           0.1838  -16.2542  -39.6722 N.am      6 UNK        -0.5000 
     45 C          -0.7166  -15.8252  -40.5665 C.2       5 UNK         0.5000 
     46 O          -1.4127  -16.5746  -41.2513 O.2       5 UNK        -0.5000 
     47 CA         -0.8372  -14.3022  -40.7503 C.3       5 UNK         0.1400 
     48 CB         -1.7062  -13.6911  -39.6405 C.3       5 UNK        -0.1800 
     49 N           0.4459  -13.5936  -40.8109 N.am      5 UNK        -0.5000 
     50 C           1.4030  -13.8233  -41.7186 C.2       4 UNK         0.5000 
     51 O           1.3865  -14.7619  -42.5167 O.2       4 UNK        -0.5000 
     52 CA          2.5698  -12.8343  -41.7724 C.3       4 UNK         0.1400 
     53 CB          3.8350  -13.4214  -41.1263 C.3       4 UNK        -0.1800 
     54 N           2.8080  -12.5502  -43.1820 N.am      4 UNK        -0.5000 
     55 C           3.2511  -11.3961  -43.6889 C.2       3 UNK         0.5000 
     56 O           3.6086  -10.4451  -42.9912 O.2       3 UNK        -0.5000 
     57 CA          3.2554  -11.2656  -45.2293 C.3       3 UNK         0.1400 
     58 CB          4.3583  -10.3171  -45.7449 C.3       3 UNK        -0.1800 
     59 N           3.2850  -12.5431  -45.9544 N.am      3 UNK        -0.5000 
     60 C           4.2748  -13.4521  -45.9647 C.2       2 UNK         0.5000 
     61 O           5.2979  -13.3608  -45.2861 O.2       2 UNK        -0.5000 
     62 CA          4.1018  -14.6753  -46.8920 C.3       2 UNK         0.1400 
     63 CB          3.6651  -15.9027  -46.0797 C.3       2 UNK        -0.1800 
     64 N           3.1384  -14.4628  -47.9728 N.am      2 UNK        -0.5000 
     65 C           3.2965  -13.6179  -49.0023 C.2       1 UNK         0.5000 
     66 O           4.3338  -12.9876  -49.2108 O.2       1 UNK        -0.5000 
     67 C          -0.3708  -22.0044  -47.7296 C.2       11 UNK         0.5000 
     68 O          -0.4384  -22.8462  -48.6236 O.2       11 UNK        -0.5000 
     69 N          -1.4257  -21.2807  -47.3200 N.am      12 UNK        -0.5000 
     70 CA         -2.7785  -21.4259  -47.8663 C.3       12 UNK         0.1400 
     71 CB         -3.7093  -20.3574  -47.2757 C.3       12 UNK        -0.1800 
     72 C          -3.3643  -22.8312  -47.6403 C.2       12 UNK         0.5000 
     73 O          -3.9645  -23.3887  -48.5595 O.2       12 UNK        -0.5000 
     74 N          -3.1460  -23.3914  -46.4412 N.am      13 UNK        -0.5000 
     75 CA         -3.5261  -24.7567  -46.0809 C.3       13 UNK         0.1400 
     76 CB         -3.3420  -24.9694  -44.5710 C.3       13 UNK        -0.1800 
     77 C          -2.7519  -25.8158  -46.8849 C.2       13 UNK         0.5000 
     78 O          -3.3667  -26.7574  -47.3858 O.2       13 UNK        -0.5000 
     79 N          -1.4328  -25.6255  -47.0392 N.am      14 UNK        -0.5000 
     80 CA         -0.5616  -26.4767  -47.8576 C.3       14 UNK         0.1400 
     81 CB          0.9038  -26.0712  -47.6413 C.3       14 UNK        -0.1800 
     82 C          -0.9245  -26.4401  -49.3560 C.2       14 UNK         0.5000 
     83 O          -0.8684  -27.4712  -50.0262 O.2       14 UNK        -0.5000 
     84 N          -1.3379  -25.2610  -49.8360 N.am      15 UNK        -0.5000 
     85 CA         -1.8626  -25.0109  -51.1780 C.3       15 UNK         0.1400 
     86 CB         -1.7370  -23.5068  -51.4685 C.3       15 UNK        -0.1800 
     87 C          -3.3228  -25.4708  -51.3740 C.2       15 UNK         0.5000 
     88 O          -3.8598  -25.2914  -52.4705 O.2       15 UNK        -0.5000 
     89 N          -3.9564  -25.9985  -50.3136 N.am      16 UNK        -0.5000 
     90 CA         -5.3409  -26.4815  -50.2314 C.3       16 UNK         0.1400 
     91 CB         -5.5045  -27.7598  -51.0790 C.3       16 UNK        -0.1800 
     92 C          -6.3986  -25.4100  -50.5762 C.2       16 UNK         0.5000 
     93 O          -7.5054  -25.7559  -50.9930 O.2       16 UNK        -0.5000 
     94 N          -6.0225  -24.1296  -50.4304 N.am      17 UNK        -0.5000 
     95 CA         -6.7323  -22.9301  -50.8845 C.3       17 UNK         0.1400 
     96 CB         -7.9581  -22.6603  -49.9891 C.3       17 UNK        -0.1800 
     97 C          -7.0776  -22.9562  -52.3932 C.2       17 UNK         0.5000 
     98 O          -8.1079  -22.4062  -52.7923 O.2       17 UNK        -0.5000 
     99 N          -6.2223  -23.6042  -53.1980 N.am      18 UNK        -0.5000 
    100 CA        -6.4218  -23.8108  -54.6307 C.3       18 UNK         0.1400 
    101 CB        -6.8338  -25.2720  -54.8738 C.3       18 UNK        -0.1800 
    102 C         -5.1707  -23.4560  -55.4482 C.2       18 UNK         0.5000 
    103 O         -5.3071  -22.8598  -56.5171 O.2       18 UNK        -0.5000 
    104 N         -3.9797  -23.8329  -54.9590 N.am      19 UNK        -0.5000 
    105 CA        -2.7093  -23.6123  -55.6605 C.3       19 UNK         0.1400 
    106 CB        -1.7047  -24.6972  -55.2403 C.3       19 UNK        -0.1800 
    107 C         -2.1233  -22.2010  -55.4478 C.2       19 UNK         0.5000 
    108 O         -1.2467  -21.7930  -56.2114 O.2       19 UNK        -0.5000 
    109 N         -2.6066  -21.4854  -54.4254 N.am      20 UNK        -0.5000 
    110 CA        -2.2661  -20.0939  -54.1306 C.3       20 UNK         0.1400 
    111 CB        -2.2484  -19.9119  -52.6009 C.3       20 UNK        -0.1800 
    112 C         -3.2707  -19.1405  -54.8093 C.2       20 UNK         0.5000 
    113 O         -4.1946  -19.5922  -55.4911 O.2       20 UNK        -0.5000 
    114 N         -3.0827  -17.8269  -54.6134 N.am      21 UNK        -0.5000 
    115 CA        -4.0278  -16.7970  -55.0647 C.3       21 UNK         0.1400 
    116 CB        -3.3784  -15.4098  -54.9466 C.3       21 UNK        -0.1800 
    117 C         -5.3607  -16.8498  -54.2887 C.2       21 UNK         0.5000 
    118 O         -6.4178  -16.5927  -54.8658 O.2       21 UNK        -0.5000 
    119 N         -5.2776  -17.2161  -53.0052 N.am      22 UNK        -0.5000 
    120 CA        -6.4005  -17.6469  -52.1660 C.3       22 UNK         0.1400 
    121 C         -6.7486  -19.1370  -52.4361 C.2       22 UNK         0.5000 
    122 N         -8.0232  -19.5008  -52.4422 N.am      22 UNK        -0.7600 
    123 O         -5.8693  -19.9775  -52.6042 O.2       22 UNK        -0.5000 
    124 C124       -6.1140  -17.3935  -50.6606 C.3       23 UNK        -0.0398 
    125 S125       -4.4823  -18.0038  -50.0971 S.3       23 UNK        -0.2404 
    126 C126       -3.5525  -16.4462  -49.9438 C.3       23 UNK        -0.0205 
    127 H127       -1.5921  -13.4500  -47.0966 H         1 UNK         0.0600 
    128 H128       -1.0891  -15.0157  -47.7400 H         1 UNK         0.0600 
    129 H129       -1.8526  -13.8258  -48.8031 H         1 UNK         0.0600 
    130 H130        0.3376  -14.6027  -49.9268 H         1 UNK         0.3000 
    131 H131        1.9870  -12.3529  -50.1034 H         1 UNK         0.0600 
    132 H132        3.2589  -13.5731  -51.7816 H         1 UNK         0.0800 
    133 H133        2.6829  -15.1111  -51.2206 H         1 UNK         0.0800 
    134 H134        1.4483  -16.2445  -53.0743 H         1 UNK         0.0800 
    135 H135       -0.1227  -15.7344  -53.6312 H         1 UNK         0.0800 
    136 H136       -2.0406  -15.5163  -52.0171 H         1 UNK         0.1150 
    137 H137       -1.7660  -17.8097  -48.4095 H         1 UNK         0.1150 
    138 H138        1.7217  -17.1831  -50.8161 H         1 UNK         0.1150 
    139 H139        1.7463  -17.7179  -48.1727 H         1 UNK         0.0800 
    140 H140        0.3057  -18.5355  -47.6067 H         1 UNK         0.0800 
    141 H141        2.1115  -19.9512  -46.8147 H         1 UNK         0.0800 
    142 H142        2.9277  -21.1801  -47.6936 H         1 UNK         0.0800 
    143 H143        1.4966  -22.7678  -47.1371 H         1 UNK         0.0600 
    144 H144        0.9892  -20.8078  -45.1121 H         1 UNK         0.3000 
    145 H145       -0.4691  -23.2218  -42.8545 H         1 UNK         0.0600 
    146 H146        1.3046  -22.2299  -41.4545 H         1 UNK         0.0600 
    147 H147        2.0239  -23.2709  -42.6733 H         1 UNK         0.0600 
    148 H148        2.0807  -21.5236  -42.8695 H         1 UNK         0.0600 
    149 H149       -0.1493  -20.4319  -42.5373 H         1 UNK         0.3000 
    150 H150       -3.3713  -19.4590  -43.8118 H         1 UNK         0.0600 
    151 H151       -3.6453  -20.2611  -41.4532 H         1 UNK         0.0600 
    152 H152       -3.4718  -18.5145  -41.5340 H         1 UNK         0.0600 
    153 H153       -2.1135  -19.5110  -41.0177 H         1 UNK         0.0600 
    154 H154       -1.3036  -17.8759  -42.7157 H         1 UNK         0.3000 
    155 H155        0.4498  -17.2050  -45.7958 H         1 UNK         0.0600 
    156 H156       -1.5253  -15.6605  -45.4838 H         1 UNK         0.0600 
    157 H157        0.0066  -14.9398  -45.0057 H         1 UNK         0.0600 
    158 H158       -1.1186  -15.5238  -43.7820 H         1 UNK         0.0600 
    159 H159        1.0843  -16.4192  -43.1748 H         1 UNK         0.3000 
    160 H160        3.0932  -19.2300  -42.2166 H         1 UNK         0.0600 
    161 H161        3.7095  -16.3159  -42.9392 H         1 UNK         0.0600 
    162 H162        4.5614  -17.7401  -43.5292 H         1 UNK         0.0600 
    163 H163        4.6500  -17.3121  -41.8290 H         1 UNK         0.0600 
    164 H164        2.2833  -16.7810  -40.9293 H         1 UNK         0.3000 
    165 H165       -0.5069  -18.1574  -39.1881 H         1 UNK         0.0600 
    166 H166        0.8292  -17.3439  -37.2681 H         1 UNK         0.0600 
    167 H167        1.5235  -18.8299  -37.8960 H         1 UNK         0.0600 
    168 H168        2.2847  -17.2864  -38.2625 H         1 UNK         0.0600 
    169 H169        0.7211  -15.5714  -39.1584 H         1 UNK         0.3000 
    170 H170       -1.3442  -14.1327  -41.7024 H         1 UNK         0.0600 
    171 H171       -2.6745  -14.1903  -39.5826 H         1 UNK         0.0600 
    172 H172       -1.2324  -13.7790  -38.6621 H         1 UNK         0.0600 
    173 H173       -1.8988  -12.6344  -39.8269 H         1 UNK         0.0600 
    174 H174        0.5496  -12.8091  -40.1836 H         1 UNK         0.3000 
    175 H175        2.2845  -11.9178  -41.2514 H         1 UNK         0.0600 
    176 H176        4.1628  -14.3292  -41.6332 H         1 UNK         0.0600 
    177 H177        4.6585  -12.7080  -41.1581 H         1 UNK         0.0600 
    178 H178        3.6601  -13.6714  -40.0793 H         1 UNK         0.0600 
    179 H179        2.5011  -13.2801  -43.8116 H         1 UNK         0.3000 
    180 H180        2.2970  -10.8113  -45.4843 H         1 UNK         0.0600 
    181 H181        5.3536  -10.6611  -45.4624 H         1 UNK         0.0600 
    182 H182        4.2335   -9.3125  -45.3394 H         1 UNK         0.0600 
    183 H183        4.3282  -10.2321  -46.8313 H         1 UNK         0.0600 
    184 H184        2.4772  -12.7117  -46.5459 H         1 UNK         0.3000 
    185 H185        5.0737  -14.8879  -47.3421 H         1 UNK         0.0600 
    186 H186        4.4031  -16.1321  -45.3117 H         1 UNK         0.0600 
    187 H187        2.7094  -15.7363  -45.5818 H         1 UNK         0.0600 
    188 H188        3.5709  -16.7874  -46.7093 H         1 UNK         0.0600 
    189 H189        2.2482  -14.9291  -47.8850 H         1 UNK         0.3000 
    190 H190       -1.3045  -20.5764  -46.5970 H         1 UNK         0.3000 
    191 H191       -2.7183  -21.2588  -48.9437 H         1 UNK         0.0600 
    192 H192       -3.7836  -20.4413  -46.1913 H         1 UNK         0.0600 
    193 H193       -4.7165  -20.4479  -47.6845 H         1 UNK         0.0600 
    194 H194       -3.3566  -19.3539  -47.5103 H         1 UNK         0.0600 
    195 H195       -2.6894  -22.8421  -45.7189 H         1 UNK         0.3000 
    196 H196       -4.5868  -24.8775  -46.3109 H         1 UNK         0.0600 
    197 H197       -3.6269  -25.9814  -44.2808 H         1 UNK         0.0600 
    198 H198       -3.9630  -24.2801  -43.9988 H         1 UNK         0.0600 
    199 H199       -2.3068  -24.8180  -44.2642 H         1 UNK         0.0600 
    200 H200       -0.9909  -24.8458  -46.5611 H         1 UNK         0.3000 
    201 H201       -0.6835  -27.5054  -47.5125 H         1 UNK         0.0600 
    202 H202        1.1822  -26.1421  -46.5897 H         1 UNK         0.0600 
    203 H203        1.0907  -25.0486  -47.9688 H         1 UNK         0.0600 
    204 H204        1.5756  -26.7229  -48.2012 H         1 UNK         0.0600 
    205 H205       -1.2676  -24.4462  -49.2311 H         1 UNK         0.3000 
    206 H206       -1.2512  -25.5562  -51.8991 H         1 UNK         0.0600 
    207 H207       -0.6975  -23.1810  -51.4282 H         1 UNK         0.0600 
    208 H208       -2.1145  -23.2590  -52.4574 H         1 UNK         0.0600 
    209 H209       -2.3021  -22.9109  -50.7520 H         1 UNK         0.0600 
    210 H210       -3.4385  -26.0612  -49.4458 H         1 UNK         0.3000 
    211 H211       -5.5102  -26.7486  -49.1877 H         1 UNK         0.0600 
    212 H212       -5.4147  -27.5505  -52.1455 H         1 UNK         0.0600 
    213 H213       -6.4806  -28.2180  -50.9162 H         1 UNK         0.0600 
    214 H214       -4.7518  -28.5039  -50.8183 H         1 UNK         0.0600 
    215 H215       -5.1228  -23.9567  -49.9881 H         1 UNK         0.3000 
    216 H216       -6.0372  -22.1002  -50.7491 H         1 UNK         0.0600 
    217 H217       -8.4122  -21.6976  -50.2265 H         1 UNK         0.0600 
    218 H218       -7.6770  -22.6331  -48.9363 H         1 UNK         0.0600 
    219 H219       -8.7246  -23.4257  -50.1133 H         1 UNK         0.0600 
    220 H220       -5.4154  -24.0586  -52.7848 H         1 UNK         0.3000 
    221 H221       -7.2250  -23.1677  -54.9963 H         1 UNK         0.0600 
    222 H222       -6.0757  -25.9686  -54.5130 H         1 UNK         0.0600 
    223 H223       -7.7688  -25.5053  -54.3641 H         1 UNK         0.0600 
    224 H224       -6.9836  -25.4663  -55.9366 H         1 UNK         0.0600 
    225 H225       -3.9361  -24.3637  -54.0929 H         1 UNK         0.3000 
    226 H226       -2.8773  -23.7274  -56.7336 H         1 UNK         0.0600 
    227 H227       -2.0982  -25.6950  -55.4352 H         1 UNK         0.0600 
    228 H228       -0.7726  -24.6020  -55.7986 H         1 UNK         0.0600 
    229 H229       -1.4566  -24.6375  -54.1825 H         1 UNK         0.0600 
    230 H230       -3.3877  -21.8669  -53.9130 H         1 UNK         0.3000 
    231 H231       -1.2711  -19.8625  -54.5159 H         1 UNK         0.0600 
    232 H232       -1.5256  -20.5811  -52.1342 H         1 UNK         0.0600 
    233 H233       -3.2231  -20.1161  -52.1573 H         1 UNK         0.0600 
    234 H234       -1.9652  -18.8981  -52.3182 H         1 UNK         0.0600 
    235 H235       -2.2921  -17.5155  -54.0692 H         1 UNK         0.3000 
    236 H236       -4.2483  -16.9770  -56.1191 H         1 UNK         0.0600 
    237 H237       -4.0287  -14.6430  -55.3692 H         1 UNK         0.0600 
    238 H238       -3.1892  -15.1365  -53.9096 H         1 UNK         0.0600 
    239 H239       -2.4324  -15.3661  -55.4866 H         1 UNK         0.0600 
    240 H240       -4.3691  -17.4570  -52.6385 H         1 UNK         0.3000 
    241 H241       -7.2743  -17.0501  -52.4349 H         1 UNK         0.0600 
    242 H242       -8.2335  -20.4796  -52.6128 H         1 UNK         0.3800 
    243 H243       -8.7738  -18.8420  -52.3061 H         1 UNK         0.3800 
    244 H244       -6.1879  -16.3251  -50.4556 H         1 UNK         0.0800 
    245 H245       -6.8854  -17.8539  -50.0408 H         1 UNK         0.0800 
    246 H246       -3.7007  -16.0354  -48.9442 H         1 UNK         0.0800 
    247 H247       -3.9457  -15.7071  -50.6434 H         1 UNK         0.0800 
@<TRIPOS>BOND
     1    1    2 1    
     2    1  127 1    
     3    1  128 1    
     4    1  129 1    
     5    2    3 2    
     6    2    4 am   BACKBONE|DICT|INTERRES
     7    4    5 1    
     8    4  130 1    
     9    5    6 1    
    10    5   65 1    
    11    5  131 1    
    12    6    7 1    
    13    6  132 1    
    14    6  133 1    
    15    7    8 1    
    16    8    9 1    
    17    8  134 1    
    18    8  135 1    
    19    9   10 ar   
    20    9   14 ar   
    21   10   11 ar   
    22   10  136 1    
    23   11   12 ar   
    24   11  126 1    
    25   12   13 ar   
    26   12  137 1    
    27   13   14 ar   
    28   13   15 1    
    29   14  138 1    
    30   15   16 1    
    31   15  139 1    
    32   15  140 1    
    33   16   17 1    
    34   17   18 1    
    35   17  141 1    
    36   17  142 1    
    37   18   19 1    
    38   18   67 1    
    39   18  143 1    
    40   19   20 am   BACKBONE|DICT|INTERRES
    41   19  144 1    
    42   20   21 2    
    43   20   22 1    
    44   22   23 1    
    45   22   24 1    
    46   22  145 1    
    47   23  146 1    
    48   23  147 1    
    49   23  148 1    
    50   24   25 am   BACKBONE|DICT|INTERRES
    51   24  149 1    
    52   25   26 2    
    53   25   27 1    
    54   27   28 1    
    55   27   29 1    
    56   27  150 1    
    57   28  151 1    
    58   28  152 1    
    59   28  153 1    
    60   29   30 am   BACKBONE|DICT|INTERRES
    61   29  154 1    
    62   30   31 2    
    63   30   32 1    
    64   32   33 1    
    65   32   34 1    
    66   32  155 1    
    67   33  156 1    
    68   33  157 1    
    69   33  158 1    
    70   34   35 am   BACKBONE|DICT|INTERRES
    71   34  159 1    
    72   35   36 2    
    73   35   37 1    
    74   37   38 1    
    75   37   39 1    
    76   37  160 1    
    77   38  161 1    
    78   38  162 1    
    79   38  163 1    
    80   39   40 am   BACKBONE|DICT|INTERRES
    81   39  164 1    
    82   40   41 2    
    83   40   42 1    
    84   42   43 1    
    85   42   44 1    
    86   42  165 1    
    87   43  166 1    
    88   43  167 1    
    89   43  168 1    
    90   44   45 am   BACKBONE|DICT|INTERRES
    91   44  169 1    
    92   45   46 2    
    93   45   47 1    
    94   47   48 1    
    95   47   49 1    
    96   47  170 1    
    97   48  171 1    
    98   48  172 1    
    99   48  173 1    
   100   49   50 am   BACKBONE|DICT|INTERRES
   101   49  174 1    
   102   50   51 2    
   103   50   52 1    
   104   52   53 1    
   105   52   54 1    
   106   52  175 1    
   107   53  176 1    
   108   53  177 1    
   109   53  178 1    
   110   54   55 am   BACKBONE|DICT|INTERRES
   111   54  179 1    
   112   55   56 2    
   113   55   57 1    
   114   57   58 1    
   115   57   59 1    
   116   57  180 1    
   117   58  181 1    
   118   58  182 1    
   119   58  183 1    
   120   59   60 am   BACKBONE|DICT|INTERRES
   121   59  184 1    
   122   60   61 2    
   123   60   62 1    
   124   62   63 1    
   125   62   64 1    
   126   62  185 1    
   127   63  186 1    
   128   63  187 1    
   129   63  188 1    
   130   64   65 am   BACKBONE|DICT|INTERRES
   131   64  189 1    
   132   65   66 2    
   133   67   68 2    
   134   67   69 am   BACKBONE|DICT|INTERRES
   135   69   70 1    
   136   69  190 1    
   137   70   71 1    
   138   70   72 1    
   139   70  191 1    
   140   71  192 1    
   141   71  193 1    
   142   71  194 1    
   143   72   73 2    
   144   72   74 am   BACKBONE|DICT|INTERRES
   145   74   75 1    
   146   74  195 1    
   147   75   76 1    
   148   75   77 1    
   149   75  196 1    
   150   76  197 1    
   151   76  198 1    
   152   76  199 1    
   153   77   78 2    
   154   77   79 am   BACKBONE|DICT|INTERRES
   155   79   80 1    
   156   79  200 1    
   157   80   81 1    
   158   80   82 1    
   159   80  201 1    
   160   81  202 1    
   161   81  203 1    
   162   81  204 1    
   163   82   83 2    
   164   82   84 am   BACKBONE|DICT|INTERRES
   165   84   85 1    
   166   84  205 1    
   167   85   86 1    
   168   85   87 1    
   169   85  206 1    
   170   86  207 1    
   171   86  208 1    
   172   86  209 1    
   173   87   88 2    
   174   87   89 am   BACKBONE|DICT|INTERRES
   175   89   90 1    
   176   89  210 1    
   177   90   91 1    
   178   90   92 1    
   179   90  211 1    
   180   91  212 1    
   181   91  213 1    
   182   91  214 1    
   183   92   93 2    
   184   92   94 am   BACKBONE|DICT|INTERRES
   185   94   95 1    
   186   94  215 1    
   187   95   96 1    
   188   95   97 1    
   189   95  216 1    
   190   96  217 1    
   191   96  218 1    
   192   96  219 1    
   193   97   98 2    
   194   97   99 am   BACKBONE|DICT|INTERRES
   195   99  100 1    
   196   99  220 1    
   197  100  101 1    
   198  100  102 1    
   199  100  221 1    
   200  101  222 1    
   201  101  223 1    
   202  101  224 1    
   203  102  103 2    
   204  102  104 am   BACKBONE|DICT|INTERRES
   205  104  105 1    
   206  104  225 1    
   207  105  106 1    
   208  105  107 1    
   209  105  226 1    
   210  106  227 1    
   211  106  228 1    
   212  106  229 1    
   213  107  108 2    
   214  107  109 am   BACKBONE|DICT|INTERRES
   215  109  110 1    
   216  109  230 1    
   217  110  111 1    
   218  110  112 1    
   219  110  231 1    
   220  111  232 1    
   221  111  233 1    
   222  111  234 1    
   223  112  113 2    
   224  112  114 am   BACKBONE|DICT|INTERRES
   225  114  115 1    
   226  114  235 1    
   227  115  116 1    
   228  115  117 1    
   229  115  236 1    
   230  116  237 1    
   231  116  238 1    
   232  116  239 1    
   233  117  118 2    
   234  117  119 am   BACKBONE|DICT|INTERRES
   235  119  120 1    
   236  119  240 1    
   237  120  121 1    
   238  120  124 1    
   239  120  241 1    
   240  121  122 am   BACKBONE|DICT|INTERRES
   241  121  123 2    
   242  122  242 1    
   243  122  243 1    
   244  124  125 1    
   245  124  244 1    
   246  124  245 1    
   247  125  126 1    
   248  126  246 1    
   249  126  247 1    
@<TRIPOS>SUBSTRUCTURE
     1 UNK         1 GROUP             0       ****    0 ROOT    
