@<TRIPOS>MOLECULE
3R540
247   249    1
SMALL
USER_CHARGES


@<TRIPOS>ATOM
      1 CA          4.1006  -12.7386  -48.7478 C.3       0 UNK        -0.1800 
      2 C           3.5575  -14.0805  -49.2166 C.2       0 UNK         0.5000 
      3 O           4.3103  -15.0513  -49.2851 O.2       0 UNK        -0.5000 
      4 N           2.2533  -14.1380  -49.5201 N.am      1 UNK        -0.5000 
      5 CA          1.5146  -15.3061  -50.0258 C.3       1 UNK         0.1400 
      6 C6          0.0097  -14.9893  -50.1725 C.3       23 UNK        -0.0398 
      7 S7         -0.3797  -13.7310  -51.4368 S.3       23 UNK        -0.2404 
      8 C8         -2.0240  -13.1498  -50.8862 C.3       23 UNK        -0.0205 
      9 C9         -3.0110  -14.2985  -50.7250 C.ar      23 UNK        -0.0193 
     10 C10        -3.7617  -14.7589  -51.8112 C.ar      23 UNK        -0.1150 
     11 C11        -4.6008  -15.8717  -51.6772 C.ar      23 UNK        -0.0193 
     12 C12        -4.6586  -16.5375  -50.4459 C.ar      23 UNK        -0.1150 
     13 C13        -3.9168  -16.0820  -49.3543 C.ar      23 UNK        -0.0193 
     14 C14        -3.1313  -14.9380  -49.4896 C.ar      23 UNK        -0.1150 
     15 C15        -3.8942  -16.8535  -48.0459 C.3       23 UNK        -0.0205 
     16 S16        -2.3061  -17.7243  -47.8840 S.3       23 UNK        -0.2404 
     17 C17        -2.4307  -18.4342  -46.2105 C.3       23 UNK        -0.0398 
     18 CA         -1.5840  -19.7252  -46.0983 C.3       11 UNK         0.1400 
     19 N          -0.9776  -19.9156  -44.7749 N.am      11 UNK        -0.5000 
     20 C           0.0935  -20.7024  -44.5803 C.2       10 UNK         0.5000 
     21 O           0.6502  -21.3106  -45.4914 O.2       10 UNK        -0.5000 
     22 CA          0.6117  -20.8992  -43.1468 C.3       10 UNK         0.1400 
     23 CB          1.6997  -19.8761  -42.7980 C.3       10 UNK        -0.1800 
     24 N          -0.4329  -20.8761  -42.1278 N.am      10 UNK        -0.5000 
     25 C          -1.3768  -21.8177  -41.9970 C.2       9 UNK         0.5000 
     26 O          -1.5352  -22.7335  -42.8055 O.2       9 UNK        -0.5000 
     27 CA         -2.2922  -21.7172  -40.7671 C.3       9 UNK         0.1400 
     28 CB         -1.5707  -22.2486  -39.5188 C.3       9 UNK        -0.1800 
     29 N          -2.6941  -20.3315  -40.5340 N.am      9 UNK        -0.5000 
     30 C          -3.9325  -19.8541  -40.7148 C.2       8 UNK         0.5000 
     31 O          -4.9052  -20.5546  -40.9981 O.2       8 UNK        -0.5000 
     32 CA         -4.1196  -18.3275  -40.5809 C.3       8 UNK         0.1400 
     33 CB         -4.5551  -17.9638  -39.1534 C.3       8 UNK        -0.1800 
     34 N          -2.9295  -17.5455  -40.9290 N.am      8 UNK        -0.5000 
     35 C          -2.3093  -17.5723  -42.1165 C.2       7 UNK         0.5000 
     36 O          -2.6868  -18.2513  -43.0706 O.2       7 UNK        -0.5000 
     37 CA         -1.0109  -16.7587  -42.2532 C.3       7 UNK         0.1400 
     38 CB         -1.2982  -15.3743  -42.8502 C.3       7 UNK        -0.1800 
     39 N          -0.2265  -16.6032  -41.0244 N.am      7 UNK        -0.5000 
     40 C           0.2167  -17.5798  -40.2210 C.2       6 UNK         0.5000 
     41 O          -0.1282  -18.7587  -40.3316 O.2       6 UNK        -0.5000 
     42 CA          1.2323  -17.1662  -39.1336 C.3       6 UNK         0.1400 
     43 CB          1.7649  -18.3741  -38.3415 C.3       6 UNK        -0.1800 
     44 N           2.3746  -16.4336  -39.6905 N.am      6 UNK        -0.5000 
     45 C           2.3771  -15.1465  -40.0647 C.2       5 UNK         0.5000 
     46 O           1.3858  -14.4192  -39.9862 O.2       5 UNK        -0.5000 
     47 CA          3.6910  -14.5736  -40.6325 C.3       5 UNK         0.1400 
     48 CB          4.4484  -13.7977  -39.5439 C.3       5 UNK        -0.1800 
     49 N           4.5863  -15.5830  -41.2063 N.am      5 UNK        -0.5000 
     50 C           4.3626  -16.2341  -42.3550 C.2       4 UNK         0.5000 
     51 O           3.3433  -16.0912  -43.0342 O.2       4 UNK        -0.5000 
     52 CA          5.4564  -17.2246  -42.7938 C.3       4 UNK         0.1400 
     53 CB          5.3147  -18.5562  -42.0410 C.3       4 UNK        -0.1800 
     54 N           5.3762  -17.4839  -44.2292 N.am      4 UNK        -0.5000 
     55 C           5.9597  -16.7487  -45.1817 C.2       3 UNK         0.5000 
     56 O           6.7284  -15.8151  -44.9470 O.2       3 UNK        -0.5000 
     57 CA          5.6175  -17.0978  -46.6451 C.3       3 UNK         0.1400 
     58 CB          6.2432  -18.4389  -47.0758 C.3       3 UNK        -0.1800 
     59 N           4.1802  -17.0443  -46.9409 N.am      3 UNK        -0.5000 
     60 C           3.1935  -17.8221  -46.4689 C.2       2 UNK         0.5000 
     61 O           3.3824  -18.8015  -45.7478 O.2       2 UNK        -0.5000 
     62 CA          1.7471  -17.4241  -46.8185 C.3       2 UNK         0.1400 
     63 CB          1.0155  -16.9354  -45.5610 C.3       2 UNK        -0.1800 
     64 N           1.6654  -16.3655  -47.8226 N.am      2 UNK        -0.5000 
     65 C           1.6594  -16.5672  -49.1456 C.2       1 UNK         0.5000 
     66 O           1.7445  -17.6761  -49.6739 O.2       1 UNK        -0.5000 
     67 C          -2.3664  -20.9712  -46.5590 C.2       11 UNK         0.5000 
     68 O          -2.4071  -21.2491  -47.7575 O.2       11 UNK        -0.5000 
     69 N          -2.9294  -21.7292  -45.6061 N.am      12 UNK        -0.5000 
     70 CA         -3.5581  -23.0242  -45.8658 C.3       12 UNK         0.1400 
     71 CB         -4.3953  -23.4587  -44.6534 C.3       12 UNK        -0.1800 
     72 C          -2.5102  -24.0876  -46.2389 C.2       12 UNK         0.5000 
     73 O          -2.7192  -24.8308  -47.1975 O.2       12 UNK        -0.5000 
     74 N          -1.3746  -24.0948  -45.5237 N.am      13 UNK        -0.5000 
     75 CA         -0.2106  -24.9366  -45.8184 C.3       13 UNK         0.1400 
     76 CB          0.8130  -24.8148  -44.6799 C.3       13 UNK        -0.1800 
     77 C           0.4370  -24.6095  -47.1803 C.2       13 UNK         0.5000 
     78 O           0.8413  -25.5249  -47.8972 O.2       13 UNK        -0.5000 
     79 N           0.4757  -23.3168  -47.5324 N.am      14 UNK        -0.5000 
     80 CA          0.9207  -22.7979  -48.8286 C.3       14 UNK         0.1400 
     81 CB          1.2979  -21.3143  -48.6740 C.3       14 UNK        -0.1800 
     82 C          -0.1146  -22.9732  -49.9603 C.2       14 UNK         0.5000 
     83 O           0.1724  -22.5754  -51.0883 O.2       14 UNK        -0.5000 
     84 N          -1.2928  -23.5387  -49.6560 N.am      15 UNK        -0.5000 
     85 CA         -2.4064  -23.8193  -50.5668 C.3       15 UNK         0.1400 
     86 CB         -2.0260  -24.9333  -51.5644 C.3       15 UNK        -0.1800 
     87 C          -2.9628  -22.5564  -51.2551 C.2       15 UNK         0.5000 
     88 O          -3.2316  -22.5790  -52.4585 O.2       15 UNK        -0.5000 
     89 N          -3.1254  -21.4805  -50.4686 N.am      16 UNK        -0.5000 
     90 CA         -3.6650  -20.1726  -50.8500 C.3       16 UNK         0.1400 
     91 CB         -5.1604  -20.2978  -51.1982 C.3       16 UNK        -0.1800 
     92 C          -2.8450  -19.5335  -51.9837 C.2       16 UNK         0.5000 
     93 O          -3.3168  -19.4539  -53.1190 O.2       16 UNK        -0.5000 
     94 N          -1.5968  -19.1626  -51.6624 N.am      17 UNK        -0.5000 
     95 CA         -0.5907  -18.6073  -52.5803 C.3       17 UNK         0.1400 
     96 CB         -1.0571  -17.2403  -53.1282 C.3       17 UNK        -0.1800 
     97 C          -0.2047  -19.5847  -53.7154 C.2       17 UNK         0.5000 
     98 O           0.1572  -19.1457  -54.8082 O.2       17 UNK        -0.5000 
     99 N          -0.3255  -20.8927  -53.4406 N.am      18 UNK        -0.5000 
    100 CA        -0.1777  -22.0330  -54.3506 C.3       18 UNK         0.1400 
    101 CB         1.2756  -22.1472  -54.8546 C.3       18 UNK        -0.1800 
    102 C         -1.2098  -22.0702  -55.5003 C.2       18 UNK         0.5000 
    103 O         -1.0132  -22.8173  -56.4606 O.2       18 UNK        -0.5000 
    104 N         -2.2894  -21.2826  -55.3968 N.am      19 UNK        -0.5000 
    105 CA        -3.3199  -21.1554  -56.4265 C.3       19 UNK         0.1400 
    106 CB        -3.8001  -19.6971  -56.4668 C.3       19 UNK        -0.1800 
    107 C         -4.5038  -22.1183  -56.2217 C.2       19 UNK         0.5000 
    108 O         -5.3020  -22.2607  -57.1476 O.2       19 UNK        -0.5000 
    109 N         -4.5932  -22.7567  -55.0422 N.am      20 UNK        -0.5000 
    110 CA        -5.6528  -23.6615  -54.5827 C.3       20 UNK         0.1400 
    111 CB        -5.7946  -24.8957  -55.4967 C.3       20 UNK        -0.1800 
    112 C         -6.9810  -22.9062  -54.3907 C.2       20 UNK         0.5000 
    113 O         -7.7401  -22.7193  -55.3437 O.2       20 UNK        -0.5000 
    114 N         -7.2045  -22.4347  -53.1552 N.am      21 UNK        -0.5000 
    115 CA        -8.3443  -21.6175  -52.7095 C.3       21 UNK         0.1400 
    116 CB        -9.6412  -22.4534  -52.7115 C.3       21 UNK        -0.1800 
    117 C         -8.4865  -20.2872  -53.4853 C.2       21 UNK         0.5000 
    118 O         -9.6021  -19.8056  -53.6893 O.2       21 UNK        -0.5000 
    119 N         -7.3441  -19.7365  -53.9187 N.am      22 UNK        -0.5000 
    120 CA        -7.2129  -18.5543  -54.7871 C.3       22 UNK         0.1400 
    121 C         -7.7122  -18.7681  -56.2505 C.2       22 UNK         0.5000 
    122 N         -7.9445  -19.9931  -56.7090 N.am      22 UNK        -0.7600 
    123 O         -7.8619  -17.8083  -57.0016 O.2       22 UNK        -0.5000 
    124 C124       -7.7539  -17.2379  -54.1561 C.3       23 UNK        -0.0398 
    125 S125       -7.0920  -16.8774  -52.4921 S.3       23 UNK        -0.2404 
    126 C126       -5.3810  -16.3792  -52.8869 C.3       23 UNK        -0.0205 
    127 H127        4.8902  -12.3995  -49.4183 H         1 UNK         0.0600 
    128 H128        4.5199  -12.8332  -47.7461 H         1 UNK         0.0600 
    129 H129        3.3248  -11.9731  -48.7212 H         1 UNK         0.0600 
    130 H130        1.7066  -13.2911  -49.4522 H         1 UNK         0.3000 
    131 H131        1.9198  -15.5500  -51.0099 H         1 UNK         0.0600 
    132 H132       -0.3744  -14.6459  -49.2115 H         1 UNK         0.0800 
    133 H133       -0.5537  -15.8903  -50.4198 H         1 UNK         0.0800 
    134 H134       -2.4077  -12.4299  -51.6106 H         1 UNK         0.0800 
    135 H135       -1.9185  -12.6079  -49.9450 H         1 UNK         0.0800 
    136 H136       -3.6691  -14.2651  -52.7683 H         1 UNK         0.1150 
    137 H137       -5.2713  -17.4189  -50.3368 H         1 UNK         0.1150 
    138 H138       -2.5582  -14.5898  -48.6425 H         1 UNK         0.1150 
    139 H139       -4.0263  -16.1659  -47.2092 H         1 UNK         0.0800 
    140 H140       -4.7141  -17.5720  -48.0016 H         1 UNK         0.0800 
    141 H141       -3.4736  -18.6049  -45.9363 H         1 UNK         0.0800 
    142 H142       -2.0629  -17.6732  -45.5235 H         1 UNK         0.0800 
    143 H143       -0.7481  -19.6196  -46.7912 H         1 UNK         0.0600 
    144 H144       -1.4378  -19.4636  -43.9911 H         1 UNK         0.3000 
    145 H145        1.0754  -21.8869  -43.1091 H         1 UNK         0.0600 
    146 H146        2.1207  -20.0728  -41.8119 H         1 UNK         0.0600 
    147 H147        2.5178  -19.9256  -43.5163 H         1 UNK         0.0600 
    148 H148        1.3220  -18.8557  -42.7996 H         1 UNK         0.0600 
    149 H149       -0.3508  -20.1480  -41.4215 H         1 UNK         0.3000 
    150 H150       -3.1622  -22.3507  -40.9516 H         1 UNK         0.0600 
    151 H151       -1.2424  -23.2784  -39.6655 H         1 UNK         0.0600 
    152 H152       -2.2305  -22.2378  -38.6512 H         1 UNK         0.0600 
    153 H153       -0.6899  -21.6525  -39.2757 H         1 UNK         0.0600 
    154 H154       -1.9502  -19.6749  -40.3244 H         1 UNK         0.3000 
    155 H155       -4.9166  -18.0360  -41.2681 H         1 UNK         0.0600 
    156 H156       -3.7808  -18.2045  -38.4238 H         1 UNK         0.0600 
    157 H157       -5.4558  -18.5093  -38.8684 H         1 UNK         0.0600 
    158 H158       -4.7803  -16.9007  -39.0674 H         1 UNK         0.0600 
    159 H159       -2.5332  -16.9724  -40.1988 H         1 UNK         0.3000 
    160 H160       -0.3817  -17.2980  -42.9599 H         1 UNK         0.0600 
    161 H161       -1.8835  -14.7567  -42.1679 H         1 UNK         0.0600 
    162 H162       -1.8572  -15.4572  -43.7835 H         1 UNK         0.0600 
    163 H163       -0.3725  -14.8436  -43.0748 H         1 UNK         0.0600 
    164 H164        0.1227  -15.6693  -40.8319 H         1 UNK         0.3000 
    165 H165        0.7048  -16.5153  -38.4334 H         1 UNK         0.0600 
    166 H166        2.4456  -18.0584  -37.5508 H         1 UNK         0.0600 
    167 H167        0.9502  -18.9217  -37.8658 H         1 UNK         0.0600 
    168 H168        2.2991  -19.0737  -38.9858 H         1 UNK         0.0600 
    169 H169        3.2237  -16.9626  -39.8216 H         1 UNK         0.3000 
    170 H170        3.4218  -13.8708  -41.4240 H         1 UNK         0.0600 
    171 H171        3.8219  -13.0153  -39.1132 H         1 UNK         0.0600 
    172 H172        4.7638  -14.4509  -38.7292 H         1 UNK         0.0600 
    173 H173        5.3364  -13.3128  -39.9499 H         1 UNK         0.0600 
    174 H174        5.4429  -15.7600  -40.7010 H         1 UNK         0.3000 
    175 H175        6.4322  -16.7951  -42.5569 H         1 UNK         0.0600 
    176 H176        4.3480  -19.0217  -42.2269 H         1 UNK         0.0600 
    177 H177        6.0884  -19.2625  -42.3425 H         1 UNK         0.0600 
    178 H178        5.4088  -18.4135  -40.9640 H         1 UNK         0.0600 
    179 H179        4.6855  -18.1651  -44.5331 H         1 UNK         0.3000 
    180 H180        6.0680  -16.3208  -47.2650 H         1 UNK         0.0600 
    181 H181        5.8649  -19.2787  -46.4926 H         1 UNK         0.0600 
    182 H182        7.3260  -18.4184  -46.9480 H         1 UNK         0.0600 
    183 H183        6.0437  -18.6449  -48.1274 H         1 UNK         0.0600 
    184 H184        3.9149  -16.2897  -47.5624 H         1 UNK         0.3000 
    185 H185        1.2391  -18.3171  -47.1882 H         1 UNK         0.0600 
    186 H186        0.9729  -17.7242  -44.8129 H         1 UNK         0.0600 
    187 H187        1.5182  -16.0805  -45.1073 H         1 UNK         0.0600 
    188 H188       -0.0074  -16.6379  -45.7862 H         1 UNK         0.0600 
    189 H189        1.6006  -15.4187  -47.4777 H         1 UNK         0.3000 
    190 H190       -2.8192  -21.4611  -44.6388 H         1 UNK         0.3000 
    191 H191       -4.2352  -22.9097  -46.7153 H         1 UNK         0.0600 
    192 H192       -3.7823  -23.6207  -43.7674 H         1 UNK         0.0600 
    193 H193       -4.9195  -24.3924  -44.8605 H         1 UNK         0.0600 
    194 H194       -5.1492  -22.7111  -44.4064 H         1 UNK         0.0600 
    195 H195       -1.3030  -23.4793  -44.7205 H         1 UNK         0.3000 
    196 H196       -0.5538  -25.9726  -45.8552 H         1 UNK         0.0600 
    197 H197        1.6512  -25.4946  -44.8369 H         1 UNK         0.0600 
    198 H198        0.3661  -25.0644  -43.7173 H         1 UNK         0.0600 
    199 H199        1.2200  -23.8066  -44.6091 H         1 UNK         0.0600 
    200 H200        0.2153  -22.6206  -46.8400 H         1 UNK         0.3000 
    201 H201        1.8178  -23.3440  -49.1266 H         1 UNK         0.0600 
    202 H202        2.0332  -21.1691  -47.8821 H         1 UNK         0.0600 
    203 H203        0.4267  -20.7032  -48.4417 H         1 UNK         0.0600 
    204 H204        1.7335  -20.9199  -49.5929 H         1 UNK         0.0600 
    205 H205       -1.4504  -23.8084  -48.6935 H         1 UNK         0.3000 
    206 H206       -3.2171  -24.2015  -49.9452 H         1 UNK         0.0600 
    207 H207       -2.8824  -25.2227  -52.1748 H         1 UNK         0.0600 
    208 H208       -1.6846  -25.8271  -51.0422 H         1 UNK         0.0600 
    209 H209       -1.2328  -24.6193  -52.2424 H         1 UNK         0.0600 
    210 H210       -2.8327  -21.5510  -49.4945 H         1 UNK         0.3000 
    211 H211       -3.5785  -19.5224  -49.9789 H         1 UNK         0.0600 
    212 H212       -5.5896  -19.3320  -51.4597 H         1 UNK         0.0600 
    213 H213       -5.7314  -20.6965  -50.3600 H         1 UNK         0.0600 
    214 H214       -5.3086  -20.9523  -52.0533 H         1 UNK         0.0600 
    215 H215       -1.2892  -19.3000  -50.7099 H         1 UNK         0.3000 
    216 H216        0.3097  -18.4435  -51.9868 H         1 UNK         0.0600 
    217 H217       -0.2264  -16.6950  -53.5769 H         1 UNK         0.0600 
    218 H218       -1.4752  -16.6134  -52.3432 H         1 UNK         0.0600 
    219 H219       -1.8255  -17.3526  -53.8942 H         1 UNK         0.0600 
    220 H220       -0.5771  -21.1555  -52.4949 H         1 UNK         0.3000 
    221 H221       -0.3833  -22.9179  -53.7482 H         1 UNK         0.0600 
    222 H222        1.5369  -21.3318  -55.5293 H         1 UNK         0.0600 
    223 H223        1.9810  -22.1366  -54.0236 H         1 UNK         0.0600 
    224 H224        1.4308  -23.0809  -55.3964 H         1 UNK         0.0600 
    225 H225       -2.4112  -20.7151  -54.5643 H         1 UNK         0.3000 
    226 H226       -2.8899  -21.3826  -57.4042 H         1 UNK         0.0600 
    227 H227       -2.9776  -19.0181  -56.6923 H         1 UNK         0.0600 
    228 H228       -4.5633  -19.5523  -57.2326 H         1 UNK         0.0600 
    229 H229       -4.2280  -19.3949  -55.5140 H         1 UNK         0.0600 
    230 H230       -3.8907  -22.5475  -54.3378 H         1 UNK         0.3000 
    231 H231       -5.3328  -24.0285  -53.6062 H         1 UNK         0.0600 
    232 H232       -4.8422  -25.4141  -55.6073 H         1 UNK         0.0600 
    233 H233       -6.1529  -24.6367  -56.4931 H         1 UNK         0.0600 
    234 H234       -6.5055  -25.6065  -55.0745 H         1 UNK         0.0600 
    235 H235       -6.5150  -22.6334  -52.4441 H         1 UNK         0.3000 
    236 H236       -8.1358  -21.3389  -51.6756 H         1 UNK         0.0600 
    237 H237      -10.4634  -21.9030  -52.2526 H         1 UNK         0.0600 
    238 H238       -9.9499  -22.7187  -53.7230 H         1 UNK         0.0600 
    239 H239       -9.5161  -23.3766  -52.1459 H         1 UNK         0.0600 
    240 H240       -6.4809  -20.2132  -53.7066 H         1 UNK         0.3000 
    241 H241       -6.1405  -18.4146  -54.9015 H         1 UNK         0.0600 
    242 H242       -8.2491  -20.1089  -57.6621 H         1 UNK         0.3800 
    243 H243       -7.8202  -20.8151  -56.1282 H         1 UNK         0.3800 
    244 H244       -7.5263  -16.3846  -54.7969 H         1 UNK         0.0800 
    245 H245       -8.8417  -17.2730  -54.0857 H         1 UNK         0.0800 
    246 H246       -5.4119  -15.6125  -53.6626 H         1 UNK         0.0800 
    247 H247       -4.8438  -17.2292  -53.3078 H         1 UNK         0.0800 
@<TRIPOS>BOND
     1    1    2 1    
     2    1  127 1    
     3    1  128 1    
     4    1  129 1    
     5    2    3 2    
     6    2    4 am   BACKBONE|DICT|INTERRES
     7    4    5 1    
     8    4  130 1    
     9    5    6 1    
    10    5   65 1    
    11    5  131 1    
    12    6    7 1    
    13    6  132 1    
    14    6  133 1    
    15    7    8 1    
    16    8    9 1    
    17    8  134 1    
    18    8  135 1    
    19    9   10 ar   
    20    9   14 ar   
    21   10   11 ar   
    22   10  136 1    
    23   11   12 ar   
    24   11  126 1    
    25   12   13 ar   
    26   12  137 1    
    27   13   14 ar   
    28   13   15 1    
    29   14  138 1    
    30   15   16 1    
    31   15  139 1    
    32   15  140 1    
    33   16   17 1    
    34   17   18 1    
    35   17  141 1    
    36   17  142 1    
    37   18   19 1    
    38   18   67 1    
    39   18  143 1    
    40   19   20 am   BACKBONE|DICT|INTERRES
    41   19  144 1    
    42   20   21 2    
    43   20   22 1    
    44   22   23 1    
    45   22   24 1    
    46   22  145 1    
    47   23  146 1    
    48   23  147 1    
    49   23  148 1    
    50   24   25 am   BACKBONE|DICT|INTERRES
    51   24  149 1    
    52   25   26 2    
    53   25   27 1    
    54   27   28 1    
    55   27   29 1    
    56   27  150 1    
    57   28  151 1    
    58   28  152 1    
    59   28  153 1    
    60   29   30 am   BACKBONE|DICT|INTERRES
    61   29  154 1    
    62   30   31 2    
    63   30   32 1    
    64   32   33 1    
    65   32   34 1    
    66   32  155 1    
    67   33  156 1    
    68   33  157 1    
    69   33  158 1    
    70   34   35 am   BACKBONE|DICT|INTERRES
    71   34  159 1    
    72   35   36 2    
    73   35   37 1    
    74   37   38 1    
    75   37   39 1    
    76   37  160 1    
    77   38  161 1    
    78   38  162 1    
    79   38  163 1    
    80   39   40 am   BACKBONE|DICT|INTERRES
    81   39  164 1    
    82   40   41 2    
    83   40   42 1    
    84   42   43 1    
    85   42   44 1    
    86   42  165 1    
    87   43  166 1    
    88   43  167 1    
    89   43  168 1    
    90   44   45 am   BACKBONE|DICT|INTERRES
    91   44  169 1    
    92   45   46 2    
    93   45   47 1    
    94   47   48 1    
    95   47   49 1    
    96   47  170 1    
    97   48  171 1    
    98   48  172 1    
    99   48  173 1    
   100   49   50 am   BACKBONE|DICT|INTERRES
   101   49  174 1    
   102   50   51 2    
   103   50   52 1    
   104   52   53 1    
   105   52   54 1    
   106   52  175 1    
   107   53  176 1    
   108   53  177 1    
   109   53  178 1    
   110   54   55 am   BACKBONE|DICT|INTERRES
   111   54  179 1    
   112   55   56 2    
   113   55   57 1    
   114   57   58 1    
   115   57   59 1    
   116   57  180 1    
   117   58  181 1    
   118   58  182 1    
   119   58  183 1    
   120   59   60 am   BACKBONE|DICT|INTERRES
   121   59  184 1    
   122   60   61 2    
   123   60   62 1    
   124   62   63 1    
   125   62   64 1    
   126   62  185 1    
   127   63  186 1    
   128   63  187 1    
   129   63  188 1    
   130   64   65 am   BACKBONE|DICT|INTERRES
   131   64  189 1    
   132   65   66 2    
   133   67   68 2    
   134   67   69 am   BACKBONE|DICT|INTERRES
   135   69   70 1    
   136   69  190 1    
   137   70   71 1    
   138   70   72 1    
   139   70  191 1    
   140   71  192 1    
   141   71  193 1    
   142   71  194 1    
   143   72   73 2    
   144   72   74 am   BACKBONE|DICT|INTERRES
   145   74   75 1    
   146   74  195 1    
   147   75   76 1    
   148   75   77 1    
   149   75  196 1    
   150   76  197 1    
   151   76  198 1    
   152   76  199 1    
   153   77   78 2    
   154   77   79 am   BACKBONE|DICT|INTERRES
   155   79   80 1    
   156   79  200 1    
   157   80   81 1    
   158   80   82 1    
   159   80  201 1    
   160   81  202 1    
   161   81  203 1    
   162   81  204 1    
   163   82   83 2    
   164   82   84 am   BACKBONE|DICT|INTERRES
   165   84   85 1    
   166   84  205 1    
   167   85   86 1    
   168   85   87 1    
   169   85  206 1    
   170   86  207 1    
   171   86  208 1    
   172   86  209 1    
   173   87   88 2    
   174   87   89 am   BACKBONE|DICT|INTERRES
   175   89   90 1    
   176   89  210 1    
   177   90   91 1    
   178   90   92 1    
   179   90  211 1    
   180   91  212 1    
   181   91  213 1    
   182   91  214 1    
   183   92   93 2    
   184   92   94 am   BACKBONE|DICT|INTERRES
   185   94   95 1    
   186   94  215 1    
   187   95   96 1    
   188   95   97 1    
   189   95  216 1    
   190   96  217 1    
   191   96  218 1    
   192   96  219 1    
   193   97   98 2    
   194   97   99 am   BACKBONE|DICT|INTERRES
   195   99  100 1    
   196   99  220 1    
   197  100  101 1    
   198  100  102 1    
   199  100  221 1    
   200  101  222 1    
   201  101  223 1    
   202  101  224 1    
   203  102  103 2    
   204  102  104 am   BACKBONE|DICT|INTERRES
   205  104  105 1    
   206  104  225 1    
   207  105  106 1    
   208  105  107 1    
   209  105  226 1    
   210  106  227 1    
   211  106  228 1    
   212  106  229 1    
   213  107  108 2    
   214  107  109 am   BACKBONE|DICT|INTERRES
   215  109  110 1    
   216  109  230 1    
   217  110  111 1    
   218  110  112 1    
   219  110  231 1    
   220  111  232 1    
   221  111  233 1    
   222  111  234 1    
   223  112  113 2    
   224  112  114 am   BACKBONE|DICT|INTERRES
   225  114  115 1    
   226  114  235 1    
   227  115  116 1    
   228  115  117 1    
   229  115  236 1    
   230  116  237 1    
   231  116  238 1    
   232  116  239 1    
   233  117  118 2    
   234  117  119 am   BACKBONE|DICT|INTERRES
   235  119  120 1    
   236  119  240 1    
   237  120  121 1    
   238  120  124 1    
   239  120  241 1    
   240  121  122 am   BACKBONE|DICT|INTERRES
   241  121  123 2    
   242  122  242 1    
   243  122  243 1    
   244  124  125 1    
   245  124  244 1    
   246  124  245 1    
   247  125  126 1    
   248  126  246 1    
   249  126  247 1    
@<TRIPOS>SUBSTRUCTURE
     1 UNK         1 GROUP             0       ****    0 ROOT    
