@<TRIPOS>MOLECULE
3R540
247   249    1
SMALL
USER_CHARGES


@<TRIPOS>ATOM
      1 CA          4.6519  -11.7355  -47.3319 C.3       0 UNK        -0.1800 
      2 C           5.2038  -12.7703  -46.3620 C.2       0 UNK         0.5000 
      3 O           5.9206  -12.4146  -45.4267 O.2       0 UNK        -0.5000 
      4 N           4.8652  -14.0479  -46.5771 N.am      1 UNK        -0.5000 
      5 CA          5.2925  -15.1852  -45.7471 C.3       1 UNK         0.1400 
      6 C6          5.3506  -16.5035  -46.5609 C.3       23 UNK        -0.0398 
      7 S7          6.6847  -16.4440  -47.8062 S.3       23 UNK        -0.2404 
      8 C8          5.7510  -16.4028  -49.3747 C.3       23 UNK        -0.0205 
      9 C9          5.2248  -17.7467  -49.8855 C.ar      23 UNK        -0.0193 
     10 C10         4.3904  -17.7378  -51.0076 C.ar      23 UNK        -0.1150 
     11 C11         3.8998  -18.9278  -51.5511 C.ar      23 UNK        -0.0193 
     12 C12         4.2359  -20.1438  -50.9515 C.ar      23 UNK        -0.1150 
     13 C13         5.0646  -20.1764  -49.8262 C.ar      23 UNK        -0.0193 
     14 C14         5.5645  -18.9782  -49.3064 C.ar      23 UNK        -0.1150 
     15 C15         5.4062  -21.5110  -49.1702 C.3       23 UNK        -0.0205 
     16 S16         4.9172  -21.6085  -47.4108 S.3       23 UNK        -0.2404 
     17 C17         3.1787  -21.0514  -47.4510 C.3       23 UNK        -0.0398 
     18 CA          2.1170  -22.1703  -47.3645 C.3       11 UNK         0.1400 
     19 N           0.7919  -21.5907  -47.1309 N.am      11 UNK        -0.5000 
     20 C          -0.3118  -22.2868  -46.8235 C.2       10 UNK         0.5000 
     21 O          -0.2910  -23.4800  -46.5246 O.2       10 UNK        -0.5000 
     22 CA         -1.6687  -21.5491  -46.8889 C.3       10 UNK         0.1400 
     23 CB         -2.2603  -21.3615  -45.4835 C.3       10 UNK        -0.1800 
     24 N          -1.6250  -20.2544  -47.5811 N.am      10 UNK        -0.5000 
     25 C          -1.3151  -20.0744  -48.8745 C.2       9 UNK         0.5000 
     26 O          -1.0795  -21.0029  -49.6469 O.2       9 UNK        -0.5000 
     27 CA         -1.1504  -18.6258  -49.3720 C.3       9 UNK         0.1400 
     28 CB         -2.4450  -18.1002  -49.9965 C.3       9 UNK        -0.1800 
     29 N          -0.6994  -17.6947  -48.3377 N.am      9 UNK        -0.5000 
     30 C           0.4893  -17.7546  -47.7226 C.2       8 UNK         0.5000 
     31 O           1.3340  -18.6133  -47.9617 O.2       8 UNK        -0.5000 
     32 CA          0.7498  -16.7278  -46.6076 C.3       8 UNK         0.1400 
     33 CB          1.1480  -15.3604  -47.1834 C.3       8 UNK        -0.1800 
     34 N          -0.4159  -16.5844  -45.7381 N.am      8 UNK        -0.5000 
     35 C          -0.8465  -17.5362  -44.8981 C.2       7 UNK         0.5000 
     36 O          -0.2517  -18.5959  -44.7067 O.2       7 UNK        -0.5000 
     37 CA         -2.1806  -17.2770  -44.1764 C.3       7 UNK         0.1400 
     38 CB         -1.9607  -16.5186  -42.8586 C.3       7 UNK        -0.1800 
     39 N          -3.1286  -16.5406  -45.0121 N.am      7 UNK        -0.5000 
     40 C          -3.7409  -17.0497  -46.0902 C.2       6 UNK         0.5000 
     41 O          -3.5943  -18.2082  -46.4790 O.2       6 UNK        -0.5000 
     42 CA         -4.6329  -16.0828  -46.8906 C.3       6 UNK         0.1400 
     43 CB         -6.0255  -15.9685  -46.2528 C.3       6 UNK        -0.1800 
     44 N          -4.0456  -14.7464  -47.0047 N.am      6 UNK        -0.5000 
     45 C          -2.9260  -14.4712  -47.6879 C.2       5 UNK         0.5000 
     46 O          -2.2859  -15.3131  -48.3137 O.2       5 UNK        -0.5000 
     47 CA         -2.4066  -13.0245  -47.6205 C.3       5 UNK         0.1400 
     48 CB         -3.0906  -12.1553  -48.6859 C.3       5 UNK        -0.1800 
     49 N          -2.5759  -12.4060  -46.3028 N.am      5 UNK        -0.5000 
     50 C          -1.9916  -12.8393  -45.1786 C.2       4 UNK         0.5000 
     51 O          -1.2872  -13.8501  -45.1144 O.2       4 UNK        -0.5000 
     52 CA         -2.2762  -12.0333  -43.9067 C.3       4 UNK         0.1400 
     53 CB         -3.4949  -12.6078  -43.1667 C.3       4 UNK        -0.1800 
     54 N          -1.1076  -12.1049  -43.0362 N.am      4 UNK        -0.5000 
     55 C          -0.5242  -11.0636  -42.4314 C.2       3 UNK         0.5000 
     56 O          -0.9566   -9.9116  -42.4920 O.2       3 UNK        -0.5000 
     57 CA          0.7529  -11.3406  -41.6093 C.3       3 UNK         0.1400 
     58 CB          0.4494  -11.2519  -40.1051 C.3       3 UNK        -0.1800 
     59 N           1.3804  -12.6372  -41.8826 N.am      3 UNK        -0.5000 
     60 C           2.0429  -12.9501  -43.0028 C.2       2 UNK         0.5000 
     61 O           2.1869  -12.1788  -43.9558 O.2       2 UNK        -0.5000 
     62 CA          2.6239  -14.3711  -43.0661 C.3       2 UNK         0.1400 
     63 CB          1.5072  -15.4268  -43.0749 C.3       2 UNK        -0.1800 
     64 N           3.4355  -14.4888  -44.2713 N.am      2 UNK        -0.5000 
     65 C           4.4515  -15.3390  -44.4573 C.2       1 UNK         0.5000 
     66 O           4.7550  -16.2118  -43.6427 O.2       1 UNK        -0.5000 
     67 C           2.1189  -23.0618  -48.6290 C.2       11 UNK         0.5000 
     68 O           2.7203  -24.1366  -48.6143 O.2       11 UNK        -0.5000 
     69 N           1.4254  -22.6141  -49.6865 N.am      12 UNK        -0.5000 
     70 CA          1.2110  -23.3759  -50.9148 C.3       12 UNK         0.1400 
     71 CB          1.0331  -22.4116  -52.0973 C.3       12 UNK        -0.1800 
     72 C          -0.0031  -24.3072  -50.7727 C.2       12 UNK         0.5000 
     73 O           0.1013  -25.4975  -51.0727 O.2       12 UNK        -0.5000 
     74 N          -1.1256  -23.7640  -50.2811 N.am      13 UNK        -0.5000 
     75 CA         -2.3607  -24.4926  -49.9929 C.3       13 UNK         0.1400 
     76 CB         -3.5513  -23.5202  -50.0155 C.3       13 UNK        -0.1800 
     77 C          -2.2668  -25.2652  -48.6631 C.2       13 UNK         0.5000 
     78 O          -3.0229  -24.9898  -47.7283 O.2       13 UNK        -0.5000 
     79 N          -1.3499  -26.2404  -48.6133 N.am      14 UNK        -0.5000 
     80 CA         -1.0558  -27.0962  -47.4577 C.3       14 UNK         0.1400 
     81 CB          0.1637  -27.9691  -47.7892 C.3       14 UNK        -0.1800 
     82 C          -2.2409  -27.9692  -46.9903 C.2       14 UNK         0.5000 
     83 O          -2.2447  -28.4287  -45.8482 O.2       14 UNK        -0.5000 
     84 N          -3.2428  -28.1454  -47.8632 N.am      15 UNK        -0.5000 
     85 CA         -4.5419  -28.7585  -47.5751 C.3       15 UNK         0.1400 
     86 CB         -5.2046  -29.1301  -48.9123 C.3       15 UNK        -0.1800 
     87 C          -5.4823  -27.8650  -46.7309 C.2       15 UNK         0.5000 
     88 O          -6.5919  -28.2980  -46.4190 O.2       15 UNK        -0.5000 
     89 N          -5.0389  -26.6430  -46.3948 N.am      16 UNK        -0.5000 
     90 CA         -5.7348  -25.6008  -45.6331 C.3       16 UNK         0.1400 
     91 CB         -6.2035  -26.1014  -44.2502 C.3       16 UNK        -0.1800 
     92 C          -6.8426  -24.8984  -46.4427 C.2       16 UNK         0.5000 
     93 O          -7.7838  -24.3576  -45.8601 O.2       16 UNK        -0.5000 
     94 N          -6.6867  -24.8750  -47.7749 N.am      17 UNK        -0.5000 
     95 CA         -7.5400  -24.1209  -48.7001 C.3       17 UNK         0.1400 
     96 CB         -7.4504  -24.7490  -50.1001 C.3       17 UNK        -0.1800 
     97 C          -7.2023  -22.6129  -48.7333 C.2       17 UNK         0.5000 
     98 O          -7.9834  -21.8333  -49.2802 O.2       17 UNK        -0.5000 
     99 N          -6.0625  -22.2329  -48.1325 N.am      18 UNK        -0.5000 
    100 CA        -5.5842  -20.8701  -47.8932 C.3       18 UNK         0.1400 
    101 CB        -6.4377  -20.2112  -46.7870 C.3       18 UNK        -0.1800 
    102 C         -5.4716  -20.0427  -49.1894 C.2       18 UNK         0.5000 
    103 O         -4.6843  -20.4016  -50.0658 O.2       18 UNK        -0.5000 
    104 N         -6.2673  -18.9694  -49.3002 N.am      19 UNK        -0.5000 
    105 CA        -6.2931  -17.9977  -50.3995 C.3       19 UNK         0.1400 
    106 CB        -7.3025  -16.8937  -50.0465 C.3       19 UNK        -0.1800 
    107 C         -6.5867  -18.5732  -51.8026 C.2       19 UNK         0.5000 
    108 O         -6.4201  -17.8537  -52.7874 O.2       19 UNK        -0.5000 
    109 N         -7.0013  -19.8453  -51.8807 N.am      20 UNK        -0.5000 
    110 CA        -7.1886  -20.6044  -53.1169 C.3       20 UNK         0.1400 
    111 CB        -7.8059  -21.9663  -52.7674 C.3       20 UNK        -0.1800 
    112 C         -5.8952  -20.8043  -53.9367 C.2       20 UNK         0.5000 
    113 O         -5.9882  -20.9768  -55.1533 O.2       20 UNK        -0.5000 
    114 N         -4.7280  -20.7883  -53.2735 N.am      21 UNK        -0.5000 
    115 CA        -3.4131  -20.8581  -53.9136 C.3       21 UNK         0.1400 
    116 CB        -2.4653  -21.7170  -53.0575 C.3       21 UNK        -0.1800 
    117 C         -2.8767  -19.4453  -54.2299 C.2       21 UNK         0.5000 
    118 O         -3.5990  -18.6400  -54.8187 O.2       21 UNK        -0.5000 
    119 N         -1.6185  -19.1658  -53.8664 N.am      22 UNK        -0.5000 
    120 CA        -0.8586  -17.9422  -54.1849 C.3       22 UNK         0.1400 
    121 C         -1.3283  -16.6228  -53.4904 C.2       22 UNK         0.5000 
    122 N         -2.5853  -16.5002  -53.0879 N.am      22 UNK        -0.7600 
    123 O         -0.5545  -15.6813  -53.3391 O.2       22 UNK        -0.5000 
    124 C124        0.6717  -18.1942  -54.0932 C.3       23 UNK        -0.0398 
    125 S125        1.2817  -18.6451  -52.4318 S.3       23 UNK        -0.2404 
    126 C126        3.0438  -18.8924  -52.8086 C.3       23 UNK        -0.0205 
    127 H127        5.4689  -11.1898  -47.8040 H         1 UNK         0.0600 
    128 H128        4.0510  -12.1947  -48.1173 H         1 UNK         0.0600 
    129 H129        4.0251  -11.0205  -46.7986 H         1 UNK         0.0600 
    130 H130        4.2769  -14.2752  -47.3648 H         1 UNK         0.3000 
    131 H131        6.3073  -14.9822  -45.3971 H         1 UNK         0.0600 
    132 H132        4.3913  -16.7187  -47.0349 H         1 UNK         0.0800 
    133 H133        5.5642  -17.3547  -45.9118 H         1 UNK         0.0800 
    134 H134        4.9224  -15.7001  -49.2766 H         1 UNK         0.0800 
    135 H135        6.4101  -15.9903  -50.1397 H         1 UNK         0.0800 
    136 H136        4.1311  -16.7969  -51.4732 H         1 UNK         0.1150 
    137 H137        3.8578  -21.0671  -51.3645 H         1 UNK         0.1150 
    138 H138        6.2114  -19.0232  -48.4432 H         1 UNK         0.1150 
    139 H139        4.9345  -22.3356  -49.7070 H         1 UNK         0.0800 
    140 H140        6.4818  -21.6755  -49.2453 H         1 UNK         0.0800 
    141 H141        2.9995  -20.4399  -48.3331 H         1 UNK         0.0800 
    142 H142        3.0571  -20.3747  -46.6039 H         1 UNK         0.0800 
    143 H143        2.3554  -22.8040  -46.5077 H         1 UNK         0.0600 
    144 H144        0.6981  -20.6034  -47.3394 H         1 UNK         0.3000 
    145 H145       -2.3474  -22.1943  -47.4455 H         1 UNK         0.0600 
    146 H146       -3.2143  -20.8356  -45.5143 H         1 UNK         0.0600 
    147 H147       -2.4377  -22.3268  -45.0077 H         1 UNK         0.0600 
    148 H148       -1.5889  -20.8002  -44.8355 H         1 UNK         0.0600 
    149 H149       -1.8492  -19.4364  -47.0275 H         1 UNK         0.3000 
    150 H150       -0.3871  -18.6398  -50.1486 H         1 UNK         0.0600 
    151 H151       -2.7677  -18.7353  -50.8220 H         1 UNK         0.0600 
    152 H152       -2.3072  -17.0959  -50.3948 H         1 UNK         0.0600 
    153 H153       -3.2493  -18.0594  -49.2633 H         1 UNK         0.0600 
    154 H154       -1.3242  -16.9213  -48.1248 H         1 UNK         0.3000 
    155 H155        1.5830  -17.0917  -46.0022 H         1 UNK         0.0600 
    156 H156        0.3642  -14.9440  -47.8157 H         1 UNK         0.0600 
    157 H157        2.0496  -15.4433  -47.7912 H         1 UNK         0.0600 
    158 H158        1.3514  -14.6418  -46.3893 H         1 UNK         0.0600 
    159 H159       -0.9197  -15.7048  -45.7815 H         1 UNK         0.3000 
    160 H160       -2.6195  -18.2485  -43.9384 H         1 UNK         0.0600 
    161 H161       -2.8934  -16.4156  -42.3040 H         1 UNK         0.0600 
    162 H162       -1.5605  -15.5192  -43.0266 H         1 UNK         0.0600 
    163 H163       -1.2577  -17.0499  -42.2159 H         1 UNK         0.0600 
    164 H164       -3.2649  -15.5656  -44.7928 H         1 UNK         0.3000 
    165 H165       -4.7479  -16.4917  -47.8966 H         1 UNK         0.0600 
    166 H166       -6.6768  -15.3221  -46.8412 H         1 UNK         0.0600 
    167 H167       -6.5111  -16.9420  -46.1881 H         1 UNK         0.0600 
    168 H168       -5.9748  -15.5603  -45.2426 H         1 UNK         0.0600 
    169 H169       -4.5105  -13.9955  -46.5163 H         1 UNK         0.3000 
    170 H170       -1.3370  -13.0504  -47.8390 H         1 UNK         0.0600 
    171 H171       -2.9631  -12.5851  -49.6805 H         1 UNK         0.0600 
    172 H172       -4.1619  -12.0610  -48.5039 H         1 UNK         0.0600 
    173 H173       -2.6640  -11.1524  -48.7104 H         1 UNK         0.0600 
    174 H174       -3.1504  -11.5761  -46.2682 H         1 UNK         0.3000 
    175 H175       -2.4821  -10.9995  -44.1920 H         1 UNK         0.0600 
    176 H176       -3.3364  -13.6454  -42.8706 H         1 UNK         0.0600 
    177 H177       -3.7111  -12.0342  -42.2653 H         1 UNK         0.0600 
    178 H178       -4.3869  -12.5757  -43.7934 H         1 UNK         0.0600 
    179 H179       -0.6503  -13.0052  -43.0076 H         1 UNK         0.3000 
    180 H180        1.4716  -10.5567  -41.8576 H         1 UNK         0.0600 
    181 H181       -0.2577  -12.0210  -39.7917 H         1 UNK         0.0600 
    182 H182        0.0160  -10.2842  -39.8486 H         1 UNK         0.0600 
    183 H183        1.3565  -11.3658  -39.5113 H         1 UNK         0.0600 
    184 H184        1.3044  -13.3290  -41.1508 H         1 UNK         0.3000 
    185 H185        3.2611  -14.5166  -42.1912 H         1 UNK         0.0600 
    186 H186        0.9861  -15.4599  -42.1180 H         1 UNK         0.0600 
    187 H187        0.7702  -15.1962  -43.8411 H         1 UNK         0.0600 
    188 H188        1.8936  -16.4279  -43.2669 H         1 UNK         0.0600 
    189 H189        3.2828  -13.7462  -44.9424 H         1 UNK         0.3000 
    190 H190        0.8919  -21.7581  -49.5970 H         1 UNK         0.3000 
    191 H191        2.0865  -23.9958  -51.1199 H         1 UNK         0.0600 
    192 H192        1.9575  -21.8802  -52.3149 H         1 UNK         0.0600 
    193 H193        0.2648  -21.6654  -51.8980 H         1 UNK         0.0600 
    194 H194        0.7510  -22.9480  -53.0041 H         1 UNK         0.0600 
    195 H195       -1.1239  -22.7723  -50.0500 H         1 UNK         0.3000 
    196 H196       -2.5306  -25.2310  -50.7793 H         1 UNK         0.0600 
    197 H197       -3.3818  -22.6549  -49.3783 H         1 UNK         0.0600 
    198 H198       -4.4598  -24.0097  -49.6722 H         1 UNK         0.0600 
    199 H199       -3.7589  -23.1545  -51.0172 H         1 UNK         0.0600 
    200 H200       -0.7593  -26.3621  -49.4294 H         1 UNK         0.3000 
    201 H201       -0.7923  -26.4402  -46.6255 H         1 UNK         0.0600 
    202 H202       -0.0320  -28.6269  -48.6368 H         1 UNK         0.0600 
    203 H203        0.4390  -28.5974  -46.9410 H         1 UNK         0.0600 
    204 H204        1.0318  -27.3558  -48.0328 H         1 UNK         0.0600 
    205 H205       -3.1335  -27.7435  -48.7821 H         1 UNK         0.3000 
    206 H206       -4.3725  -29.6761  -47.0083 H         1 UNK         0.0600 
    207 H207       -4.5701  -29.7980  -49.4953 H         1 UNK         0.0600 
    208 H208       -6.1521  -29.6463  -48.7522 H         1 UNK         0.0600 
    209 H209       -5.4108  -28.2470  -49.5183 H         1 UNK         0.0600 
    210 H210       -4.1301  -26.3602  -46.7472 H         1 UNK         0.3000 
    211 H211       -4.9820  -24.8325  -45.4505 H         1 UNK         0.0600 
    212 H212       -7.0423  -26.7931  -44.3280 H         1 UNK         0.0600 
    213 H213       -6.5298  -25.2688  -43.6260 H         1 UNK         0.0600 
    214 H214       -5.3970  -26.6067  -43.7188 H         1 UNK         0.0600 
    215 H215       -5.8916  -25.3550  -48.1698 H         1 UNK         0.3000 
    216 H216       -8.5755  -24.2097  -48.3646 H         1 UNK         0.0600 
    217 H217       -8.1718  -24.2880  -50.7754 H         1 UNK         0.0600 
    218 H218       -7.6783  -25.8147  -50.0691 H         1 UNK         0.0600 
    219 H219       -6.4637  -24.6301  -50.5456 H         1 UNK         0.0600 
    220 H220       -5.4789  -22.9653  -47.7577 H         1 UNK         0.3000 
    221 H221       -4.5669  -20.9594  -47.5134 H         1 UNK         0.0600 
    222 H222       -7.4846  -20.1105  -47.0754 H         1 UNK         0.0600 
    223 H223       -6.4065  -20.8034  -45.8723 H         1 UNK         0.0600 
    224 H224       -6.0612  -19.2217  -46.5334 H         1 UNK         0.0600 
    225 H225       -6.9182  -18.7968  -48.5486 H         1 UNK         0.3000 
    226 H226       -5.3029  -17.5427  -50.4538 H         1 UNK         0.0600 
    227 H227       -7.0422  -16.4023  -49.1096 H         1 UNK         0.0600 
    228 H228       -7.3274  -16.1216  -50.8167 H         1 UNK         0.0600 
    229 H229       -8.3131  -17.2921  -49.9487 H         1 UNK         0.0600 
    230 H230       -7.1180  -20.3583  -51.0165 H         1 UNK         0.3000 
    231 H231       -7.8950  -20.0542  -53.7417 H         1 UNK         0.0600 
    232 H232       -8.7452  -21.8506  -52.2262 H         1 UNK         0.0600 
    233 H233       -7.1310  -22.5574  -52.1478 H         1 UNK         0.0600 
    234 H234       -8.0172  -22.5444  -53.6679 H         1 UNK         0.0600 
    235 H235       -4.7397  -20.6264  -52.2726 H         1 UNK         0.3000 
    236 H236       -3.5034  -21.3636  -54.8771 H         1 UNK         0.0600 
    237 H237       -2.3503  -21.3190  -52.0485 H         1 UNK         0.0600 
    238 H238       -2.8388  -22.7371  -52.9831 H         1 UNK         0.0600 
    239 H239       -1.4788  -21.7940  -53.5140 H         1 UNK         0.0600 
    240 H240       -1.1071  -19.8600  -53.3422 H         1 UNK         0.3000 
    241 H241       -1.0520  -17.7459  -55.2410 H         1 UNK         0.0600 
    242 H242       -2.8898  -15.6429  -52.6568 H         1 UNK         0.3800 
    243 H243       -3.2549  -17.2163  -53.3371 H         1 UNK         0.3800 
    244 H244        0.9442  -18.9970  -54.7798 H         1 UNK         0.0800 
    245 H245        1.2206  -17.3172  -54.4406 H         1 UNK         0.0800 
    246 H246        3.1639  -19.8167  -53.3756 H         1 UNK         0.0800 
    247 H247        3.3936  -18.0886  -53.4583 H         1 UNK         0.0800 
@<TRIPOS>BOND
     1    1    2 1    
     2    1  127 1    
     3    1  128 1    
     4    1  129 1    
     5    2    3 2    
     6    2    4 am   BACKBONE|DICT|INTERRES
     7    4    5 1    
     8    4  130 1    
     9    5    6 1    
    10    5   65 1    
    11    5  131 1    
    12    6    7 1    
    13    6  132 1    
    14    6  133 1    
    15    7    8 1    
    16    8    9 1    
    17    8  134 1    
    18    8  135 1    
    19    9   10 ar   
    20    9   14 ar   
    21   10   11 ar   
    22   10  136 1    
    23   11   12 ar   
    24   11  126 1    
    25   12   13 ar   
    26   12  137 1    
    27   13   14 ar   
    28   13   15 1    
    29   14  138 1    
    30   15   16 1    
    31   15  139 1    
    32   15  140 1    
    33   16   17 1    
    34   17   18 1    
    35   17  141 1    
    36   17  142 1    
    37   18   19 1    
    38   18   67 1    
    39   18  143 1    
    40   19   20 am   BACKBONE|DICT|INTERRES
    41   19  144 1    
    42   20   21 2    
    43   20   22 1    
    44   22   23 1    
    45   22   24 1    
    46   22  145 1    
    47   23  146 1    
    48   23  147 1    
    49   23  148 1    
    50   24   25 am   BACKBONE|DICT|INTERRES
    51   24  149 1    
    52   25   26 2    
    53   25   27 1    
    54   27   28 1    
    55   27   29 1    
    56   27  150 1    
    57   28  151 1    
    58   28  152 1    
    59   28  153 1    
    60   29   30 am   BACKBONE|DICT|INTERRES
    61   29  154 1    
    62   30   31 2    
    63   30   32 1    
    64   32   33 1    
    65   32   34 1    
    66   32  155 1    
    67   33  156 1    
    68   33  157 1    
    69   33  158 1    
    70   34   35 am   BACKBONE|DICT|INTERRES
    71   34  159 1    
    72   35   36 2    
    73   35   37 1    
    74   37   38 1    
    75   37   39 1    
    76   37  160 1    
    77   38  161 1    
    78   38  162 1    
    79   38  163 1    
    80   39   40 am   BACKBONE|DICT|INTERRES
    81   39  164 1    
    82   40   41 2    
    83   40   42 1    
    84   42   43 1    
    85   42   44 1    
    86   42  165 1    
    87   43  166 1    
    88   43  167 1    
    89   43  168 1    
    90   44   45 am   BACKBONE|DICT|INTERRES
    91   44  169 1    
    92   45   46 2    
    93   45   47 1    
    94   47   48 1    
    95   47   49 1    
    96   47  170 1    
    97   48  171 1    
    98   48  172 1    
    99   48  173 1    
   100   49   50 am   BACKBONE|DICT|INTERRES
   101   49  174 1    
   102   50   51 2    
   103   50   52 1    
   104   52   53 1    
   105   52   54 1    
   106   52  175 1    
   107   53  176 1    
   108   53  177 1    
   109   53  178 1    
   110   54   55 am   BACKBONE|DICT|INTERRES
   111   54  179 1    
   112   55   56 2    
   113   55   57 1    
   114   57   58 1    
   115   57   59 1    
   116   57  180 1    
   117   58  181 1    
   118   58  182 1    
   119   58  183 1    
   120   59   60 am   BACKBONE|DICT|INTERRES
   121   59  184 1    
   122   60   61 2    
   123   60   62 1    
   124   62   63 1    
   125   62   64 1    
   126   62  185 1    
   127   63  186 1    
   128   63  187 1    
   129   63  188 1    
   130   64   65 am   BACKBONE|DICT|INTERRES
   131   64  189 1    
   132   65   66 2    
   133   67   68 2    
   134   67   69 am   BACKBONE|DICT|INTERRES
   135   69   70 1    
   136   69  190 1    
   137   70   71 1    
   138   70   72 1    
   139   70  191 1    
   140   71  192 1    
   141   71  193 1    
   142   71  194 1    
   143   72   73 2    
   144   72   74 am   BACKBONE|DICT|INTERRES
   145   74   75 1    
   146   74  195 1    
   147   75   76 1    
   148   75   77 1    
   149   75  196 1    
   150   76  197 1    
   151   76  198 1    
   152   76  199 1    
   153   77   78 2    
   154   77   79 am   BACKBONE|DICT|INTERRES
   155   79   80 1    
   156   79  200 1    
   157   80   81 1    
   158   80   82 1    
   159   80  201 1    
   160   81  202 1    
   161   81  203 1    
   162   81  204 1    
   163   82   83 2    
   164   82   84 am   BACKBONE|DICT|INTERRES
   165   84   85 1    
   166   84  205 1    
   167   85   86 1    
   168   85   87 1    
   169   85  206 1    
   170   86  207 1    
   171   86  208 1    
   172   86  209 1    
   173   87   88 2    
   174   87   89 am   BACKBONE|DICT|INTERRES
   175   89   90 1    
   176   89  210 1    
   177   90   91 1    
   178   90   92 1    
   179   90  211 1    
   180   91  212 1    
   181   91  213 1    
   182   91  214 1    
   183   92   93 2    
   184   92   94 am   BACKBONE|DICT|INTERRES
   185   94   95 1    
   186   94  215 1    
   187   95   96 1    
   188   95   97 1    
   189   95  216 1    
   190   96  217 1    
   191   96  218 1    
   192   96  219 1    
   193   97   98 2    
   194   97   99 am   BACKBONE|DICT|INTERRES
   195   99  100 1    
   196   99  220 1    
   197  100  101 1    
   198  100  102 1    
   199  100  221 1    
   200  101  222 1    
   201  101  223 1    
   202  101  224 1    
   203  102  103 2    
   204  102  104 am   BACKBONE|DICT|INTERRES
   205  104  105 1    
   206  104  225 1    
   207  105  106 1    
   208  105  107 1    
   209  105  226 1    
   210  106  227 1    
   211  106  228 1    
   212  106  229 1    
   213  107  108 2    
   214  107  109 am   BACKBONE|DICT|INTERRES
   215  109  110 1    
   216  109  230 1    
   217  110  111 1    
   218  110  112 1    
   219  110  231 1    
   220  111  232 1    
   221  111  233 1    
   222  111  234 1    
   223  112  113 2    
   224  112  114 am   BACKBONE|DICT|INTERRES
   225  114  115 1    
   226  114  235 1    
   227  115  116 1    
   228  115  117 1    
   229  115  236 1    
   230  116  237 1    
   231  116  238 1    
   232  116  239 1    
   233  117  118 2    
   234  117  119 am   BACKBONE|DICT|INTERRES
   235  119  120 1    
   236  119  240 1    
   237  120  121 1    
   238  120  124 1    
   239  120  241 1    
   240  121  122 am   BACKBONE|DICT|INTERRES
   241  121  123 2    
   242  122  242 1    
   243  122  243 1    
   244  124  125 1    
   245  124  244 1    
   246  124  245 1    
   247  125  126 1    
   248  126  246 1    
   249  126  247 1    
@<TRIPOS>SUBSTRUCTURE
     1 UNK         1 GROUP             0       ****    0 ROOT    
