@<TRIPOS>MOLECULE
3R540
247   249    1
SMALL
USER_CHARGES


@<TRIPOS>ATOM
      1 CA          4.0636  -10.5236  -49.8027 C.3       0 UNK        -0.1800 
      2 C           3.5886  -11.8272  -50.4421 C.2       0 UNK         0.5000 
      3 O           3.4771  -11.8945  -51.6646 O.2       0 UNK        -0.5000 
      4 N           3.3127  -12.8881  -49.6728 N.am      1 UNK        -0.5000 
      5 CA          3.2930  -12.9422  -48.2077 C.3       1 UNK         0.1400 
      6 C6          3.4334  -14.3973  -47.6824 C.3       23 UNK        -0.0398 
      7 S7          2.2347  -15.5868  -48.3861 S.3       23 UNK        -0.2404 
      8 C8          3.2771  -16.4744  -49.5846 C.3       23 UNK        -0.0205 
      9 C9          2.4323  -17.3355  -50.5092 C.ar      23 UNK        -0.0193 
     10 C10         2.0234  -16.8390  -51.7528 C.ar      23 UNK        -0.1150 
     11 C11         1.2321  -17.6167  -52.6041 C.ar      23 UNK        -0.0193 
     12 C12         0.8476  -18.8957  -52.1927 C.ar      23 UNK        -0.1150 
     13 C13         1.2633  -19.4097  -50.9648 C.ar      23 UNK        -0.0193 
     14 C14         2.0556  -18.6259  -50.1214 C.ar      23 UNK        -0.1150 
     15 C15         0.8347  -20.8111  -50.5711 C.3       23 UNK        -0.0205 
     16 S16        -0.8745  -20.8065  -49.9577 S.3       23 UNK        -0.2404 
     17 C17        -0.6050  -20.5855  -48.1739 C.3       23 UNK        -0.0398 
     18 CA         -0.7378  -21.9249  -47.4086 C.3       11 UNK         0.1400 
     19 N           0.0853  -21.9435  -46.1957 N.am      11 UNK        -0.5000 
     20 C           0.2800  -23.0147  -45.4137 C.2       10 UNK         0.5000 
     21 O          -0.1847  -24.1274  -45.6536 O.2       10 UNK        -0.5000 
     22 CA          1.0828  -22.7981  -44.1184 C.3       10 UNK         0.1400 
     23 CB          2.5923  -22.8476  -44.3953 C.3       10 UNK        -0.1800 
     24 N           0.7399  -21.5414  -43.4523 N.am      10 UNK        -0.5000 
     25 C          -0.4694  -21.2545  -42.9488 C.2       9 UNK         0.5000 
     26 O          -1.4055  -22.0537  -42.9269 O.2       9 UNK        -0.5000 
     27 CA         -0.6906  -19.8137  -42.4507 C.3       9 UNK         0.1400 
     28 CB         -0.1084  -19.6187  -41.0435 C.3       9 UNK        -0.1800 
     29 N          -0.1265  -18.8178  -43.3639 N.am      9 UNK        -0.5000 
     30 C          -0.5267  -18.6431  -44.6321 C.2       8 UNK         0.5000 
     31 O          -1.4582  -19.2620  -45.1461 O.2       8 UNK        -0.5000 
     32 CA          0.2836  -17.6561  -45.4874 C.3       8 UNK         0.1400 
     33 CB         -0.2057  -16.2187  -45.2763 C.3       8 UNK        -0.1800 
     34 N           1.7170  -17.7422  -45.2094 N.am      8 UNK        -0.5000 
     35 C           2.4916  -18.7687  -45.5878 C.2       7 UNK         0.5000 
     36 O           2.0802  -19.7317  -46.2327 O.2       7 UNK        -0.5000 
     37 CA          3.9606  -18.7398  -45.1294 C.3       7 UNK         0.1400 
     38 CB          4.8023  -17.8549  -46.0600 C.3       7 UNK        -0.1800 
     39 N           4.1094  -18.2759  -43.7503 N.am      7 UNK        -0.5000 
     40 C           3.6443  -18.9282  -42.6748 C.2       6 UNK         0.5000 
     41 O           3.0797  -20.0194  -42.7293 O.2       6 UNK        -0.5000 
     42 CA          3.7906  -18.2183  -41.3154 C.3       6 UNK         0.1400 
     43 CB          5.1210  -18.5988  -40.6494 C.3       6 UNK        -0.1800 
     44 N           3.6959  -16.7592  -41.4134 N.am      6 UNK        -0.5000 
     45 C           2.6192  -16.0930  -41.8507 C.2       5 UNK         0.5000 
     46 O           1.5789  -16.6422  -42.2230 O.2       5 UNK        -0.5000 
     47 CA          2.7767  -14.5673  -41.9619 C.3       5 UNK         0.1400 
     48 CB          3.4558  -14.2078  -43.2937 C.3       5 UNK        -0.1800 
     49 N           1.4940  -13.8695  -41.8664 N.am      5 UNK        -0.5000 
     50 C           0.8031  -13.7223  -40.7254 C.2       4 UNK         0.5000 
     51 O           1.1900  -14.1674  -39.6432 O.2       4 UNK        -0.5000 
     52 CA         -0.5131  -12.9169  -40.7640 C.3       4 UNK         0.1400 
     53 CB         -0.3534  -11.5931  -39.9980 C.3       4 UNK        -0.1800 
     54 N          -0.9717  -12.6092  -42.1176 N.am      4 UNK        -0.5000 
     55 C          -1.7063  -13.4239  -42.8849 C.2       3 UNK         0.5000 
     56 O          -2.1237  -14.5211  -42.5142 O.2       3 UNK        -0.5000 
     57 CA         -2.0250  -12.9322  -44.3136 C.3       3 UNK         0.1400 
     58 CB         -3.4369  -12.3288  -44.3685 C.3       3 UNK        -0.1800 
     59 N          -1.0699  -11.9580  -44.8601 N.am      3 UNK        -0.5000 
     60 C           0.2352  -12.1913  -45.0470 C.2       2 UNK         0.5000 
     61 O           0.7987  -13.2232  -44.6830 O.2       2 UNK        -0.5000 
     62 CA          1.0650  -11.0699  -45.6937 C.3       2 UNK         0.1400 
     63 CB          1.6323  -10.1387  -44.6112 C.3       2 UNK        -0.1800 
     64 N           2.1750  -11.6356  -46.4610 N.am      2 UNK        -0.5000 
     65 C           2.0348  -12.2450  -47.6448 C.2       1 UNK         0.5000 
     66 O           0.9766  -12.2675  -48.2791 O.2       1 UNK        -0.5000 
     67 C          -2.2172  -22.2641  -47.1242 C.2       11 UNK         0.5000 
     68 O          -2.8308  -23.0173  -47.8835 O.2       11 UNK        -0.5000 
     69 N          -2.7538  -21.7214  -46.0229 N.am      12 UNK        -0.5000 
     70 CA         -4.0945  -22.0130  -45.5213 C.3       12 UNK         0.1400 
     71 CB         -4.4737  -20.9956  -44.4354 C.3       12 UNK        -0.1800 
     72 C          -4.2249  -23.4570  -45.0080 C.2       12 UNK         0.5000 
     73 O          -5.2007  -24.1268  -45.3450 O.2       12 UNK        -0.5000 
     74 N          -3.2273  -23.9263  -44.2445 N.am      13 UNK        -0.5000 
     75 CA         -3.1530  -25.2915  -43.7145 C.3       13 UNK         0.1400 
     76 CB         -1.9773  -25.3979  -42.7320 C.3       13 UNK        -0.1800 
     77 C          -3.0434  -26.3650  -44.8151 C.2       13 UNK         0.5000 
     78 O          -3.6748  -27.4165  -44.7058 O.2       13 UNK        -0.5000 
     79 N          -2.2745  -26.0654  -45.8704 N.am      14 UNK        -0.5000 
     80 CA         -2.1274  -26.8931  -47.0699 C.3       14 UNK         0.1400 
     81 CB         -0.8674  -26.4406  -47.8258 C.3       14 UNK        -0.1800 
     82 C          -3.3506  -26.8420  -48.0085 C.2       14 UNK         0.5000 
     83 O          -3.4339  -27.6587  -48.9260 O.2       14 UNK        -0.5000 
     84 N          -4.2486  -25.8698  -47.7874 N.am      15 UNK        -0.5000 
     85 CA         -5.4342  -25.5298  -48.5823 C.3       15 UNK         0.1400 
     86 CB         -6.4342  -26.7022  -48.6399 C.3       15 UNK        -0.1800 
     87 C          -5.1080  -24.9615  -49.9797 C.2       15 UNK         0.5000 
     88 O          -6.0086  -24.8279  -50.8079 O.2       15 UNK        -0.5000 
     89 N          -3.8473  -24.5735  -50.2096 N.am      16 UNK        -0.5000 
     90 CA         -3.3822  -23.9181  -51.4318 C.3       16 UNK         0.1400 
     91 CB         -1.8483  -23.9589  -51.4735 C.3       16 UNK        -0.1800 
     92 C          -3.9179  -22.4798  -51.5614 C.2       16 UNK         0.5000 
     93 O          -4.1494  -22.0137  -52.6785 O.2       16 UNK        -0.5000 
     94 N          -4.1586  -21.8230  -50.4170 N.am      17 UNK        -0.5000 
     95 CA         -4.8187  -20.5198  -50.3413 C.3       17 UNK         0.1400 
     96 CB         -4.6169  -19.9174  -48.9436 C.3       17 UNK        -0.1800 
     97 C          -6.3187  -20.6164  -50.6746 C.2       17 UNK         0.5000 
     98 O          -6.8496  -19.7287  -51.3408 O.2       17 UNK        -0.5000 
     99 N          -6.9640  -21.7077  -50.2354 N.am      18 UNK        -0.5000 
    100 CA        -8.3697  -22.0145  -50.5119 C.3       18 UNK         0.1400 
    101 CB        -8.8566  -23.1104  -49.5512 C.3       18 UNK        -0.1800 
    102 C         -8.5945  -22.4236  -51.9790 C.2       18 UNK         0.5000 
    103 O         -9.5897  -22.0178  -52.5796 O.2       18 UNK        -0.5000 
    104 N         -7.6401  -23.1794  -52.5408 N.am      19 UNK        -0.5000 
    105 CA        -7.5713  -23.5342  -53.9608 C.3       19 UNK         0.1400 
    106 CB        -6.5462  -24.6645  -54.1396 C.3       19 UNK        -0.1800 
    107 C         -7.2139  -22.3416  -54.8733 C.2       19 UNK         0.5000 
    108 O         -7.4319  -22.4270  -56.0823 O.2       19 UNK        -0.5000 
    109 N         -6.6780  -21.2657  -54.2774 N.am      20 UNK        -0.5000 
    110 CA        -6.2365  -20.0144  -54.8931 C.3       20 UNK         0.1400 
    111 CB        -7.4301  -19.2454  -55.4969 C.3       20 UNK        -0.1800 
    112 C         -5.0821  -20.2386  -55.8879 C.2       20 UNK         0.5000 
    113 O         -5.1885  -19.8681  -57.0585 O.2       20 UNK        -0.5000 
    114 N         -3.9975  -20.8533  -55.3919 N.am      21 UNK        -0.5000 
    115 CA        -2.7854  -21.1863  -56.1498 C.3       21 UNK         0.1400 
    116 CB        -1.8038  -21.9216  -55.2230 C.3       21 UNK        -0.1800 
    117 C         -2.0986  -19.9736  -56.8144 C.2       21 UNK         0.5000 
    118 O         -1.6204  -20.0883  -57.9440 O.2       21 UNK        -0.5000 
    119 N         -2.0886  -18.8354  -56.1130 N.am      22 UNK        -0.5000 
    120 CA        -1.5539  -17.5444  -56.5791 C.3       22 UNK         0.1400 
    121 C         -2.1971  -16.3186  -55.8656 C.2       22 UNK         0.5000 
    122 N         -3.3297  -16.4631  -55.1868 N.am      22 UNK        -0.7600 
    123 O         -1.6775  -15.2085  -55.9364 O.2       22 UNK        -0.5000 
    124 C124        0.0048  -17.4916  -56.6613 C.3       23 UNK        -0.0398 
    125 S125        0.9060  -18.2908  -55.2888 S.3       23 UNK        -0.2404 
    126 C126        0.7602  -17.0651  -53.9452 C.3       23 UNK        -0.0205 
    127 H127        4.9606  -10.6848  -49.2052 H         1 UNK         0.0600 
    128 H128        4.3080   -9.7897  -50.5710 H         1 UNK         0.0600 
    129 H129        3.2883  -10.0929  -49.1695 H         1 UNK         0.0600 
    130 H130        2.9514  -13.7187  -50.1178 H         1 UNK         0.3000 
    131 H131        4.1620  -12.3942  -47.8393 H         1 UNK         0.0600 
    132 H132        4.4439  -14.7558  -47.8835 H         1 UNK         0.0800 
    133 H133        3.3340  -14.4213  -46.5960 H         1 UNK         0.0800 
    134 H134        3.9982  -17.0948  -49.0522 H         1 UNK         0.0800 
    135 H135        3.8595  -15.7614  -50.1699 H         1 UNK         0.0800 
    136 H136        2.3123  -15.8412  -52.0523 H         1 UNK         0.1150 
    137 H137        0.2179  -19.5005  -52.8302 H         1 UNK         0.1150 
    138 H138        2.3685  -19.0122  -49.1611 H         1 UNK         0.1150 
    139 H139        1.5116  -21.2374  -49.8289 H         1 UNK         0.0800 
    140 H140        0.8908  -21.4654  -51.4425 H         1 UNK         0.0800 
    141 H141       -1.2947  -19.8293  -47.7962 H         1 UNK         0.0800 
    142 H142        0.3873  -20.1600  -48.0385 H         1 UNK         0.0800 
    143 H143       -0.3447  -22.7240  -48.0411 H         1 UNK         0.0600 
    144 H144        0.5546  -21.0776  -45.9540 H         1 UNK         0.3000 
    145 H145        0.8386  -23.6138  -43.4354 H         1 UNK         0.0600 
    146 H146        3.1642  -22.7758  -43.4701 H         1 UNK         0.0600 
    147 H147        2.8702  -23.7854  -44.8779 H         1 UNK         0.0600 
    148 H148        2.9108  -22.0347  -45.0480 H         1 UNK         0.0600 
    149 H149        1.4821  -20.8513  -43.3748 H         1 UNK         0.3000 
    150 H150       -1.7676  -19.6408  -42.3989 H         1 UNK         0.0600 
    151 H151        0.9621  -19.8187  -41.0183 H         1 UNK         0.0600 
    152 H152       -0.5833  -20.2939  -40.3307 H         1 UNK         0.0600 
    153 H153       -0.2683  -18.6010  -40.6866 H         1 UNK         0.0600 
    154 H154        0.6129  -18.2238  -43.0017 H         1 UNK         0.3000 
    155 H155        0.1225  -17.9121  -46.5369 H         1 UNK         0.0600 
    156 H156       -0.0394  -15.8780  -44.2540 H         1 UNK         0.0600 
    157 H157       -1.2739  -16.1379  -45.4797 H         1 UNK         0.0600 
    158 H158        0.3051  -15.5293  -45.9480 H         1 UNK         0.0600 
    159 H159        2.1090  -17.0173  -44.6274 H         1 UNK         0.3000 
    160 H160        4.3475  -19.7595  -45.1854 H         1 UNK         0.0600 
    161 H161        4.4593  -16.8198  -46.0547 H         1 UNK         0.0600 
    162 H162        4.7487  -18.2160  -47.0873 H         1 UNK         0.0600 
    163 H163        5.8530  -17.8630  -45.7698 H         1 UNK         0.0600 
    164 H164        4.5671  -17.3876  -43.6123 H         1 UNK         0.3000 
    165 H165        2.9777  -18.5613  -40.6730 H         1 UNK         0.0600 
    166 H166        5.1996  -18.1691  -39.6506 H         1 UNK         0.0600 
    167 H167        5.9769  -18.2558  -41.2321 H         1 UNK         0.0600 
    168 H168        5.2085  -19.6811  -40.5436 H         1 UNK         0.0600 
    169 H169        4.5154  -16.2380  -41.1362 H         1 UNK         0.3000 
    170 H170        3.4138  -14.2196  -41.1458 H         1 UNK         0.0600 
    171 H171        4.4755  -14.5927  -43.3305 H         1 UNK         0.0600 
    172 H172        2.9193  -14.6290  -44.1444 H         1 UNK         0.0600 
    173 H173        3.5118  -13.1281  -43.4328 H         1 UNK         0.0600 
    174 H174        1.0933  -13.5483  -42.7416 H         1 UNK         0.3000 
    175 H175       -1.2734  -13.5126  -40.2545 H         1 UNK         0.0600 
    176 H176        0.4028  -10.9530  -40.4543 H         1 UNK         0.0600 
    177 H177       -1.2913  -11.0381  -39.9697 H         1 UNK         0.0600 
    178 H178       -0.0529  -11.7708  -38.9646 H         1 UNK         0.0600 
    179 H179       -0.6730  -11.7279  -42.5079 H         1 UNK         0.3000 
    180 H180       -2.0056  -13.8075  -44.9652 H         1 UNK         0.0600 
    181 H181       -3.5117  -11.4260  -43.7610 H         1 UNK         0.0600 
    182 H182       -4.1799  -13.0364  -43.9977 H         1 UNK         0.0600 
    183 H183       -3.7179  -12.0721  -45.3901 H         1 UNK         0.0600 
    184 H184       -1.4569  -11.0752  -45.1615 H         1 UNK         0.3000 
    185 H185        0.4260  -10.4891  -46.3624 H         1 UNK         0.0600 
    186 H186        0.8312   -9.6715  -44.0372 H         1 UNK         0.0600 
    187 H187        2.2685  -10.6778  -43.9076 H         1 UNK         0.0600 
    188 H188        2.2243   -9.3365  -45.0521 H         1 UNK         0.0600 
    189 H189        3.0632  -11.6797  -45.9837 H         1 UNK         0.3000 
    190 H190       -2.2009  -21.0560  -45.4906 H         1 UNK         0.3000 
    191 H191       -4.7976  -21.8988  -46.3474 H         1 UNK         0.0600 
    192 H192       -5.4859  -21.1738  -44.0704 H         1 UNK         0.0600 
    193 H193       -4.4412  -19.9774  -44.8236 H         1 UNK         0.0600 
    194 H194       -3.8019  -21.0464  -43.5787 H         1 UNK         0.0600 
    195 H195       -2.4798  -23.2926  -43.9748 H         1 UNK         0.3000 
    196 H196       -4.0747  -25.4804  -43.1604 H         1 UNK         0.0600 
    197 H197       -1.0234  -25.2100  -43.2246 H         1 UNK         0.0600 
    198 H198       -2.0790  -24.6827  -41.9156 H         1 UNK         0.0600 
    199 H199       -1.9275  -26.3933  -42.2890 H         1 UNK         0.0600 
    200 H200       -1.7198  -25.2129  -45.8413 H         1 UNK         0.3000 
    201 H201       -1.9906  -27.9317  -46.7622 H         1 UNK         0.0600 
    202 H202       -0.9457  -25.4017  -48.1498 H         1 UNK         0.0600 
    203 H203       -0.6994  -27.0506  -48.7143 H         1 UNK         0.0600 
    204 H204        0.0206  -26.5291  -47.1997 H         1 UNK         0.0600 
    205 H205       -4.0772  -25.2550  -47.0020 H         1 UNK         0.3000 
    206 H206       -5.9217  -24.7165  -48.0434 H         1 UNK         0.0600 
    207 H207       -6.6526  -27.0827  -47.6421 H         1 UNK         0.0600 
    208 H208       -7.3810  -26.3871  -49.0798 H         1 UNK         0.0600 
    209 H209       -6.0584  -27.5296  -49.2418 H         1 UNK         0.0600 
    210 H210       -3.1917  -24.6236  -49.4412 H         1 UNK         0.3000 
    211 H211       -3.7556  -24.4818  -52.2884 H         1 UNK         0.0600 
    212 H212       -1.4574  -23.3678  -52.3029 H         1 UNK         0.0600 
    213 H213       -1.4901  -24.9801  -51.6036 H         1 UNK         0.0600 
    214 H214       -1.4106  -23.5729  -50.5536 H         1 UNK         0.0600 
    215 H215       -3.8831  -22.2598  -49.5447 H         1 UNK         0.3000 
    216 H216       -4.3506  -19.8546  -51.0703 H         1 UNK         0.0600 
    217 H217       -5.0784  -20.5306  -48.1709 H         1 UNK         0.0600 
    218 H218       -5.0615  -18.9234  -48.8808 H         1 UNK         0.0600 
    219 H219       -3.5594  -19.8131  -48.7055 H         1 UNK         0.0600 
    220 H220       -6.4416  -22.4012  -49.7235 H         1 UNK         0.3000 
    221 H221       -8.9584  -21.1142  -50.3230 H         1 UNK         0.0600 
    222 H222       -8.7342  -22.8072  -48.5113 H         1 UNK         0.0600 
    223 H223       -8.3171  -24.0466  -49.6937 H         1 UNK         0.0600 
    224 H224       -9.9160  -23.3186  -49.7059 H         1 UNK         0.0600 
    225 H225       -6.9066  -23.5557  -51.9469 H         1 UNK         0.3000 
    226 H226       -8.5508  -23.9054  -54.2686 H         1 UNK         0.0600 
    227 H227       -5.5411  -24.3367  -53.8743 H         1 UNK         0.0600 
    228 H228       -6.7938  -25.5263  -53.5194 H         1 UNK         0.0600 
    229 H229       -6.5168  -25.0059  -55.1750 H         1 UNK         0.0600 
    230 H230       -6.5129  -21.3332  -53.2830 H         1 UNK         0.3000 
    231 H231       -5.8322  -19.4037  -54.0845 H         1 UNK         0.0600 
    232 H232       -7.8781  -19.7778  -56.3363 H         1 UNK         0.0600 
    233 H233       -7.1177  -18.2662  -55.8613 H         1 UNK         0.0600 
    234 H234       -8.2080  -19.0813  -54.7510 H         1 UNK         0.0600 
    235 H235       -4.0244  -21.1731  -54.4266 H         1 UNK         0.3000 
    236 H236       -3.0795  -21.8717  -56.9471 H         1 UNK         0.0600 
    237 H237       -2.2430  -22.8405  -54.8338 H         1 UNK         0.0600 
    238 H238       -0.8925  -22.1967  -55.7555 H         1 UNK         0.0600 
    239 H239       -1.5139  -21.3036  -54.3721 H         1 UNK         0.0600 
    240 H240       -2.4619  -18.8424  -55.1759 H         1 UNK         0.3000 
    241 H241       -1.9117  -17.4255  -57.6035 H         1 UNK         0.0600 
    242 H242       -3.7308  -15.6545  -54.7376 H         1 UNK         0.3800 
    243 H243       -3.8358  -17.3315  -55.1843 H         1 UNK         0.3800 
    244 H244        0.3145  -18.0138  -57.5673 H         1 UNK         0.0800 
    245 H245        0.3750  -16.4734  -56.7899 H         1 UNK         0.0800 
    246 H246        1.3226  -16.1712  -54.2187 H         1 UNK         0.0800 
    247 H247       -0.2800  -16.7628  -53.8314 H         1 UNK         0.0800 
@<TRIPOS>BOND
     1    1    2 1    
     2    1  127 1    
     3    1  128 1    
     4    1  129 1    
     5    2    3 2    
     6    2    4 am   BACKBONE|DICT|INTERRES
     7    4    5 1    
     8    4  130 1    
     9    5    6 1    
    10    5   65 1    
    11    5  131 1    
    12    6    7 1    
    13    6  132 1    
    14    6  133 1    
    15    7    8 1    
    16    8    9 1    
    17    8  134 1    
    18    8  135 1    
    19    9   10 ar   
    20    9   14 ar   
    21   10   11 ar   
    22   10  136 1    
    23   11   12 ar   
    24   11  126 1    
    25   12   13 ar   
    26   12  137 1    
    27   13   14 ar   
    28   13   15 1    
    29   14  138 1    
    30   15   16 1    
    31   15  139 1    
    32   15  140 1    
    33   16   17 1    
    34   17   18 1    
    35   17  141 1    
    36   17  142 1    
    37   18   19 1    
    38   18   67 1    
    39   18  143 1    
    40   19   20 am   BACKBONE|DICT|INTERRES
    41   19  144 1    
    42   20   21 2    
    43   20   22 1    
    44   22   23 1    
    45   22   24 1    
    46   22  145 1    
    47   23  146 1    
    48   23  147 1    
    49   23  148 1    
    50   24   25 am   BACKBONE|DICT|INTERRES
    51   24  149 1    
    52   25   26 2    
    53   25   27 1    
    54   27   28 1    
    55   27   29 1    
    56   27  150 1    
    57   28  151 1    
    58   28  152 1    
    59   28  153 1    
    60   29   30 am   BACKBONE|DICT|INTERRES
    61   29  154 1    
    62   30   31 2    
    63   30   32 1    
    64   32   33 1    
    65   32   34 1    
    66   32  155 1    
    67   33  156 1    
    68   33  157 1    
    69   33  158 1    
    70   34   35 am   BACKBONE|DICT|INTERRES
    71   34  159 1    
    72   35   36 2    
    73   35   37 1    
    74   37   38 1    
    75   37   39 1    
    76   37  160 1    
    77   38  161 1    
    78   38  162 1    
    79   38  163 1    
    80   39   40 am   BACKBONE|DICT|INTERRES
    81   39  164 1    
    82   40   41 2    
    83   40   42 1    
    84   42   43 1    
    85   42   44 1    
    86   42  165 1    
    87   43  166 1    
    88   43  167 1    
    89   43  168 1    
    90   44   45 am   BACKBONE|DICT|INTERRES
    91   44  169 1    
    92   45   46 2    
    93   45   47 1    
    94   47   48 1    
    95   47   49 1    
    96   47  170 1    
    97   48  171 1    
    98   48  172 1    
    99   48  173 1    
   100   49   50 am   BACKBONE|DICT|INTERRES
   101   49  174 1    
   102   50   51 2    
   103   50   52 1    
   104   52   53 1    
   105   52   54 1    
   106   52  175 1    
   107   53  176 1    
   108   53  177 1    
   109   53  178 1    
   110   54   55 am   BACKBONE|DICT|INTERRES
   111   54  179 1    
   112   55   56 2    
   113   55   57 1    
   114   57   58 1    
   115   57   59 1    
   116   57  180 1    
   117   58  181 1    
   118   58  182 1    
   119   58  183 1    
   120   59   60 am   BACKBONE|DICT|INTERRES
   121   59  184 1    
   122   60   61 2    
   123   60   62 1    
   124   62   63 1    
   125   62   64 1    
   126   62  185 1    
   127   63  186 1    
   128   63  187 1    
   129   63  188 1    
   130   64   65 am   BACKBONE|DICT|INTERRES
   131   64  189 1    
   132   65   66 2    
   133   67   68 2    
   134   67   69 am   BACKBONE|DICT|INTERRES
   135   69   70 1    
   136   69  190 1    
   137   70   71 1    
   138   70   72 1    
   139   70  191 1    
   140   71  192 1    
   141   71  193 1    
   142   71  194 1    
   143   72   73 2    
   144   72   74 am   BACKBONE|DICT|INTERRES
   145   74   75 1    
   146   74  195 1    
   147   75   76 1    
   148   75   77 1    
   149   75  196 1    
   150   76  197 1    
   151   76  198 1    
   152   76  199 1    
   153   77   78 2    
   154   77   79 am   BACKBONE|DICT|INTERRES
   155   79   80 1    
   156   79  200 1    
   157   80   81 1    
   158   80   82 1    
   159   80  201 1    
   160   81  202 1    
   161   81  203 1    
   162   81  204 1    
   163   82   83 2    
   164   82   84 am   BACKBONE|DICT|INTERRES
   165   84   85 1    
   166   84  205 1    
   167   85   86 1    
   168   85   87 1    
   169   85  206 1    
   170   86  207 1    
   171   86  208 1    
   172   86  209 1    
   173   87   88 2    
   174   87   89 am   BACKBONE|DICT|INTERRES
   175   89   90 1    
   176   89  210 1    
   177   90   91 1    
   178   90   92 1    
   179   90  211 1    
   180   91  212 1    
   181   91  213 1    
   182   91  214 1    
   183   92   93 2    
   184   92   94 am   BACKBONE|DICT|INTERRES
   185   94   95 1    
   186   94  215 1    
   187   95   96 1    
   188   95   97 1    
   189   95  216 1    
   190   96  217 1    
   191   96  218 1    
   192   96  219 1    
   193   97   98 2    
   194   97   99 am   BACKBONE|DICT|INTERRES
   195   99  100 1    
   196   99  220 1    
   197  100  101 1    
   198  100  102 1    
   199  100  221 1    
   200  101  222 1    
   201  101  223 1    
   202  101  224 1    
   203  102  103 2    
   204  102  104 am   BACKBONE|DICT|INTERRES
   205  104  105 1    
   206  104  225 1    
   207  105  106 1    
   208  105  107 1    
   209  105  226 1    
   210  106  227 1    
   211  106  228 1    
   212  106  229 1    
   213  107  108 2    
   214  107  109 am   BACKBONE|DICT|INTERRES
   215  109  110 1    
   216  109  230 1    
   217  110  111 1    
   218  110  112 1    
   219  110  231 1    
   220  111  232 1    
   221  111  233 1    
   222  111  234 1    
   223  112  113 2    
   224  112  114 am   BACKBONE|DICT|INTERRES
   225  114  115 1    
   226  114  235 1    
   227  115  116 1    
   228  115  117 1    
   229  115  236 1    
   230  116  237 1    
   231  116  238 1    
   232  116  239 1    
   233  117  118 2    
   234  117  119 am   BACKBONE|DICT|INTERRES
   235  119  120 1    
   236  119  240 1    
   237  120  121 1    
   238  120  124 1    
   239  120  241 1    
   240  121  122 am   BACKBONE|DICT|INTERRES
   241  121  123 2    
   242  122  242 1    
   243  122  243 1    
   244  124  125 1    
   245  124  244 1    
   246  124  245 1    
   247  125  126 1    
   248  126  246 1    
   249  126  247 1    
@<TRIPOS>SUBSTRUCTURE
     1 UNK         1 GROUP             0       ****    0 ROOT    
