@<TRIPOS>MOLECULE
3R540
247   249    1
SMALL
USER_CHARGES


@<TRIPOS>ATOM
      1 CA         -2.5587  -11.7281  -40.8997 C.3       0 UNK        -0.1800 
      2 C          -2.2477  -12.1945  -42.3142 C.2       0 UNK         0.5000 
      3 O          -1.7808  -11.4010  -43.1310 O.2       0 UNK        -0.5000 
      4 N          -2.4898  -13.4810  -42.6023 N.am      1 UNK        -0.5000 
      5 CA         -2.2984  -14.1223  -43.9118 C.3       1 UNK         0.1400 
      6 C6         -2.7223  -15.6101  -43.8909 C.3       23 UNK        -0.0398 
      7 S7         -4.5091  -15.8490  -43.6170 S.3       23 UNK        -0.2404 
      8 C8         -5.1970  -15.5646  -45.2824 C.3       23 UNK        -0.0205 
      9 C9         -4.6078  -16.4930  -46.3357 C.ar      23 UNK        -0.0193 
     10 C10        -3.6597  -16.0118  -47.2424 C.ar      23 UNK        -0.1150 
     11 C11        -3.1272  -16.8489  -48.2259 C.ar      23 UNK        -0.0193 
     12 C12        -3.5331  -18.1859  -48.2870 C.ar      23 UNK        -0.1150 
     13 C13        -4.4823  -18.6808  -47.3861 C.ar      23 UNK        -0.0193 
     14 C14        -5.0210  -17.8251  -46.4183 C.ar      23 UNK        -0.1150 
     15 C15        -4.9550  -20.1269  -47.4868 C.3       23 UNK        -0.0205 
     16 S16        -4.7946  -21.0335  -45.9143 S.3       23 UNK        -0.2404 
     17 C17        -2.9841  -21.1458  -45.7306 C.3       23 UNK        -0.0398 
     18 CA         -2.5139  -22.6133  -45.6017 C.3       11 UNK         0.1400 
     19 N          -1.1389  -22.8070  -46.0613 N.am      11 UNK        -0.5000 
     20 C          -0.5338  -23.9918  -46.2244 C.2       10 UNK         0.5000 
     21 O          -1.1039  -25.0765  -46.0949 O.2       10 UNK        -0.5000 
     22 CA          0.9692  -23.9551  -46.5541 C.3       10 UNK         0.1400 
     23 CB          1.1980  -23.8819  -48.0712 C.3       10 UNK        -0.1800 
     24 N           1.6435  -22.8349  -45.8950 N.am      10 UNK        -0.5000 
     25 C           1.8419  -22.7489  -44.5713 C.2       9 UNK         0.5000 
     26 O           1.5341  -23.6366  -43.7770 O.2       9 UNK        -0.5000 
     27 CA          2.4247  -21.4257  -44.0440 C.3       9 UNK         0.1400 
     28 CB          3.9506  -21.3965  -44.2126 C.3       9 UNK        -0.1800 
     29 N           1.8329  -20.2609  -44.7045 N.am      9 UNK        -0.5000 
     30 C           0.5513  -19.8872  -44.5606 C.2       8 UNK         0.5000 
     31 O          -0.2417  -20.4594  -43.8139 O.2       8 UNK        -0.5000 
     32 CA          0.0530  -18.7104  -45.4244 C.3       8 UNK         0.1400 
     33 CB          0.3046  -17.3905  -44.6916 C.3       8 UNK        -0.1800 
     34 N           0.6908  -18.6331  -46.7372 N.am      8 UNK        -0.5000 
     35 C           0.7370  -19.6191  -47.6437 C.2       7 UNK         0.5000 
     36 O           0.0886  -20.6592  -47.5405 O.2       7 UNK        -0.5000 
     37 CA          1.7231  -19.4582  -48.8205 C.3       7 UNK         0.1400 
     38 CB          0.9623  -19.2065  -50.1303 C.3       7 UNK        -0.1800 
     39 N           2.7204  -18.3980  -48.6334 N.am      7 UNK        -0.5000 
     40 C           3.6113  -18.3051  -47.6322 C.2       6 UNK         0.5000 
     41 O           3.7545  -19.1714  -46.7687 O.2       6 UNK        -0.5000 
     42 CA          4.4285  -16.9984  -47.5394 C.3       6 UNK         0.1400 
     43 CB          5.8711  -17.2332  -48.0112 C.3       6 UNK        -0.1800 
     44 N           3.8505  -15.8855  -48.3027 N.am      6 UNK        -0.5000 
     45 C           2.6720  -15.2993  -48.0487 C.2       5 UNK         0.5000 
     46 O           1.9440  -15.5981  -47.0995 O.2       5 UNK        -0.5000 
     47 CA          2.1944  -14.2897  -49.0991 C.3       5 UNK         0.1400 
     48 CB          1.6924  -15.0486  -50.3449 C.3       5 UNK        -0.1800 
     49 N           1.1361  -13.4486  -48.5440 N.am      5 UNK        -0.5000 
     50 C           0.6582  -12.3366  -49.1196 C.2       4 UNK         0.5000 
     51 O           1.0480  -11.9056  -50.2052 O.2       4 UNK        -0.5000 
     52 CA         -0.4100  -11.5526  -48.3410 C.3       4 UNK         0.1400 
     53 CB         -1.7647  -12.2798  -48.3535 C.3       4 UNK        -0.1800 
     54 N           0.0214  -11.3124  -46.9653 N.am      4 UNK        -0.5000 
     55 C           0.8731  -10.3385  -46.6072 C.2       3 UNK         0.5000 
     56 O           1.3308   -9.5119  -47.3974 O.2       3 UNK        -0.5000 
     57 CA          1.2893  -10.2580  -45.1249 C.3       3 UNK         0.1400 
     58 CB          0.4796   -9.1747  -44.3961 C.3       3 UNK        -0.1800 
     59 N           1.1340  -11.5305  -44.4220 N.am      3 UNK        -0.5000 
     60 C           1.9556  -12.5798  -44.5750 C.2       2 UNK         0.5000 
     61 O           2.9821  -12.5454  -45.2543 O.2       2 UNK        -0.5000 
     62 CA          1.5607  -13.8954  -43.8735 C.3       2 UNK         0.1400 
     63 CB          2.3743  -14.0883  -42.5854 C.3       2 UNK        -0.1800 
     64 N           0.1344  -14.0019  -43.5537 N.am      2 UNK        -0.5000 
     65 C          -0.8592  -14.0040  -44.4541 C.2       1 UNK         0.5000 
     66 O          -0.6774  -13.8958  -45.6667 O.2       1 UNK        -0.5000 
     67 C          -2.7206  -23.1746  -44.1813 C.2       11 UNK         0.5000 
     68 O          -3.6390  -23.9663  -43.9668 O.2       11 UNK        -0.5000 
     69 N          -1.8234  -22.8074  -43.2571 N.am      12 UNK        -0.5000 
     70 CA         -1.7945  -23.3138  -41.8855 C.3       12 UNK         0.1400 
     71 CB         -0.7441  -22.5336  -41.0806 C.3       12 UNK        -0.1800 
     72 C          -1.5289  -24.8297  -41.8061 C.2       12 UNK         0.5000 
     73 O          -2.1193  -25.5024  -40.9600 O.2       12 UNK        -0.5000 
     74 N          -0.6538  -25.3366  -42.6853 N.am      13 UNK        -0.5000 
     75 CA         -0.2805  -26.7462  -42.7578 C.3       13 UNK         0.1400 
     76 CB          1.0049  -26.9023  -43.5851 C.3       13 UNK        -0.1800 
     77 C          -1.3958  -27.6487  -43.3145 C.2       13 UNK         0.5000 
     78 O          -1.7131  -28.6594  -42.6848 O.2       13 UNK        -0.5000 
     79 N          -1.9414  -27.3056  -44.4910 N.am      14 UNK        -0.5000 
     80 CA         -2.8073  -28.2026  -45.2632 C.3       14 UNK         0.1400 
     81 CB         -1.9383  -29.2409  -46.0060 C.3       14 UNK        -0.1800 
     82 C          -3.7701  -27.4634  -46.2123 C.2       14 UNK         0.5000 
     83 O          -4.1591  -28.0323  -47.2332 O.2       14 UNK        -0.5000 
     84 N          -4.1534  -26.2231  -45.8730 N.am      15 UNK        -0.5000 
     85 CA         -5.0972  -25.3678  -46.6126 C.3       15 UNK         0.1400 
     86 CB         -6.5068  -25.9961  -46.6508 C.3       15 UNK        -0.1800 
     87 C          -4.6030  -24.9244  -48.0098 C.2       15 UNK         0.5000 
     88 O          -5.4166  -24.5177  -48.8409 O.2       15 UNK        -0.5000 
     89 N          -3.2783  -24.9645  -48.2206 N.am      16 UNK        -0.5000 
     90 CA         -2.5511  -24.5412  -49.4191 C.3       16 UNK         0.1400 
     91 CB         -2.5769  -22.9993  -49.5486 C.3       16 UNK        -0.1800 
     92 C          -3.0040  -25.2971  -50.6885 C.2       16 UNK         0.5000 
     93 O          -3.1511  -26.5203  -50.6466 O.2       16 UNK        -0.5000 
     94 N          -3.1886  -24.5707  -51.7938 N.am      17 UNK        -0.5000 
     95 CA         -3.6214  -25.0593  -53.0964 C.3       17 UNK         0.1400 
     96 CB         -2.4396  -25.7266  -53.8264 C.3       17 UNK        -0.1800 
     97 C          -4.1538  -23.8618  -53.8954 C.2       17 UNK         0.5000 
     98 O          -3.9323  -22.7141  -53.4992 O.2       17 UNK        -0.5000 
     99 N          -4.7984  -24.1373  -55.0368 N.am      18 UNK        -0.5000 
    100 CA        -5.3463  -23.1337  -55.9606 C.3       18 UNK         0.1400 
    101 CB        -6.1164  -23.8547  -57.0777 C.3       18 UNK        -0.1800 
    102 C         -4.2935  -22.1764  -56.5626 C.2       18 UNK         0.5000 
    103 O         -4.6493  -21.0871  -57.0129 O.2       18 UNK        -0.5000 
    104 N         -3.0187  -22.5892  -56.5382 N.am      19 UNK        -0.5000 
    105 CA        -1.8581  -21.7938  -56.9351 C.3       19 UNK         0.1400 
    106 CB        -0.6417  -22.7254  -57.0509 C.3       19 UNK        -0.1800 
    107 C         -1.5465  -20.6217  -55.9806 C.2       19 UNK         0.5000 
    108 O         -0.8543  -19.6892  -56.3924 O.2       19 UNK        -0.5000 
    109 N         -2.0543  -20.6610  -54.7380 N.am      20 UNK        -0.5000 
    110 CA        -1.8768  -19.6220  -53.7183 C.3       20 UNK         0.1400 
    111 CB        -2.0661  -20.2401  -52.3209 C.3       20 UNK        -0.1800 
    112 C         -2.7976  -18.4059  -53.9583 C.2       20 UNK         0.5000 
    113 O         -3.5668  -18.0179  -53.0772 O.2       20 UNK        -0.5000 
    114 N         -2.6973  -17.8101  -55.1520 N.am      21 UNK        -0.5000 
    115 CA        -3.4175  -16.6123  -55.5846 C.3       21 UNK         0.1400 
    116 CB        -3.4897  -16.6132  -57.1220 C.3       21 UNK        -0.1800 
    117 C         -2.7621  -15.3366  -55.0145 C.2       21 UNK         0.5000 
    118 O         -2.2876  -14.4845  -55.7678 O.2       21 UNK        -0.5000 
    119 N         -2.7129  -15.2548  -53.6815 N.am      22 UNK        -0.5000 
    120 CA        -2.0762  -14.1800  -52.9060 C.3       22 UNK         0.1400 
    121 C         -2.8760  -12.8448  -52.8264 C.2       22 UNK         0.5000 
    122 N         -4.1110  -12.7763  -53.3085 N.am      22 UNK        -0.7600 
    123 O         -2.3593  -11.8472  -52.3315 O.2       22 UNK        -0.5000 
    124 C124       -1.6411  -14.6924  -51.5099 C.3       23 UNK        -0.0398 
    125 S125       -3.0240  -15.2951  -50.4841 S.3       23 UNK        -0.2404 
    126 C126       -2.1445  -16.2887  -49.2406 C.3       23 UNK        -0.0205 
    127 H127       -1.6544  -11.3506  -40.4225 H         1 UNK         0.0600 
    128 H128       -2.9572  -12.5352  -40.2846 H         1 UNK         0.0600 
    129 H129       -3.2938  -10.9238  -40.9240 H         1 UNK         0.0600 
    130 H130       -2.8865  -14.0744  -41.8872 H         1 UNK         0.3000 
    131 H131       -2.9358  -13.5927  -44.6226 H         1 UNK         0.0600 
    132 H132       -2.4365  -16.1207  -44.8103 H         1 UNK         0.0800 
    133 H133       -2.1953  -16.1364  -43.0936 H         1 UNK         0.0800 
    134 H134       -5.0419  -14.5215  -45.5616 H         1 UNK         0.0800 
    135 H135       -6.2779  -15.7068  -45.2434 H         1 UNK         0.0800 
    136 H136       -3.3456  -14.9785  -47.1961 H         1 UNK         0.1150 
    137 H137       -3.1270  -18.8336  -49.0515 H         1 UNK         0.1150 
    138 H138       -5.7614  -18.1978  -45.7243 H         1 UNK         0.1150 
    139 H139       -4.4127  -20.6652  -48.2657 H         1 UNK         0.0800 
    140 H140       -6.0038  -20.1293  -47.7862 H         1 UNK         0.0800 
    141 H141       -2.6796  -20.5428  -44.8744 H         1 UNK         0.0800 
    142 H142       -2.5188  -20.6832  -46.6019 H         1 UNK         0.0800 
    143 H143       -3.1304  -23.2078  -46.2696 H         1 UNK         0.0600 
    144 H144       -0.6105  -21.9704  -46.2879 H         1 UNK         0.3000 
    145 H145        1.4174  -24.8814  -46.1908 H         1 UNK         0.0600 
    146 H146        2.2604  -23.8243  -48.3081 H         1 UNK         0.0600 
    147 H147        0.8070  -24.7728  -48.5631 H         1 UNK         0.0600 
    148 H148        0.7067  -23.0183  -48.5197 H         1 UNK         0.0600 
    149 H149        1.8805  -22.0425  -46.4732 H         1 UNK         0.3000 
    150 H150        2.1991  -21.3627  -42.9773 H         1 UNK         0.0600 
    151 H151        4.2428  -21.4587  -45.2615 H         1 UNK         0.0600 
    152 H152        4.4163  -22.2339  -43.6915 H         1 UNK         0.0600 
    153 H153        4.3749  -20.4803  -43.8016 H         1 UNK         0.0600 
    154 H154        2.4278  -19.7577  -45.3554 H         1 UNK         0.3000 
    155 H155       -1.0209  -18.8260  -45.5803 H         1 UNK         0.0600 
    156 H156       -0.0578  -16.5550  -45.2867 H         1 UNK         0.0600 
    157 H157        1.3672  -17.2275  -44.5067 H         1 UNK         0.0600 
    158 H158       -0.2055  -17.3678  -43.7285 H         1 UNK         0.0600 
    159 H159        1.2326  -17.7969  -46.9145 H         1 UNK         0.3000 
    160 H160        2.2617  -20.4031  -48.9135 H         1 UNK         0.0600 
    161 H161        0.4333  -18.2541  -50.1125 H         1 UNK         0.0600 
    162 H162        0.2260  -19.9912  -50.3081 H         1 UNK         0.0600 
    163 H163        1.6384  -19.1994  -50.9854 H         1 UNK         0.0600 
    164 H164        2.6871  -17.6375  -49.2945 H         1 UNK         0.3000 
    165 H165        4.4532  -16.7068  -46.4874 H         1 UNK         0.0600 
    166 H166        6.4811  -16.3399  -47.8756 H         1 UNK         0.0600 
    167 H167        5.9100  -17.5112  -49.0652 H         1 UNK         0.0600 
    168 H168        6.3429  -18.0357  -47.4424 H         1 UNK         0.0600 
    169 H169        4.3785  -15.5839  -49.1094 H         1 UNK         0.3000 
    170 H170        3.0381  -13.6519  -49.3706 H         1 UNK         0.0600 
    171 H171        2.4752  -15.6779  -50.7694 H         1 UNK         0.0600 
    172 H172        0.8508  -15.6960  -50.0988 H         1 UNK         0.0600 
    173 H173        1.3784  -14.3690  -51.1362 H         1 UNK         0.0600 
    174 H174        0.7895  -13.7441  -47.6370 H         1 UNK         0.3000 
    175 H175       -0.5531  -10.5898  -48.8367 H         1 UNK         0.0600 
    176 H176       -1.6880  -13.2996  -47.9787 H         1 UNK         0.0600 
    177 H177       -2.5022  -11.7544  -47.7468 H         1 UNK         0.0600 
    178 H178       -2.1618  -12.3366  -49.3674 H         1 UNK         0.0600 
    179 H179       -0.2706  -11.9962  -46.2763 H         1 UNK         0.3000 
    180 H180        2.3424   -9.9706  -45.0917 H         1 UNK         0.0600 
    181 H181       -0.5911   -9.3768  -44.4364 H         1 UNK         0.0600 
    182 H182        0.6438   -8.1960  -44.8485 H         1 UNK         0.0600 
    183 H183        0.7691   -9.1011  -43.3477 H         1 UNK         0.0600 
    184 H184        0.2951  -11.6380  -43.8638 H         1 UNK         0.3000 
    185 H185        1.8082  -14.7091  -44.5572 H         1 UNK         0.0600 
    186 H186        2.1716  -15.0591  -42.1325 H         1 UNK         0.0600 
    187 H187        3.4451  -14.0441  -42.7889 H         1 UNK         0.0600 
    188 H188        2.1476  -13.3174  -41.8479 H         1 UNK         0.0600 
    189 H189       -0.1057  -14.0695  -42.5755 H         1 UNK         0.3000 
    190 H190       -1.1176  -22.1176  -43.5023 H         1 UNK         0.3000 
    191 H191       -2.7737  -23.1253  -41.4406 H         1 UNK         0.0600 
    192 H192       -0.7165  -22.8702  -40.0435 H         1 UNK         0.0600 
    193 H193       -0.9677  -21.4666  -41.0713 H         1 UNK         0.0600 
    194 H194        0.2566  -22.6607  -41.4949 H         1 UNK         0.0600 
    195 H195       -0.1552  -24.7004  -43.2976 H         1 UNK         0.3000 
    196 H196       -0.0590  -27.0845  -41.7432 H         1 UNK         0.0600 
    197 H197        0.8688  -26.5608  -44.6107 H         1 UNK         0.0600 
    198 H198        1.8270  -26.3352  -43.1483 H         1 UNK         0.0600 
    199 H199        1.3175  -27.9464  -43.6270 H         1 UNK         0.0600 
    200 H200       -1.6267  -26.4615  -44.9659 H         1 UNK         0.3000 
    201 H201       -3.4572  -28.7421  -44.5713 H         1 UNK         0.0600 
    202 H202       -1.2793  -28.7600  -46.7297 H         1 UNK         0.0600 
    203 H203       -2.5525  -29.9625  -46.5459 H         1 UNK         0.0600 
    204 H204       -1.3168  -29.8112  -45.3157 H         1 UNK         0.0600 
    205 H205       -3.7878  -25.8146  -45.0195 H         1 UNK         0.3000 
    206 H206       -5.1864  -24.4488  -46.0337 H         1 UNK         0.0600 
    207 H207       -6.8340  -26.2919  -45.6541 H         1 UNK         0.0600 
    208 H208       -7.2408  -25.2856  -47.0325 H         1 UNK         0.0600 
    209 H209       -6.5441  -26.8762  -47.2930 H         1 UNK         0.0600 
    210 H210       -2.6998  -25.3307  -47.4737 H         1 UNK         0.3000 
    211 H211       -1.5147  -24.8367  -49.2567 H         1 UNK         0.0600 
    212 H212       -1.9076  -22.6577  -50.3382 H         1 UNK         0.0600 
    213 H213       -2.2413  -22.5193  -48.6304 H         1 UNK         0.0600 
    214 H214       -3.5768  -22.6240  -49.7691 H         1 UNK         0.0600 
    215 H215       -3.1081  -23.5618  -51.7517 H         1 UNK         0.3000 
    216 H216       -4.4342  -25.7761  -52.9630 H         1 UNK         0.0600 
    217 H217       -1.6161  -25.0275  -53.9783 H         1 UNK         0.0600 
    218 H218       -2.7386  -26.1018  -54.8056 H         1 UNK         0.0600 
    219 H219       -2.0542  -26.5770  -53.2639 H         1 UNK         0.0600 
    220 H220       -4.9310  -25.1033  -55.3008 H         1 UNK         0.3000 
    221 H221       -6.0532  -22.5195  -55.3991 H         1 UNK         0.0600 
    222 H222       -6.9254  -24.4622  -56.6716 H         1 UNK         0.0600 
    223 H223       -5.4638  -24.5072  -57.6590 H         1 UNK         0.0600 
    224 H224       -6.5655  -23.1398  -57.7685 H         1 UNK         0.0600 
    225 H225       -2.8280  -23.5044  -56.1592 H         1 UNK         0.3000 
    226 H226       -2.0591  -21.3676  -57.9202 H         1 UNK         0.0600 
    227 H227       -0.4027  -23.1954  -56.0959 H         1 UNK         0.0600 
    228 H228       -0.8176  -23.5161  -57.7805 H         1 UNK         0.0600 
    229 H229        0.2427  -22.1762  -57.3768 H         1 UNK         0.0600 
    230 H230       -2.6588  -21.4333  -54.4787 H         1 UNK         0.3000 
    231 H231       -0.8493  -19.2561  -53.7713 H         1 UNK         0.0600 
    232 H232       -3.0838  -20.6017  -52.1727 H         1 UNK         0.0600 
    233 H233       -1.8674  -19.5058  -51.5394 H         1 UNK         0.0600 
    234 H234       -1.3839  -21.0755  -52.1646 H         1 UNK         0.0600 
    235 H235       -2.0229  -18.1950  -55.8056 H         1 UNK         0.3000 
    236 H236       -4.4398  -16.6542  -55.2030 H         1 UNK         0.0600 
    237 H237       -3.9985  -17.5044  -57.4905 H         1 UNK         0.0600 
    238 H238       -4.0440  -15.7484  -57.4888 H         1 UNK         0.0600 
    239 H239       -2.4967  -16.5852  -57.5726 H         1 UNK         0.0600 
    240 H240       -3.1226  -16.0102  -53.1413 H         1 UNK         0.3000 
    241 H241       -1.1568  -13.9180  -53.4333 H         1 UNK         0.0600 
    242 H242       -4.6169  -11.9061  -53.2575 H         1 UNK         0.3800 
    243 H243       -4.5478  -13.5888  -53.7123 H         1 UNK         0.3800 
    244 H244       -1.1050  -13.9166  -50.9630 H         1 UNK         0.0800 
    245 H245       -0.9345  -15.5117  -51.6435 H         1 UNK         0.0800 
    246 H246       -1.3976  -15.6759  -48.7330 H         1 UNK         0.0800 
    247 H247       -1.6073  -17.0965  -49.7379 H         1 UNK         0.0800 
@<TRIPOS>BOND
     1    1    2 1    
     2    1  127 1    
     3    1  128 1    
     4    1  129 1    
     5    2    3 2    
     6    2    4 am   BACKBONE|DICT|INTERRES
     7    4    5 1    
     8    4  130 1    
     9    5    6 1    
    10    5   65 1    
    11    5  131 1    
    12    6    7 1    
    13    6  132 1    
    14    6  133 1    
    15    7    8 1    
    16    8    9 1    
    17    8  134 1    
    18    8  135 1    
    19    9   10 ar   
    20    9   14 ar   
    21   10   11 ar   
    22   10  136 1    
    23   11   12 ar   
    24   11  126 1    
    25   12   13 ar   
    26   12  137 1    
    27   13   14 ar   
    28   13   15 1    
    29   14  138 1    
    30   15   16 1    
    31   15  139 1    
    32   15  140 1    
    33   16   17 1    
    34   17   18 1    
    35   17  141 1    
    36   17  142 1    
    37   18   19 1    
    38   18   67 1    
    39   18  143 1    
    40   19   20 am   BACKBONE|DICT|INTERRES
    41   19  144 1    
    42   20   21 2    
    43   20   22 1    
    44   22   23 1    
    45   22   24 1    
    46   22  145 1    
    47   23  146 1    
    48   23  147 1    
    49   23  148 1    
    50   24   25 am   BACKBONE|DICT|INTERRES
    51   24  149 1    
    52   25   26 2    
    53   25   27 1    
    54   27   28 1    
    55   27   29 1    
    56   27  150 1    
    57   28  151 1    
    58   28  152 1    
    59   28  153 1    
    60   29   30 am   BACKBONE|DICT|INTERRES
    61   29  154 1    
    62   30   31 2    
    63   30   32 1    
    64   32   33 1    
    65   32   34 1    
    66   32  155 1    
    67   33  156 1    
    68   33  157 1    
    69   33  158 1    
    70   34   35 am   BACKBONE|DICT|INTERRES
    71   34  159 1    
    72   35   36 2    
    73   35   37 1    
    74   37   38 1    
    75   37   39 1    
    76   37  160 1    
    77   38  161 1    
    78   38  162 1    
    79   38  163 1    
    80   39   40 am   BACKBONE|DICT|INTERRES
    81   39  164 1    
    82   40   41 2    
    83   40   42 1    
    84   42   43 1    
    85   42   44 1    
    86   42  165 1    
    87   43  166 1    
    88   43  167 1    
    89   43  168 1    
    90   44   45 am   BACKBONE|DICT|INTERRES
    91   44  169 1    
    92   45   46 2    
    93   45   47 1    
    94   47   48 1    
    95   47   49 1    
    96   47  170 1    
    97   48  171 1    
    98   48  172 1    
    99   48  173 1    
   100   49   50 am   BACKBONE|DICT|INTERRES
   101   49  174 1    
   102   50   51 2    
   103   50   52 1    
   104   52   53 1    
   105   52   54 1    
   106   52  175 1    
   107   53  176 1    
   108   53  177 1    
   109   53  178 1    
   110   54   55 am   BACKBONE|DICT|INTERRES
   111   54  179 1    
   112   55   56 2    
   113   55   57 1    
   114   57   58 1    
   115   57   59 1    
   116   57  180 1    
   117   58  181 1    
   118   58  182 1    
   119   58  183 1    
   120   59   60 am   BACKBONE|DICT|INTERRES
   121   59  184 1    
   122   60   61 2    
   123   60   62 1    
   124   62   63 1    
   125   62   64 1    
   126   62  185 1    
   127   63  186 1    
   128   63  187 1    
   129   63  188 1    
   130   64   65 am   BACKBONE|DICT|INTERRES
   131   64  189 1    
   132   65   66 2    
   133   67   68 2    
   134   67   69 am   BACKBONE|DICT|INTERRES
   135   69   70 1    
   136   69  190 1    
   137   70   71 1    
   138   70   72 1    
   139   70  191 1    
   140   71  192 1    
   141   71  193 1    
   142   71  194 1    
   143   72   73 2    
   144   72   74 am   BACKBONE|DICT|INTERRES
   145   74   75 1    
   146   74  195 1    
   147   75   76 1    
   148   75   77 1    
   149   75  196 1    
   150   76  197 1    
   151   76  198 1    
   152   76  199 1    
   153   77   78 2    
   154   77   79 am   BACKBONE|DICT|INTERRES
   155   79   80 1    
   156   79  200 1    
   157   80   81 1    
   158   80   82 1    
   159   80  201 1    
   160   81  202 1    
   161   81  203 1    
   162   81  204 1    
   163   82   83 2    
   164   82   84 am   BACKBONE|DICT|INTERRES
   165   84   85 1    
   166   84  205 1    
   167   85   86 1    
   168   85   87 1    
   169   85  206 1    
   170   86  207 1    
   171   86  208 1    
   172   86  209 1    
   173   87   88 2    
   174   87   89 am   BACKBONE|DICT|INTERRES
   175   89   90 1    
   176   89  210 1    
   177   90   91 1    
   178   90   92 1    
   179   90  211 1    
   180   91  212 1    
   181   91  213 1    
   182   91  214 1    
   183   92   93 2    
   184   92   94 am   BACKBONE|DICT|INTERRES
   185   94   95 1    
   186   94  215 1    
   187   95   96 1    
   188   95   97 1    
   189   95  216 1    
   190   96  217 1    
   191   96  218 1    
   192   96  219 1    
   193   97   98 2    
   194   97   99 am   BACKBONE|DICT|INTERRES
   195   99  100 1    
   196   99  220 1    
   197  100  101 1    
   198  100  102 1    
   199  100  221 1    
   200  101  222 1    
   201  101  223 1    
   202  101  224 1    
   203  102  103 2    
   204  102  104 am   BACKBONE|DICT|INTERRES
   205  104  105 1    
   206  104  225 1    
   207  105  106 1    
   208  105  107 1    
   209  105  226 1    
   210  106  227 1    
   211  106  228 1    
   212  106  229 1    
   213  107  108 2    
   214  107  109 am   BACKBONE|DICT|INTERRES
   215  109  110 1    
   216  109  230 1    
   217  110  111 1    
   218  110  112 1    
   219  110  231 1    
   220  111  232 1    
   221  111  233 1    
   222  111  234 1    
   223  112  113 2    
   224  112  114 am   BACKBONE|DICT|INTERRES
   225  114  115 1    
   226  114  235 1    
   227  115  116 1    
   228  115  117 1    
   229  115  236 1    
   230  116  237 1    
   231  116  238 1    
   232  116  239 1    
   233  117  118 2    
   234  117  119 am   BACKBONE|DICT|INTERRES
   235  119  120 1    
   236  119  240 1    
   237  120  121 1    
   238  120  124 1    
   239  120  241 1    
   240  121  122 am   BACKBONE|DICT|INTERRES
   241  121  123 2    
   242  122  242 1    
   243  122  243 1    
   244  124  125 1    
   245  124  244 1    
   246  124  245 1    
   247  125  126 1    
   248  126  246 1    
   249  126  247 1    
@<TRIPOS>SUBSTRUCTURE
     1 UNK         1 GROUP             0       ****    0 ROOT    
