@<TRIPOS>MOLECULE
3R540
247   249    1
SMALL
USER_CHARGES


@<TRIPOS>ATOM
      1 CA         -1.9612  -13.0663  -44.9193 C.3       0 UNK        -0.1800 
      2 C          -1.7296  -13.1368  -46.4218 C.2       0 UNK         0.5000 
      3 O          -0.9752  -12.3278  -46.9598 O.2       0 UNK        -0.5000 
      4 N          -2.3567  -14.1100  -47.0967 N.am      1 UNK        -0.5000 
      5 CA         -2.3044  -14.3324  -48.5506 C.3       1 UNK         0.1400 
      6 C6         -3.2674  -15.4636  -48.9948 C.3       23 UNK        -0.0398 
      7 S7         -3.0225  -17.0574  -48.1228 S.3       23 UNK        -0.2404 
      8 C8         -2.8679  -18.2374  -49.4984 C.3       23 UNK        -0.0205 
      9 C9         -1.4345  -18.3993  -49.9789 C.ar      23 UNK        -0.0193 
     10 C10        -0.9038  -17.5162  -50.9205 C.ar      23 UNK        -0.1150 
     11 C11         0.3903  -17.6954  -51.4153 C.ar      23 UNK        -0.0193 
     12 C12         1.1571  -18.7727  -50.9626 C.ar      23 UNK        -0.1150 
     13 C13         0.6304  -19.6789  -50.0373 C.ar      23 UNK        -0.0193 
     14 C14        -0.6606  -19.4770  -49.5384 C.ar      23 UNK        -0.1150 
     15 C15         1.4213  -20.9219  -49.6536 C.3       23 UNK        -0.0205 
     16 S16         2.5248  -20.6844  -48.2211 S.3       23 UNK        -0.2404 
     17 C17         1.3809  -20.5711  -46.8039 C.3       23 UNK        -0.0398 
     18 CA          0.9445  -21.9484  -46.2309 C.3       11 UNK         0.1400 
     19 N           0.7080  -21.9009  -44.7836 N.am      11 UNK        -0.5000 
     20 C           0.3734  -22.9485  -44.0137 C.2       10 UNK         0.5000 
     21 O           0.3135  -24.1085  -44.4193 O.2       10 UNK        -0.5000 
     22 CA         -0.0311  -22.6397  -42.5607 C.3       10 UNK         0.1400 
     23 CB          1.1996  -22.5273  -41.6484 C.3       10 UNK        -0.1800 
     24 N          -0.8385  -21.4223  -42.4679 N.am      10 UNK        -0.5000 
     25 C          -2.0810  -21.3040  -42.9604 C.2       9 UNK         0.5000 
     26 O          -2.7030  -22.2324  -43.4753 O.2       9 UNK        -0.5000 
     27 CA         -2.7080  -19.8987  -42.9246 C.3       9 UNK         0.1400 
     28 CB         -3.3515  -19.6202  -41.5586 C.3       9 UNK        -0.1800 
     29 N          -1.7282  -18.8558  -43.2317 N.am      9 UNK        -0.5000 
     30 C          -1.1577  -18.6974  -44.4356 C.2       8 UNK         0.5000 
     31 O          -1.4510  -19.3720  -45.4209 O.2       8 UNK        -0.5000 
     32 CA         -0.0271  -17.6588  -44.5480 C.3       8 UNK         0.1400 
     33 CB         -0.5861  -16.3033  -44.9881 C.3       8 UNK        -0.1800 
     34 N           0.7283  -17.5095  -43.3028 N.am      8 UNK        -0.5000 
     35 C           1.5046  -18.4782  -42.7914 C.2       7 UNK         0.5000 
     36 O           1.7037  -19.5455  -43.3708 O.2       7 UNK        -0.5000 
     37 CA          2.1202  -18.2643  -41.3944 C.3       7 UNK         0.1400 
     38 CB          3.6403  -18.0737  -41.4790 C.3       7 UNK        -0.1800 
     39 N           1.5226  -17.1493  -40.6578 N.am      7 UNK        -0.5000 
     40 C           0.2961  -17.1823  -40.1161 C.2       6 UNK         0.5000 
     41 O          -0.4398  -18.1679  -40.1723 O.2       6 UNK        -0.5000 
     42 CA         -0.2163  -15.8948  -39.4392 C.3       6 UNK         0.1400 
     43 CB          0.0485  -15.9432  -37.9271 C.3       6 UNK        -0.1800 
     44 N           0.3528  -14.6587  -39.9853 N.am      6 UNK        -0.5000 
     45 C           0.2338  -14.2500  -41.2558 C.2       5 UNK         0.5000 
     46 O          -0.3598  -14.8963  -42.1195 O.2       5 UNK        -0.5000 
     47 CA          0.9123  -12.9226  -41.6552 C.3       5 UNK         0.1400 
     48 CB          1.6060  -12.1828  -40.4888 C.3       5 UNK        -0.1800 
     49 N           1.8460  -13.1199  -42.7689 N.am      5 UNK        -0.5000 
     50 C           2.9044  -13.9455  -42.7976 C.2       4 UNK         0.5000 
     51 O           3.2541  -14.6349  -41.8383 O.2       4 UNK        -0.5000 
     52 CA          3.6934  -14.0321  -44.1196 C.3       4 UNK         0.1400 
     53 CB          4.0157  -15.4911  -44.4890 C.3       4 UNK        -0.1800 
     54 N           2.9595  -13.4349  -45.2364 N.am      4 UNK        -0.5000 
     55 C           3.3380  -12.3630  -45.9450 C.2       3 UNK         0.5000 
     56 O           4.3242  -11.6761  -45.6741 O.2       3 UNK        -0.5000 
     57 CA          2.4517  -12.0093  -47.1607 C.3       3 UNK         0.1400 
     58 CB          3.2075  -11.2279  -48.2557 C.3       3 UNK        -0.1800 
     59 N           1.7605  -13.1802  -47.7193 N.am      3 UNK        -0.5000 
     60 C           2.3162  -14.2626  -48.2920 C.2       2 UNK         0.5000 
     61 O           3.5220  -14.3730  -48.5143 O.2       2 UNK        -0.5000 
     62 CA          1.3880  -15.4489  -48.6277 C.3       2 UNK         0.1400 
     63 CB          1.8275  -16.7098  -47.8644 C.3       2 UNK        -0.1800 
     64 N          -0.0164  -15.1884  -48.3111 N.am      2 UNK        -0.5000 
     65 C          -0.8792  -14.5458  -49.1076 C.2       1 UNK         0.5000 
     66 O          -0.5871  -14.1043  -50.2190 O.2       1 UNK        -0.5000 
     67 C          -0.2871  -22.5030  -46.9755 C.2       11 UNK         0.5000 
     68 O          -0.1602  -23.4701  -47.7254 O.2       11 UNK        -0.5000 
     69 N          -1.4608  -21.9069  -46.7201 N.am      12 UNK        -0.5000 
     70 CA         -2.7449  -22.2996  -47.3004 C.3       12 UNK         0.1400 
     71 CB         -3.8301  -21.3064  -46.8593 C.3       12 UNK        -0.1800 
     72 C          -3.1506  -23.7417  -46.9488 C.2       12 UNK         0.5000 
     73 O          -3.6362  -24.4587  -47.8221 O.2       12 UNK        -0.5000 
     74 N          -2.9138  -24.1524  -45.6950 N.am      13 UNK        -0.5000 
     75 CA         -3.1425  -25.5153  -45.2155 C.3       13 UNK         0.1400 
     76 CB         -2.9844  -25.5611  -43.6883 C.3       13 UNK        -0.1800 
     77 C          -2.2222  -26.5469  -45.8935 C.2       13 UNK         0.5000 
     78 O          -2.6994  -27.6102  -46.2906 O.2       13 UNK        -0.5000 
     79 N          -0.9326  -26.2090  -46.0363 N.am      14 UNK        -0.5000 
     80 CA          0.0751  -27.0388  -46.6993 C.3       14 UNK         0.1400 
     81 CB          1.4748  -26.4710  -46.4179 C.3       14 UNK        -0.1800 
     82 C          -0.1643  -27.1728  -48.2141 C.2       14 UNK         0.5000 
     83 O          -0.0250  -28.2695  -48.7572 O.2       14 UNK        -0.5000 
     84 N          -0.5353  -26.0617  -48.8639 N.am      15 UNK        -0.5000 
     85 CA         -0.8628  -25.9996  -50.2894 C.3       15 UNK         0.1400 
     86 CB         -0.8378  -24.5305  -50.7393 C.3       15 UNK        -0.1800 
     87 C          -2.2233  -26.6370  -50.6336 C.2       15 UNK         0.5000 
     88 O          -2.4461  -26.9890  -51.7917 O.2       15 UNK        -0.5000 
     89 N          -3.1165  -26.7335  -49.6387 N.am      16 UNK        -0.5000 
     90 CA         -4.5166  -27.1779  -49.6704 C.3       16 UNK         0.1400 
     91 CB         -4.6675  -28.5895  -50.2684 C.3       16 UNK        -0.1800 
     92 C          -5.4724  -26.1682  -50.3380 C.2       16 UNK         0.5000 
     93 O          -6.5979  -26.0013  -49.8662 O.2       16 UNK        -0.5000 
     94 N          -5.0075  -25.4884  -51.3891 N.am      17 UNK        -0.5000 
     95 CA         -5.6454  -24.3494  -52.0325 C.3       17 UNK         0.1400 
     96 CB         -6.5687  -24.8291  -53.1643 C.3       17 UNK        -0.1800 
     97 C          -4.5276  -23.4430  -52.5631 C.2       17 UNK         0.5000 
     98 O          -3.5324  -23.9547  -53.0814 O.2       17 UNK        -0.5000 
     99 N          -4.7053  -22.1249  -52.4268 N.am      18 UNK        -0.5000 
    100 CA        -3.7335  -21.1079  -52.8386 C.3       18 UNK         0.1400 
    101 CB        -2.4769  -21.1505  -51.9493 C.3       18 UNK        -0.1800 
    102 C         -4.3372  -19.6961  -52.8296 C.2       18 UNK         0.5000 
    103 O         -3.8904  -18.8487  -53.6055 O.2       18 UNK        -0.5000 
    104 N         -5.3494  -19.4494  -51.9840 N.am      19 UNK        -0.5000 
    105 CA        -6.0406  -18.1631  -51.8123 C.3       19 UNK         0.1400 
    106 CB        -6.7561  -18.1692  -50.4493 C.3       19 UNK        -0.1800 
    107 C         -6.9808  -17.7879  -52.9839 C.2       19 UNK         0.5000 
    108 O         -8.1233  -17.3824  -52.7640 O.2       19 UNK        -0.5000 
    109 N         -6.4684  -17.9211  -54.2092 N.am      20 UNK        -0.5000 
    110 CA        -7.0902  -17.5410  -55.4726 C.3       20 UNK         0.1400 
    111 CB        -8.2196  -18.5166  -55.8551 C.3       20 UNK        -0.1800 
    112 C         -6.0099  -17.4828  -56.5616 C.2       20 UNK         0.5000 
    113 O         -5.9022  -16.4755  -57.2612 O.2       20 UNK        -0.5000 
    114 N         -5.2175  -18.5600  -56.6705 N.am      21 UNK        -0.5000 
    115 CA        -4.1238  -18.6903  -57.6359 C.3       21 UNK         0.1400 
    116 CB        -3.7671  -20.1771  -57.7918 C.3       21 UNK        -0.1800 
    117 C         -2.8781  -17.8760  -57.2409 C.2       21 UNK         0.5000 
    118 O         -2.2504  -17.2658  -58.1073 O.2       21 UNK        -0.5000 
    119 N         -2.5506  -17.8885  -55.9449 N.am      22 UNK        -0.5000 
    120 CA        -1.4405  -17.1498  -55.3309 C.3       22 UNK         0.1400 
    121 C         -1.9699  -15.9404  -54.5155 C.2       22 UNK         0.5000 
    122 N         -2.9993  -16.1204  -53.6953 N.am      22 UNK        -0.7600 
    123 O         -1.4619  -14.8303  -54.6435 O.2       22 UNK        -0.5000 
    124 C124       -0.5879  -18.1007  -54.4535 C.3       23 UNK        -0.0398 
    125 S125        1.1009  -17.4925  -54.1106 S.3       23 UNK        -0.2404 
    126 C126        0.9437  -16.7342  -52.4575 C.3       23 UNK        -0.0205 
    127 H127       -1.0249  -13.2321  -44.3869 H         1 UNK         0.0600 
    128 H128       -2.6808  -13.8131  -44.5834 H         1 UNK         0.0600 
    129 H129       -2.3405  -12.0823  -44.6442 H         1 UNK         0.0600 
    130 H130       -2.9531  -14.7510  -46.5925 H         1 UNK         0.3000 
    131 H131       -2.6659  -13.4092  -49.0086 H         1 UNK         0.0600 
    132 H132       -4.2944  -15.1498  -48.8038 H         1 UNK         0.0800 
    133 H133       -3.2130  -15.6073  -50.0746 H         1 UNK         0.0800 
    134 H134       -3.5018  -17.9270  -50.3271 H         1 UNK         0.0800 
    135 H135       -3.2592  -19.2018  -49.1749 H         1 UNK         0.0800 
    136 H136       -1.5036  -16.6950  -51.2842 H         1 UNK         0.1150 
    137 H137        2.1504  -18.9255  -51.3606 H         1 UNK         0.1150 
    138 H138       -1.0823  -20.1814  -48.8377 H         1 UNK         0.1150 
    139 H139        2.0363  -21.2261  -50.5018 H         1 UNK         0.0800 
    140 H140        0.7450  -21.7572  -49.4820 H         1 UNK         0.0800 
    141 H141        0.5345  -19.9332  -47.0562 H         1 UNK         0.0800 
    142 H142        1.9312  -20.0214  -46.0398 H         1 UNK         0.0800 
    143 H143        1.7617  -22.6580  -46.3770 H         1 UNK         0.0600 
    144 H144        0.8038  -20.9943  -44.3376 H         1 UNK         0.3000 
    145 H145       -0.6386  -23.4728  -42.2008 H         1 UNK         0.0600 
    146 H146        0.9088  -22.3374  -40.6151 H         1 UNK         0.0600 
    147 H147        1.7733  -23.4548  -41.6588 H         1 UNK         0.0600 
    148 H148        1.8707  -21.7279  -41.9604 H         1 UNK         0.0600 
    149 H149       -0.3922  -20.6052  -42.0789 H         1 UNK         0.3000 
    150 H150       -3.4923  -19.8623  -43.6838 H         1 UNK         0.0600 
    151 H151       -4.1247  -20.3569  -41.3366 H         1 UNK         0.0600 
    152 H152       -3.8227  -18.6375  -41.5369 H         1 UNK         0.0600 
    153 H153       -2.6205  -19.6602  -40.7506 H         1 UNK         0.0600 
    154 H154       -1.4164  -18.2802  -42.4615 H         1 UNK         0.3000 
    155 H155        0.6628  -18.0045  -45.3191 H         1 UNK         0.0600 
    156 H156       -1.3449  -15.9412  -44.2946 H         1 UNK         0.0600 
    157 H157        0.1981  -15.5497  -45.0588 H         1 UNK         0.0600 
    158 H158       -1.0581  -16.3906  -45.9650 H         1 UNK         0.0600 
    159 H159        0.5671  -16.6614  -42.7704 H         1 UNK         0.3000 
    160 H160        1.9376  -19.1802  -40.8281 H         1 UNK         0.0600 
    161 H161        3.9024  -17.1668  -42.0190 H         1 UNK         0.0600 
    162 H162        4.1124  -18.9107  -41.9952 H         1 UNK         0.0600 
    163 H163        4.0855  -18.0120  -40.4860 H         1 UNK         0.0600 
    164 H164        2.0557  -16.2893  -40.6207 H         1 UNK         0.3000 
    165 H165       -1.2963  -15.8564  -39.5956 H         1 UNK         0.0600 
    166 H166       -0.3940  -15.0853  -37.4206 H         1 UNK         0.0600 
    167 H167       -0.3854  -16.8401  -37.4826 H         1 UNK         0.0600 
    168 H168        1.1166  -15.9511  -37.7061 H         1 UNK         0.0600 
    169 H169        0.8806  -14.0842  -39.3445 H         1 UNK         0.3000 
    170 H170        0.1156  -12.2775  -42.0282 H         1 UNK         0.0600 
    171 H171        0.8971  -11.9432  -39.6953 H         1 UNK         0.0600 
    172 H172        2.4160  -12.7665  -40.0502 H         1 UNK         0.0600 
    173 H173        2.0313  -11.2385  -40.8289 H         1 UNK         0.0600 
    174 H174        1.6369  -12.6053  -43.6114 H         1 UNK         0.3000 
    175 H175        4.6363  -13.5059  -43.9598 H         1 UNK         0.0600 
    176 H176        3.1200  -16.1132  -44.5048 H         1 UNK         0.0600 
    177 H177        4.4843  -15.5557  -45.4715 H         1 UNK         0.0600 
    178 H178        4.7142  -15.9276  -43.7755 H         1 UNK         0.0600 
    179 H179        2.1311  -13.9255  -45.5369 H         1 UNK         0.3000 
    180 H180        1.6686  -11.3539  -46.7774 H         1 UNK         0.0600 
    181 H181        4.0694  -11.7803  -48.6303 H         1 UNK         0.0600 
    182 H182        3.5746  -10.2753  -47.8719 H         1 UNK         0.0600 
    183 H183        2.5567  -11.0061  -49.1014 H         1 UNK         0.0600 
    184 H184        0.7518  -13.1618  -47.6088 H         1 UNK         0.3000 
    185 H185        1.4822  -15.6462  -49.6965 H         1 UNK         0.0600 
    186 H186        2.8139  -17.0402  -48.1920 H         1 UNK         0.0600 
    187 H187        1.8839  -16.5323  -46.7907 H         1 UNK         0.0600 
    188 H188        1.1394  -17.5376  -48.0351 H         1 UNK         0.0600 
    189 H189       -0.3558  -15.5292  -47.4252 H         1 UNK         0.3000 
    190 H190       -1.4749  -21.0928  -46.1092 H         1 UNK         0.3000 
    191 H191       -2.6460  -22.2377  -48.3861 H         1 UNK         0.0600 
    192 H192       -3.9990  -21.3480  -45.7830 H         1 UNK         0.0600 
    193 H193       -4.7796  -21.5221  -47.3504 H         1 UNK         0.0600 
    194 H194       -3.5570  -20.2816  -47.1089 H         1 UNK         0.0600 
    195 H195       -2.5682  -23.4812  -45.0161 H         1 UNK         0.3000 
    196 H196       -4.1737  -25.7832  -45.4552 H         1 UNK         0.0600 
    197 H197       -3.1728  -26.5650  -43.3060 H         1 UNK         0.0600 
    198 H198       -3.6895  -24.8890  -43.1990 H         1 UNK         0.0600 
    199 H199       -1.9795  -25.2745  -43.3780 H         1 UNK         0.0600 
    200 H200       -0.6079  -25.3281  -45.6471 H         1 UNK         0.3000 
    201 H201        0.0240  -28.0397  -46.2658 H         1 UNK         0.0600 
    202 H202        1.6854  -26.4568  -45.3485 H         1 UNK         0.0600 
    203 H203        1.5789  -25.4517  -46.7915 H         1 UNK         0.0600 
    204 H204        2.2465  -27.0772  -46.8939 H         1 UNK         0.0600 
    205 H205       -0.5603  -25.1812  -48.3533 H         1 UNK         0.3000 
    206 H206       -0.0938  -26.5406  -50.8445 H         1 UNK         0.0600 
    207 H207        0.1351  -24.0758  -50.5523 H         1 UNK         0.0600 
    208 H208       -1.0356  -24.4459  -51.8085 H         1 UNK         0.0600 
    209 H209       -1.5908  -23.9381  -50.2175 H         1 UNK         0.0600 
    210 H210       -2.8419  -26.3249  -48.7539 H         1 UNK         0.3000 
    211 H211       -4.8157  -27.2370  -48.6226 H         1 UNK         0.0600 
    212 H212       -4.4513  -28.6086  -51.3367 H         1 UNK         0.0600 
    213 H213       -5.6869  -28.9550  -50.1399 H         1 UNK         0.0600 
    214 H214       -4.0025  -29.2993  -49.7763 H         1 UNK         0.0600 
    215 H215       -4.0729  -25.6974  -51.7278 H         1 UNK         0.3000 
    216 H216       -6.2303  -23.7954  -51.2951 H         1 UNK         0.0600 
    217 H217       -7.0434  -23.9847  -53.6653 H         1 UNK         0.0600 
    218 H218       -7.3633  -25.4691  -52.7805 H         1 UNK         0.0600 
    219 H219       -6.0187  -25.3939  -53.9182 H         1 UNK         0.0600 
    220 H220       -5.5843  -21.7881  -52.0640 H         1 UNK         0.3000 
    221 H221       -3.4372  -21.3143  -53.8693 H         1 UNK         0.0600 
    222 H222       -2.7322  -21.0763  -50.8923 H         1 UNK         0.0600 
    223 H223       -1.9145  -22.0722  -52.0915 H         1 UNK         0.0600 
    224 H224       -1.7975  -20.3313  -52.1870 H         1 UNK         0.0600 
    225 H225       -5.6500  -20.1803  -51.3594 H         1 UNK         0.3000 
    226 H226       -5.2853  -17.3760  -51.7749 H         1 UNK         0.0600 
    227 H227       -6.0567  -18.3644  -49.6359 H         1 UNK         0.0600 
    228 H228       -7.2217  -17.2043  -50.2446 H         1 UNK         0.0600 
    229 H229       -7.5386  -18.9279  -50.4100 H         1 UNK         0.0600 
    230 H230       -5.5017  -18.2261  -54.2645 H         1 UNK         0.3000 
    231 H231       -7.5106  -16.5388  -55.3652 H         1 UNK         0.0600 
    232 H232       -8.6371  -18.2659  -56.8310 H         1 UNK         0.0600 
    233 H233       -9.0380  -18.4788  -55.1363 H         1 UNK         0.0600 
    234 H234       -7.8658  -19.5469  -55.9024 H         1 UNK         0.0600 
    235 H235       -5.3973  -19.3605  -56.0836 H         1 UNK         0.3000 
    236 H236       -4.4699  -18.3227  -58.6045 H         1 UNK         0.0600 
    237 H237       -2.9634  -20.3113  -58.5170 H         1 UNK         0.0600 
    238 H238       -3.4353  -20.6148  -56.8494 H         1 UNK         0.0600 
    239 H239       -4.6225  -20.7524  -58.1466 H         1 UNK         0.0600 
    240 H240       -3.1445  -18.3897  -55.2942 H         1 UNK         0.3000 
    241 H241       -0.7948  -16.7533  -56.1169 H         1 UNK         0.0600 
    242 H242       -3.3976  -17.0444  -53.5754 H         1 UNK         0.3800 
    243 H243       -3.3649  -15.3332  -53.1855 H         1 UNK         0.3800 
    244 H244       -0.4570  -19.0476  -54.9789 H         1 UNK         0.0800 
    245 H245       -1.1093  -18.3623  -53.5338 H         1 UNK         0.0800 
    246 H246        0.3197  -15.8418  -52.5280 H         1 UNK         0.0800 
    247 H247        1.9270  -16.3887  -52.1361 H         1 UNK         0.0800 
@<TRIPOS>BOND
     1    1    2 1    
     2    1  127 1    
     3    1  128 1    
     4    1  129 1    
     5    2    3 2    
     6    2    4 am   BACKBONE|DICT|INTERRES
     7    4    5 1    
     8    4  130 1    
     9    5    6 1    
    10    5   65 1    
    11    5  131 1    
    12    6    7 1    
    13    6  132 1    
    14    6  133 1    
    15    7    8 1    
    16    8    9 1    
    17    8  134 1    
    18    8  135 1    
    19    9   10 ar   
    20    9   14 ar   
    21   10   11 ar   
    22   10  136 1    
    23   11   12 ar   
    24   11  126 1    
    25   12   13 ar   
    26   12  137 1    
    27   13   14 ar   
    28   13   15 1    
    29   14  138 1    
    30   15   16 1    
    31   15  139 1    
    32   15  140 1    
    33   16   17 1    
    34   17   18 1    
    35   17  141 1    
    36   17  142 1    
    37   18   19 1    
    38   18   67 1    
    39   18  143 1    
    40   19   20 am   BACKBONE|DICT|INTERRES
    41   19  144 1    
    42   20   21 2    
    43   20   22 1    
    44   22   23 1    
    45   22   24 1    
    46   22  145 1    
    47   23  146 1    
    48   23  147 1    
    49   23  148 1    
    50   24   25 am   BACKBONE|DICT|INTERRES
    51   24  149 1    
    52   25   26 2    
    53   25   27 1    
    54   27   28 1    
    55   27   29 1    
    56   27  150 1    
    57   28  151 1    
    58   28  152 1    
    59   28  153 1    
    60   29   30 am   BACKBONE|DICT|INTERRES
    61   29  154 1    
    62   30   31 2    
    63   30   32 1    
    64   32   33 1    
    65   32   34 1    
    66   32  155 1    
    67   33  156 1    
    68   33  157 1    
    69   33  158 1    
    70   34   35 am   BACKBONE|DICT|INTERRES
    71   34  159 1    
    72   35   36 2    
    73   35   37 1    
    74   37   38 1    
    75   37   39 1    
    76   37  160 1    
    77   38  161 1    
    78   38  162 1    
    79   38  163 1    
    80   39   40 am   BACKBONE|DICT|INTERRES
    81   39  164 1    
    82   40   41 2    
    83   40   42 1    
    84   42   43 1    
    85   42   44 1    
    86   42  165 1    
    87   43  166 1    
    88   43  167 1    
    89   43  168 1    
    90   44   45 am   BACKBONE|DICT|INTERRES
    91   44  169 1    
    92   45   46 2    
    93   45   47 1    
    94   47   48 1    
    95   47   49 1    
    96   47  170 1    
    97   48  171 1    
    98   48  172 1    
    99   48  173 1    
   100   49   50 am   BACKBONE|DICT|INTERRES
   101   49  174 1    
   102   50   51 2    
   103   50   52 1    
   104   52   53 1    
   105   52   54 1    
   106   52  175 1    
   107   53  176 1    
   108   53  177 1    
   109   53  178 1    
   110   54   55 am   BACKBONE|DICT|INTERRES
   111   54  179 1    
   112   55   56 2    
   113   55   57 1    
   114   57   58 1    
   115   57   59 1    
   116   57  180 1    
   117   58  181 1    
   118   58  182 1    
   119   58  183 1    
   120   59   60 am   BACKBONE|DICT|INTERRES
   121   59  184 1    
   122   60   61 2    
   123   60   62 1    
   124   62   63 1    
   125   62   64 1    
   126   62  185 1    
   127   63  186 1    
   128   63  187 1    
   129   63  188 1    
   130   64   65 am   BACKBONE|DICT|INTERRES
   131   64  189 1    
   132   65   66 2    
   133   67   68 2    
   134   67   69 am   BACKBONE|DICT|INTERRES
   135   69   70 1    
   136   69  190 1    
   137   70   71 1    
   138   70   72 1    
   139   70  191 1    
   140   71  192 1    
   141   71  193 1    
   142   71  194 1    
   143   72   73 2    
   144   72   74 am   BACKBONE|DICT|INTERRES
   145   74   75 1    
   146   74  195 1    
   147   75   76 1    
   148   75   77 1    
   149   75  196 1    
   150   76  197 1    
   151   76  198 1    
   152   76  199 1    
   153   77   78 2    
   154   77   79 am   BACKBONE|DICT|INTERRES
   155   79   80 1    
   156   79  200 1    
   157   80   81 1    
   158   80   82 1    
   159   80  201 1    
   160   81  202 1    
   161   81  203 1    
   162   81  204 1    
   163   82   83 2    
   164   82   84 am   BACKBONE|DICT|INTERRES
   165   84   85 1    
   166   84  205 1    
   167   85   86 1    
   168   85   87 1    
   169   85  206 1    
   170   86  207 1    
   171   86  208 1    
   172   86  209 1    
   173   87   88 2    
   174   87   89 am   BACKBONE|DICT|INTERRES
   175   89   90 1    
   176   89  210 1    
   177   90   91 1    
   178   90   92 1    
   179   90  211 1    
   180   91  212 1    
   181   91  213 1    
   182   91  214 1    
   183   92   93 2    
   184   92   94 am   BACKBONE|DICT|INTERRES
   185   94   95 1    
   186   94  215 1    
   187   95   96 1    
   188   95   97 1    
   189   95  216 1    
   190   96  217 1    
   191   96  218 1    
   192   96  219 1    
   193   97   98 2    
   194   97   99 am   BACKBONE|DICT|INTERRES
   195   99  100 1    
   196   99  220 1    
   197  100  101 1    
   198  100  102 1    
   199  100  221 1    
   200  101  222 1    
   201  101  223 1    
   202  101  224 1    
   203  102  103 2    
   204  102  104 am   BACKBONE|DICT|INTERRES
   205  104  105 1    
   206  104  225 1    
   207  105  106 1    
   208  105  107 1    
   209  105  226 1    
   210  106  227 1    
   211  106  228 1    
   212  106  229 1    
   213  107  108 2    
   214  107  109 am   BACKBONE|DICT|INTERRES
   215  109  110 1    
   216  109  230 1    
   217  110  111 1    
   218  110  112 1    
   219  110  231 1    
   220  111  232 1    
   221  111  233 1    
   222  111  234 1    
   223  112  113 2    
   224  112  114 am   BACKBONE|DICT|INTERRES
   225  114  115 1    
   226  114  235 1    
   227  115  116 1    
   228  115  117 1    
   229  115  236 1    
   230  116  237 1    
   231  116  238 1    
   232  116  239 1    
   233  117  118 2    
   234  117  119 am   BACKBONE|DICT|INTERRES
   235  119  120 1    
   236  119  240 1    
   237  120  121 1    
   238  120  124 1    
   239  120  241 1    
   240  121  122 am   BACKBONE|DICT|INTERRES
   241  121  123 2    
   242  122  242 1    
   243  122  243 1    
   244  124  125 1    
   245  124  244 1    
   246  124  245 1    
   247  125  126 1    
   248  126  246 1    
   249  126  247 1    
@<TRIPOS>SUBSTRUCTURE
     1 UNK         1 GROUP             0       ****    0 ROOT    
