@<TRIPOS>MOLECULE
3R540
247   249    1
SMALL
USER_CHARGES


@<TRIPOS>ATOM
      1 CA          1.4431   -8.6308  -48.0231 C.3       0 UNK        -0.1800 
      2 C           1.2702   -9.9628  -47.3080 C.2       0 UNK         0.5000 
      3 O           1.4445  -10.0344  -46.0918 O.2       0 UNK        -0.5000 
      4 N           0.9092  -11.0150  -48.0520 N.am      1 UNK        -0.5000 
      5 CA          0.6950  -12.3944  -47.5911 C.3       1 UNK         0.1400 
      6 C6          0.8940  -13.4089  -48.7524 C.3       23 UNK        -0.0398 
      7 S7         -0.1190  -13.0616  -50.2367 S.3       23 UNK        -0.2404 
      8 C8         -1.1248  -14.5739  -50.3730 C.3       23 UNK        -0.0205 
      9 C9         -0.3481  -15.7212  -51.0030 C.ar      23 UNK        -0.0193 
     10 C10        -0.1542  -15.7519  -52.3868 C.ar      23 UNK        -0.1150 
     11 C11         0.5227  -16.8173  -52.9893 C.ar      23 UNK        -0.0193 
     12 C12         1.0233  -17.8478  -52.1884 C.ar      23 UNK        -0.1150 
     13 C13         0.8525  -17.8228  -50.8022 C.ar      23 UNK        -0.0193 
     14 C14         0.1600  -16.7583  -50.2147 C.ar      23 UNK        -0.1150 
     15 C15         1.4533  -18.9290  -49.9459 C.3       23 UNK        -0.0205 
     16 S16         0.4050  -20.4161  -49.8663 S.3       23 UNK        -0.2404 
     17 C17        -1.0546  -19.8189  -48.9499 C.3       23 UNK        -0.0398 
     18 CA         -1.6520  -20.9052  -48.0224 C.3       11 UNK         0.1400 
     19 N          -0.7923  -21.2200  -46.8711 N.am      11 UNK        -0.5000 
     20 C          -1.0222  -22.2282  -46.0148 C.2       10 UNK         0.5000 
     21 O          -1.9554  -23.0205  -46.1335 O.2       10 UNK        -0.5000 
     22 CA         -0.0999  -22.3467  -44.7882 C.3       10 UNK         0.1400 
     23 CB          1.2393  -23.0011  -45.1581 C.3       10 UNK        -0.1800 
     24 N           0.1299  -21.0602  -44.1317 N.am      10 UNK        -0.5000 
     25 C          -0.8260  -20.3348  -43.5319 C.2       9 UNK         0.5000 
     26 O          -1.9940  -20.7027  -43.4219 O.2       9 UNK        -0.5000 
     27 CA         -0.4286  -18.9375  -43.0223 C.3       9 UNK         0.1400 
     28 CB          0.2522  -19.0282  -41.6493 C.3       9 UNK        -0.1800 
     29 N           0.4412  -18.2337  -43.9635 N.am      9 UNK        -0.5000 
     30 C           0.0991  -17.9113  -45.2183 C.2       8 UNK         0.5000 
     31 O          -1.0177  -18.0999  -45.6968 O.2       8 UNK        -0.5000 
     32 CA          1.2018  -17.3172  -46.1033 C.3       8 UNK         0.1400 
     33 CB          1.3060  -15.8059  -45.8973 C.3       8 UNK        -0.1800 
     34 N           2.5006  -17.9403  -45.8587 N.am      8 UNK        -0.5000 
     35 C           2.7997  -19.2040  -46.1866 C.2       7 UNK         0.5000 
     36 O           2.0161  -19.9629  -46.7561 O.2       7 UNK        -0.5000 
     37 CA          4.1891  -19.7111  -45.7614 C.3       7 UNK         0.1400 
     38 CB          5.2766  -19.1783  -46.7062 C.3       7 UNK        -0.1800 
     39 N           4.5155  -19.3453  -44.3810 N.am      7 UNK        -0.5000 
     40 C           3.8693  -19.8242  -43.3090 C.2       6 UNK         0.5000 
     41 O           2.9578  -20.6481  -43.3776 O.2       6 UNK        -0.5000 
     42 CA          4.2809  -19.2718  -41.9301 C.3       6 UNK         0.1400 
     43 CB          5.4398  -20.0969  -41.3511 C.3       6 UNK        -0.1800 
     44 N           4.6415  -17.8490  -41.8972 N.am      6 UNK        -0.5000 
     45 C           3.8982  -16.8291  -42.3494 C.2       5 UNK         0.5000 
     46 O           2.8500  -16.9867  -42.9776 O.2       5 UNK        -0.5000 
     47 CA          4.3964  -15.3999  -42.0229 C.3       5 UNK         0.1400 
     48 CB          5.9342  -15.2994  -42.0122 C.3       5 UNK        -0.1800 
     49 N           3.8828  -14.3949  -42.9590 N.am      5 UNK        -0.5000 
     50 C           2.6573  -13.8556  -43.0314 C.2       4 UNK         0.5000 
     51 O           2.3642  -13.0706  -43.9356 O.2       4 UNK        -0.5000 
     52 CA          1.5741  -14.1991  -41.9905 C.3       4 UNK         0.1400 
     53 CB          1.4898  -13.1187  -40.9000 C.3       4 UNK        -0.1800 
     54 N           0.3082  -14.2811  -42.7075 N.am      4 UNK        -0.5000 
     55 C          -0.7491  -15.0266  -42.3716 C.2       3 UNK         0.5000 
     56 O          -0.8078  -15.6918  -41.3370 O.2       3 UNK        -0.5000 
     57 CA         -1.9275  -15.0532  -43.3729 C.3       3 UNK         0.1400 
     58 CB         -3.2882  -15.2882  -42.6859 C.3       3 UNK        -0.1800 
     59 N          -1.9873  -13.8889  -44.2674 N.am      3 UNK        -0.5000 
     60 C          -2.1538  -12.6020  -43.9306 C.2       2 UNK         0.5000 
     61 O          -2.2702  -12.2076  -42.7692 O.2       2 UNK        -0.5000 
     62 CA         -2.1662  -11.5925  -45.0994 C.3       2 UNK         0.1400 
     63 CB         -2.3643  -10.1399  -44.6297 C.3       2 UNK        -0.1800 
     64 N          -0.9440  -11.6544  -45.9034 N.am      2 UNK        -0.5000 
     65 C          -0.6427  -12.5746  -46.8271 C.2       1 UNK         0.5000 
     66 O          -1.3758  -13.5359  -47.0653 O.2       1 UNK        -0.5000 
     67 C          -3.0865  -20.5245  -47.5931 C.2       11 UNK         0.5000 
     68 O          -4.0446  -20.9733  -48.2260 O.2       11 UNK        -0.5000 
     69 N          -3.2089  -19.7370  -46.5143 N.am      12 UNK        -0.5000 
     70 CA         -4.4791  -19.3406  -45.9070 C.3       12 UNK         0.1400 
     71 CB         -4.2359  -18.2344  -44.8683 C.3       12 UNK        -0.1800 
     72 C          -5.2361  -20.5284  -45.2856 C.2       12 UNK         0.5000 
     73 O          -6.4381  -20.6609  -45.5146 O.2       12 UNK        -0.5000 
     74 N          -4.5233  -21.3974  -44.5535 N.am      13 UNK        -0.5000 
     75 CA         -5.0555  -22.6352  -43.9720 C.3       13 UNK         0.1400 
     76 CB         -4.0027  -23.2638  -43.0472 C.3       13 UNK        -0.1800 
     77 C          -5.5144  -23.6483  -45.0383 C.2       13 UNK         0.5000 
     78 O          -6.5155  -24.3367  -44.8398 O.2       13 UNK        -0.5000 
     79 N          -4.8015  -23.6783  -46.1709 N.am      14 UNK        -0.5000 
     80 CA         -5.1330  -24.4385  -47.3757 C.3       14 UNK         0.1400 
     81 CB         -3.8462  -24.6191  -48.1916 C.3       14 UNK        -0.1800 
     82 C          -6.2406  -23.7899  -48.2366 C.2       14 UNK         0.5000 
     83 O          -6.5552  -24.3191  -49.3070 O.2       14 UNK        -0.5000 
     84 N          -6.7834  -22.6473  -47.7835 N.am      15 UNK        -0.5000 
     85 CA         -7.8730  -21.8563  -48.3682 C.3       15 UNK         0.1400 
     86 CB         -9.1954  -22.6471  -48.2933 C.3       15 UNK        -0.1800 
     87 C          -7.5812  -21.3400  -49.7920 C.2       15 UNK         0.5000 
     88 O          -8.5184  -21.0772  -50.5469 O.2       15 UNK        -0.5000 
     89 N          -6.2896  -21.2534  -50.1490 N.am      16 UNK        -0.5000 
     90 CA         -5.7482  -21.0099  -51.4919 C.3       16 UNK         0.1400 
     91 CB         -6.0955  -19.5858  -51.9674 C.3       16 UNK        -0.1800 
     92 C          -6.1318  -22.0905  -52.5355 C.2       16 UNK         0.5000 
     93 O          -5.9027  -21.8882  -53.7286 O.2       16 UNK        -0.5000 
     94 N          -6.6966  -23.2186  -52.0831 N.am      17 UNK        -0.5000 
     95 CA         -7.2119  -24.2985  -52.9214 C.3       17 UNK         0.1400 
     96 CB         -8.5627  -24.7687  -52.3577 C.3       17 UNK        -0.1800 
     97 C          -6.2133  -25.4607  -52.9816 C.2       17 UNK         0.5000 
     98 O          -5.9121  -25.9486  -54.0710 O.2       17 UNK        -0.5000 
     99 N          -5.6964  -25.8602  -51.8121 N.am      18 UNK        -0.5000 
    100 CA        -4.6728  -26.9000  -51.6655 C.3       18 UNK         0.1400 
    101 CB        -5.0335  -27.7751  -50.4519 C.3       18 UNK        -0.1800 
    102 C         -3.2531  -26.3057  -51.5421 C.2       18 UNK         0.5000 
    103 O         -2.2999  -27.0494  -51.3057 O.2       18 UNK        -0.5000 
    104 N         -3.1418  -24.9759  -51.6694 N.am      19 UNK        -0.5000 
    105 CA        -1.9066  -24.2016  -51.5727 C.3       19 UNK         0.1400 
    106 CB        -2.2735  -22.7106  -51.5612 C.3       19 UNK        -0.1800 
    107 C         -0.9189  -24.5052  -52.7151 C.2       19 UNK         0.5000 
    108 O         -1.3344  -24.9011  -53.8070 O.2       19 UNK        -0.5000 
    109 N          0.3739  -24.2808  -52.4453 N.am      20 UNK        -0.5000 
    110 CA         1.4757  -24.4992  -53.3882 C.3       20 UNK         0.1400 
    111 CB         2.8068  -24.4132  -52.6253 C.3       20 UNK        -0.1800 
    112 C          1.4769  -23.5224  -54.5813 C.2       20 UNK         0.5000 
    113 O          1.9943  -23.8656  -55.6452 O.2       20 UNK        -0.5000 
    114 N          0.8943  -22.3356  -54.3878 N.am      21 UNK        -0.5000 
    115 CA         0.6996  -21.2984  -55.3912 C.3       21 UNK         0.1400 
    116 CB         1.9843  -20.4645  -55.5396 C.3       21 UNK        -0.1800 
    117 C         -0.4940  -20.4358  -54.9571 C.2       21 UNK         0.5000 
    118 O         -0.8479  -20.4399  -53.7760 O.2       21 UNK        -0.5000 
    119 N         -1.0960  -19.7287  -55.9209 N.am      22 UNK        -0.5000 
    120 CA        -2.2670  -18.8392  -55.7691 C.3       22 UNK         0.1400 
    121 C         -3.6130  -19.5371  -55.4002 C.2       22 UNK         0.5000 
    122 N         -3.6639  -20.8438  -55.1819 N.am      22 UNK        -0.7600 
    123 O         -4.6462  -18.8761  -55.3461 O.2       22 UNK        -0.5000 
    124 C124       -1.9988  -17.6261  -54.8339 C.3       23 UNK        -0.0398 
    125 S125       -0.7444  -16.4707  -55.4878 S.3       23 UNK        -0.2404 
    126 C126        0.7383  -16.8642  -54.4987 C.3       23 UNK        -0.0205 
    127 H127        1.2500   -8.7167  -49.0927 H         1 UNK         0.0600 
    128 H128        2.4604   -8.2630  -47.8897 H         1 UNK         0.0600 
    129 H129        0.7554   -7.8921  -47.6115 H         1 UNK         0.0600 
    130 H130        0.7437  -10.8790  -49.0398 H         1 UNK         0.3000 
    131 H131        1.4718  -12.6138  -46.8551 H         1 UNK         0.0600 
    132 H132        0.7184  -14.4294  -48.4128 H         1 UNK         0.0800 
    133 H133        1.9387  -13.3905  -49.0650 H         1 UNK         0.0800 
    134 H134       -1.9988  -14.3556  -50.9883 H         1 UNK         0.0800 
    135 H135       -1.5117  -14.8567  -49.3930 H         1 UNK         0.0800 
    136 H136       -0.5398  -14.9468  -52.9965 H         1 UNK         0.1150 
    137 H137        1.5526  -18.6740  -52.6413 H         1 UNK         0.1150 
    138 H138        0.0166  -16.7327  -49.1449 H         1 UNK         0.1150 
    139 H139        2.4227  -19.2151  -50.3560 H         1 UNK         0.0800 
    140 H140        1.6577  -18.5646  -48.9426 H         1 UNK         0.0800 
    141 H141       -1.7837  -19.4965  -49.6962 H         1 UNK         0.0800 
    142 H142       -0.7943  -18.9323  -48.3709 H         1 UNK         0.0800 
    143 H143       -1.7428  -21.8236  -48.6057 H         1 UNK         0.0600 
    144 H144        0.0283  -20.6389  -46.7369 H         1 UNK         0.3000 
    145 H145       -0.5973  -22.9975  -44.0662 H         1 UNK         0.0600 
    146 H146        1.8624  -23.1475  -44.2757 H         1 UNK         0.0600 
    147 H147        1.0810  -23.9806  -45.6110 H         1 UNK         0.0600 
    148 H148        1.8048  -22.4003  -45.8693 H         1 UNK         0.0600 
    149 H149        1.0829  -20.7119  -44.1336 H         1 UNK         0.3000 
    150 H150       -1.3394  -18.3459  -42.9109 H         1 UNK         0.0600 
    151 H151       -0.4400  -19.4153  -40.9009 H         1 UNK         0.0600 
    152 H152        0.5908  -18.0506  -41.3063 H         1 UNK         0.0600 
    153 H153        1.1139  -19.6934  -41.6691 H         1 UNK         0.0600 
    154 H154        1.3721  -17.9876  -43.6373 H         1 UNK         0.3000 
    155 H155        0.9195  -17.4945  -47.1395 H         1 UNK         0.0600 
    156 H156        1.5856  -15.5761  -44.8739 H         1 UNK         0.0600 
    157 H157        0.3495  -15.3231  -46.0916 H         1 UNK         0.0600 
    158 H158        2.0495  -15.3613  -46.5583 H         1 UNK         0.0600 
    159 H159        3.1636  -17.4094  -45.3121 H         1 UNK         0.3000 
    160 H160        4.1805  -20.8010  -45.8325 H         1 UNK         0.0600 
    161 H161        5.3595  -18.0918  -46.6578 H         1 UNK         0.0600 
    162 H162        5.0582  -19.4452  -47.7412 H         1 UNK         0.0600 
    163 H163        6.2516  -19.6004  -46.4618 H         1 UNK         0.0600 
    164 H164        5.2502  -18.6676  -44.2414 H         1 UNK         0.3000 
    165 H165        3.4229  -19.3937  -41.2673 H         1 UNK         0.0600 
    166 H166        5.6589  -19.8049  -40.3239 H         1 UNK         0.0600 
    167 H167        5.1959  -21.1602  -41.3387 H         1 UNK         0.0600 
    168 H168        6.3517  -19.9761  -41.9373 H         1 UNK         0.0600 
    169 H169        5.4966  -17.6279  -41.4081 H         1 UNK         0.3000 
    170 H170        4.0444  -15.1543  -41.0197 H         1 UNK         0.0600 
    171 H171        6.3734  -15.9045  -41.2185 H         1 UNK         0.0600 
    172 H172        6.3667  -15.6250  -42.9594 H         1 UNK         0.0600 
    173 H173        6.2584  -14.2734  -41.8358 H         1 UNK         0.0600 
    174 H174        4.5337  -14.1331  -43.6835 H         1 UNK         0.3000 
    175 H175        1.7707  -15.1607  -41.5196 H         1 UNK         0.0600 
    176 H176        1.2651  -12.1385  -41.3228 H         1 UNK         0.0600 
    177 H177        0.7140  -13.3534  -40.1710 H         1 UNK         0.0600 
    178 H178        2.4327  -13.0371  -40.3583 H         1 UNK         0.0600 
    179 H179        0.2939  -13.7625  -43.5759 H         1 UNK         0.3000 
    180 H180       -1.7452  -15.9108  -44.0202 H         1 UNK         0.0600 
    181 H181       -4.0976  -15.3208  -43.4151 H         1 UNK         0.0600 
    182 H182       -3.5172  -14.5046  -41.9633 H         1 UNK         0.0600 
    183 H183       -3.2983  -16.2392  -42.1520 H         1 UNK         0.0600 
    184 H184       -1.8785  -14.0836  -45.2593 H         1 UNK         0.3000 
    185 H185       -3.0147  -11.8517  -45.7360 H         1 UNK         0.0600 
    186 H186       -2.4292   -9.4575  -45.4774 H         1 UNK         0.0600 
    187 H187       -3.2875  -10.0340  -44.0586 H         1 UNK         0.0600 
    188 H188       -1.5422   -9.8071  -43.9946 H         1 UNK         0.0600 
    189 H189       -0.2513  -10.9310  -45.7338 H         1 UNK         0.3000 
    190 H190       -2.3675  -19.3579  -46.0872 H         1 UNK         0.3000 
    191 H191       -5.1084  -18.9260  -46.6974 H         1 UNK         0.0600 
    192 H192       -5.1743  -17.9041  -44.4215 H         1 UNK         0.0600 
    193 H193       -3.7685  -17.3617  -45.3250 H         1 UNK         0.0600 
    194 H194       -3.5889  -18.5733  -44.0595 H         1 UNK         0.0600 
    195 H195       -3.5460  -21.1915  -44.3594 H         1 UNK         0.3000 
    196 H196       -5.9266  -22.3729  -43.3683 H         1 UNK         0.0600 
    197 H197       -3.0910  -23.5160  -43.5897 H         1 UNK         0.0600 
    198 H198       -3.7334  -22.5846  -42.2382 H         1 UNK         0.0600 
    199 H199       -4.3790  -24.1802  -42.5909 H         1 UNK         0.0600 
    200 H200       -3.9462  -23.1321  -46.2130 H         1 UNK         0.3000 
    201 H201       -5.4917  -25.4260  -47.0797 H         1 UNK         0.0600 
    202 H202       -3.4454  -23.6644  -48.5309 H         1 UNK         0.0600 
    203 H203       -4.0293  -25.2277  -49.0711 H         1 UNK         0.0600 
    204 H204       -3.0735  -25.1208  -47.6091 H         1 UNK         0.0600 
    205 H205       -6.4157  -22.2689  -46.9191 H         1 UNK         0.3000 
    206 H206       -7.9797  -20.9696  -47.7426 H         1 UNK         0.0600 
    207 H207       -9.3861  -22.9997  -47.2796 H         1 UNK         0.0600 
    208 H208      -10.0435  -22.0254  -48.5825 H         1 UNK         0.0600 
    209 H209       -9.1849  -23.5146  -48.9541 H         1 UNK         0.0600 
    210 H210       -5.5934  -21.4273  -49.4290 H         1 UNK         0.3000 
    211 H211       -4.6649  -21.0570  -51.3890 H         1 UNK         0.0600 
    212 H212       -5.5485  -19.3351  -52.8755 H         1 UNK         0.0600 
    213 H213       -5.8285  -18.8426  -51.2161 H         1 UNK         0.0600 
    214 H214       -7.1575  -19.4769  -52.1879 H         1 UNK         0.0600 
    215 H215       -6.8114  -23.3344  -51.0821 H         1 UNK         0.3000 
    216 H216       -7.3794  -23.9410  -53.9397 H         1 UNK         0.0600 
    217 H217       -8.4726  -25.1313  -51.3328 H         1 UNK         0.0600 
    218 H218       -8.9769  -25.5787  -52.9592 H         1 UNK         0.0600 
    219 H219       -9.2902  -23.9567  -52.3588 H         1 UNK         0.0600 
    220 H220       -6.0044  -25.4049  -50.9584 H         1 UNK         0.3000 
    221 H221       -4.6648  -27.5461  -52.5457 H         1 UNK         0.0600 
    222 H222       -5.9980  -28.2619  -50.5974 H         1 UNK         0.0600 
    223 H223       -5.0930  -27.1962  -49.5310 H         1 UNK         0.0600 
    224 H224       -4.2961  -28.5640  -50.2989 H         1 UNK         0.0600 
    225 H225       -3.9770  -24.4637  -51.9058 H         1 UNK         0.3000 
    226 H226       -1.4271  -24.4522  -50.6240 H         1 UNK         0.0600 
    227 H227       -2.8034  -22.4193  -52.4692 H         1 UNK         0.0600 
    228 H228       -2.9030  -22.4675  -50.7058 H         1 UNK         0.0600 
    229 H229       -1.3833  -22.0859  -51.4953 H         1 UNK         0.0600 
    230 H230        0.6320  -23.9405  -51.5302 H         1 UNK         0.3000 
    231 H231        1.3785  -25.5090  -53.7924 H         1 UNK         0.0600 
    232 H232        2.9506  -23.4290  -52.1773 H         1 UNK         0.0600 
    233 H233        3.6514  -24.5972  -53.2908 H         1 UNK         0.0600 
    234 H234        2.8550  -25.1563  -51.8291 H         1 UNK         0.0600 
    235 H235        0.4491  -22.1345  -53.5007 H         1 UNK         0.3000 
    236 H236        0.4534  -21.7655  -56.3472 H         1 UNK         0.0600 
    237 H237        2.8168  -21.0796  -55.8811 H         1 UNK         0.0600 
    238 H238        1.8536  -19.6666  -56.2713 H         1 UNK         0.0600 
    239 H239        2.2763  -20.0066  -54.5943 H         1 UNK         0.0600 
    240 H240       -0.7431  -19.8050  -56.8640 H         1 UNK         0.3000 
    241 H241       -2.4443  -18.4403  -56.7686 H         1 UNK         0.0600 
    242 H242       -4.5443  -21.2582  -54.8884 H         1 UNK         0.3800 
    243 H243       -2.8254  -21.3990  -55.2000 H         1 UNK         0.3800 
    244 H244       -1.7338  -17.9632  -53.8320 H         1 UNK         0.0800 
    245 H245       -2.9060  -17.0334  -54.7059 H         1 UNK         0.0800 
    246 H246        1.5278  -16.1580  -54.7581 H         1 UNK         0.0800 
    247 H247        1.0968  -17.8464  -54.8016 H         1 UNK         0.0800 
@<TRIPOS>BOND
     1    1    2 1    
     2    1  127 1    
     3    1  128 1    
     4    1  129 1    
     5    2    3 2    
     6    2    4 am   BACKBONE|DICT|INTERRES
     7    4    5 1    
     8    4  130 1    
     9    5    6 1    
    10    5   65 1    
    11    5  131 1    
    12    6    7 1    
    13    6  132 1    
    14    6  133 1    
    15    7    8 1    
    16    8    9 1    
    17    8  134 1    
    18    8  135 1    
    19    9   10 ar   
    20    9   14 ar   
    21   10   11 ar   
    22   10  136 1    
    23   11   12 ar   
    24   11  126 1    
    25   12   13 ar   
    26   12  137 1    
    27   13   14 ar   
    28   13   15 1    
    29   14  138 1    
    30   15   16 1    
    31   15  139 1    
    32   15  140 1    
    33   16   17 1    
    34   17   18 1    
    35   17  141 1    
    36   17  142 1    
    37   18   19 1    
    38   18   67 1    
    39   18  143 1    
    40   19   20 am   BACKBONE|DICT|INTERRES
    41   19  144 1    
    42   20   21 2    
    43   20   22 1    
    44   22   23 1    
    45   22   24 1    
    46   22  145 1    
    47   23  146 1    
    48   23  147 1    
    49   23  148 1    
    50   24   25 am   BACKBONE|DICT|INTERRES
    51   24  149 1    
    52   25   26 2    
    53   25   27 1    
    54   27   28 1    
    55   27   29 1    
    56   27  150 1    
    57   28  151 1    
    58   28  152 1    
    59   28  153 1    
    60   29   30 am   BACKBONE|DICT|INTERRES
    61   29  154 1    
    62   30   31 2    
    63   30   32 1    
    64   32   33 1    
    65   32   34 1    
    66   32  155 1    
    67   33  156 1    
    68   33  157 1    
    69   33  158 1    
    70   34   35 am   BACKBONE|DICT|INTERRES
    71   34  159 1    
    72   35   36 2    
    73   35   37 1    
    74   37   38 1    
    75   37   39 1    
    76   37  160 1    
    77   38  161 1    
    78   38  162 1    
    79   38  163 1    
    80   39   40 am   BACKBONE|DICT|INTERRES
    81   39  164 1    
    82   40   41 2    
    83   40   42 1    
    84   42   43 1    
    85   42   44 1    
    86   42  165 1    
    87   43  166 1    
    88   43  167 1    
    89   43  168 1    
    90   44   45 am   BACKBONE|DICT|INTERRES
    91   44  169 1    
    92   45   46 2    
    93   45   47 1    
    94   47   48 1    
    95   47   49 1    
    96   47  170 1    
    97   48  171 1    
    98   48  172 1    
    99   48  173 1    
   100   49   50 am   BACKBONE|DICT|INTERRES
   101   49  174 1    
   102   50   51 2    
   103   50   52 1    
   104   52   53 1    
   105   52   54 1    
   106   52  175 1    
   107   53  176 1    
   108   53  177 1    
   109   53  178 1    
   110   54   55 am   BACKBONE|DICT|INTERRES
   111   54  179 1    
   112   55   56 2    
   113   55   57 1    
   114   57   58 1    
   115   57   59 1    
   116   57  180 1    
   117   58  181 1    
   118   58  182 1    
   119   58  183 1    
   120   59   60 am   BACKBONE|DICT|INTERRES
   121   59  184 1    
   122   60   61 2    
   123   60   62 1    
   124   62   63 1    
   125   62   64 1    
   126   62  185 1    
   127   63  186 1    
   128   63  187 1    
   129   63  188 1    
   130   64   65 am   BACKBONE|DICT|INTERRES
   131   64  189 1    
   132   65   66 2    
   133   67   68 2    
   134   67   69 am   BACKBONE|DICT|INTERRES
   135   69   70 1    
   136   69  190 1    
   137   70   71 1    
   138   70   72 1    
   139   70  191 1    
   140   71  192 1    
   141   71  193 1    
   142   71  194 1    
   143   72   73 2    
   144   72   74 am   BACKBONE|DICT|INTERRES
   145   74   75 1    
   146   74  195 1    
   147   75   76 1    
   148   75   77 1    
   149   75  196 1    
   150   76  197 1    
   151   76  198 1    
   152   76  199 1    
   153   77   78 2    
   154   77   79 am   BACKBONE|DICT|INTERRES
   155   79   80 1    
   156   79  200 1    
   157   80   81 1    
   158   80   82 1    
   159   80  201 1    
   160   81  202 1    
   161   81  203 1    
   162   81  204 1    
   163   82   83 2    
   164   82   84 am   BACKBONE|DICT|INTERRES
   165   84   85 1    
   166   84  205 1    
   167   85   86 1    
   168   85   87 1    
   169   85  206 1    
   170   86  207 1    
   171   86  208 1    
   172   86  209 1    
   173   87   88 2    
   174   87   89 am   BACKBONE|DICT|INTERRES
   175   89   90 1    
   176   89  210 1    
   177   90   91 1    
   178   90   92 1    
   179   90  211 1    
   180   91  212 1    
   181   91  213 1    
   182   91  214 1    
   183   92   93 2    
   184   92   94 am   BACKBONE|DICT|INTERRES
   185   94   95 1    
   186   94  215 1    
   187   95   96 1    
   188   95   97 1    
   189   95  216 1    
   190   96  217 1    
   191   96  218 1    
   192   96  219 1    
   193   97   98 2    
   194   97   99 am   BACKBONE|DICT|INTERRES
   195   99  100 1    
   196   99  220 1    
   197  100  101 1    
   198  100  102 1    
   199  100  221 1    
   200  101  222 1    
   201  101  223 1    
   202  101  224 1    
   203  102  103 2    
   204  102  104 am   BACKBONE|DICT|INTERRES
   205  104  105 1    
   206  104  225 1    
   207  105  106 1    
   208  105  107 1    
   209  105  226 1    
   210  106  227 1    
   211  106  228 1    
   212  106  229 1    
   213  107  108 2    
   214  107  109 am   BACKBONE|DICT|INTERRES
   215  109  110 1    
   216  109  230 1    
   217  110  111 1    
   218  110  112 1    
   219  110  231 1    
   220  111  232 1    
   221  111  233 1    
   222  111  234 1    
   223  112  113 2    
   224  112  114 am   BACKBONE|DICT|INTERRES
   225  114  115 1    
   226  114  235 1    
   227  115  116 1    
   228  115  117 1    
   229  115  236 1    
   230  116  237 1    
   231  116  238 1    
   232  116  239 1    
   233  117  118 2    
   234  117  119 am   BACKBONE|DICT|INTERRES
   235  119  120 1    
   236  119  240 1    
   237  120  121 1    
   238  120  124 1    
   239  120  241 1    
   240  121  122 am   BACKBONE|DICT|INTERRES
   241  121  123 2    
   242  122  242 1    
   243  122  243 1    
   244  124  125 1    
   245  124  244 1    
   246  124  245 1    
   247  125  126 1    
   248  126  246 1    
   249  126  247 1    
@<TRIPOS>SUBSTRUCTURE
     1 UNK         1 GROUP             0       ****    0 ROOT    
