@<TRIPOS>MOLECULE
3R540
247   249    1
SMALL
USER_CHARGES


@<TRIPOS>ATOM
      1 CA          4.5738   -9.9178  -47.4805 C.3       0 UNK        -0.1800 
      2 C           4.4410  -11.3165  -48.0666 C.2       0 UNK         0.5000 
      3 O           5.2138  -11.6865  -48.9512 O.2       0 UNK        -0.5000 
      4 N           3.4590  -12.0875  -47.5844 N.am      1 UNK        -0.5000 
      5 CA          3.2056  -13.4777  -47.9783 C.3       1 UNK         0.1400 
      6 C6          1.8157  -13.9651  -47.4975 C.3       23 UNK        -0.0398 
      7 S7          0.4422  -12.9650  -48.1764 S.3       23 UNK        -0.2404 
      8 C8          0.3029  -13.5691  -49.8932 C.3       23 UNK        -0.0205 
      9 C9         -0.2049  -14.9999  -49.9467 C.ar      23 UNK        -0.0193 
     10 C10        -1.5768  -15.2643  -49.9540 C.ar      23 UNK        -0.1150 
     11 C11        -2.0453  -16.5814  -49.9348 C.ar      23 UNK        -0.0193 
     12 C12        -1.1290  -17.6363  -49.8857 C.ar      23 UNK        -0.1150 
     13 C13         0.2449  -17.3799  -49.8880 C.ar      23 UNK        -0.0193 
     14 C14         0.6997  -16.0628  -49.9555 C.ar      23 UNK        -0.1150 
     15 C15         1.2443  -18.5164  -49.7601 C.3       23 UNK        -0.0205 
     16 S16         2.1141  -18.4767  -48.1561 S.3       23 UNK        -0.2404 
     17 C17         0.7508  -18.5668  -46.9448 C.3       23 UNK        -0.0398 
     18 CA          0.4158  -20.0224  -46.5377 C.3       11 UNK         0.1400 
     19 N          -0.0329  -20.1213  -45.1477 N.am      11 UNK        -0.5000 
     20 C          -0.2548  -21.2723  -44.4963 C.2       10 UNK         0.5000 
     21 O          -0.0121  -22.3841  -44.9647 O.2       10 UNK        -0.5000 
     22 CA         -0.9323  -21.1595  -43.1200 C.3       10 UNK         0.1400 
     23 CB          0.0988  -20.9041  -42.0103 C.3       10 UNK        -0.1800 
     24 N          -1.9492  -20.1053  -43.1171 N.am      10 UNK        -0.5000 
     25 C          -3.1195  -20.1972  -43.7664 C.2       9 UNK         0.5000 
     26 O          -3.4872  -21.2124  -44.3570 O.2       9 UNK        -0.5000 
     27 CA         -4.0072  -18.9371  -43.7987 C.3       9 UNK         0.1400 
     28 CB         -4.9152  -18.8886  -42.5612 C.3       9 UNK        -0.1800 
     29 N          -3.2329  -17.6967  -43.8771 N.am      9 UNK        -0.5000 
     30 C          -2.4949  -17.3163  -44.9311 C.2       8 UNK         0.5000 
     31 O          -2.4529  -17.9392  -45.9897 O.2       8 UNK        -0.5000 
     32 CA         -1.5979  -16.0738  -44.7434 C.3       8 UNK         0.1400 
     33 CB         -2.3192  -14.8012  -45.2081 C.3       8 UNK        -0.1800 
     34 N          -1.1499  -15.9137  -43.3543 N.am      8 UNK        -0.5000 
     35 C          -0.3528  -16.7925  -42.7327 C.2       7 UNK         0.5000 
     36 O           0.1632  -17.7539  -43.3074 O.2       7 UNK        -0.5000 
     37 CA         -0.2115  -16.6409  -41.2115 C.3       7 UNK         0.1400 
     38 CB         -1.4511  -17.2727  -40.5372 C.3       7 UNK        -0.1800 
     39 N           1.0269  -17.2905  -40.7834 N.am      7 UNK        -0.5000 
     40 C           1.4674  -17.4612  -39.5290 C.2       6 UNK         0.5000 
     41 O           0.8674  -17.0834  -38.5223 O.2       6 UNK        -0.5000 
     42 CA          2.8451  -18.1237  -39.3729 C.3       6 UNK         0.1400 
     43 CB          2.9203  -19.4931  -40.0714 C.3       6 UNK        -0.1800 
     44 N           3.8575  -17.2290  -39.9212 N.am      6 UNK        -0.5000 
     45 C           4.5067  -16.2915  -39.2164 C.2       5 UNK         0.5000 
     46 O           4.4569  -16.1987  -37.9892 O.2       5 UNK        -0.5000 
     47 CA          5.3384  -15.2654  -40.0143 C.3       5 UNK         0.1400 
     48 CB          6.8064  -15.7104  -40.0988 C.3       5 UNK        -0.1800 
     49 N           4.8314  -15.0378  -41.3690 N.am      5 UNK        -0.5000 
     50 C           3.6377  -14.5048  -41.6684 C.2       4 UNK         0.5000 
     51 O           2.8655  -14.0402  -40.8296 O.2       4 UNK        -0.5000 
     52 CA          3.2204  -14.5176  -43.1533 C.3       4 UNK         0.1400 
     53 CB          3.4911  -13.1381  -43.7733 C.3       4 UNK        -0.1800 
     54 N           3.8615  -15.5653  -43.9657 N.am      4 UNK        -0.5000 
     55 C           3.7842  -16.8855  -43.7212 C.2       3 UNK         0.5000 
     56 O           3.1758  -17.3518  -42.7584 O.2       3 UNK        -0.5000 
     57 CA          4.5290  -17.8418  -44.6700 C.3       3 UNK         0.1400 
     58 CB          3.8607  -19.2267  -44.7489 C.3       3 UNK        -0.1800 
     59 N           4.6505  -17.2740  -46.0124 N.am      3 UNK        -0.5000 
     60 C           5.8028  -17.1055  -46.6725 C.2       2 UNK         0.5000 
     61 O           6.8990  -17.4639  -46.2399 O.2       2 UNK        -0.5000 
     62 CA          5.7364  -16.3957  -48.0409 C.3       2 UNK         0.1400 
     63 CB          5.7585  -17.4223  -49.1842 C.3       2 UNK        -0.1800 
     64 N           4.5974  -15.4881  -48.2332 N.am      2 UNK        -0.5000 
     65 C           4.3316  -14.4111  -47.4803 C.2       1 UNK         0.5000 
     66 O           4.9260  -14.1534  -46.4308 O.2       1 UNK        -0.5000 
     67 C          -0.5965  -20.6673  -47.5080 C.2       11 UNK         0.5000 
     68 O          -0.1937  -21.4565  -48.3592 O.2       11 UNK        -0.5000 
     69 N          -1.8923  -20.3660  -47.3334 N.am      12 UNK        -0.5000 
     70 CA         -3.0010  -20.9547  -48.0886 C.3       12 UNK         0.1400 
     71 CB         -4.3275  -20.3088  -47.6587 C.3       12 UNK        -0.1800 
     72 C          -3.0834  -22.4835  -47.9387 C.2       12 UNK         0.5000 
     73 O          -3.2679  -23.1797  -48.9353 O.2       12 UNK        -0.5000 
     74 N          -2.9106  -22.9803  -46.7061 N.am      13 UNK        -0.5000 
     75 CA         -2.8681  -24.4093  -46.3938 C.3       13 UNK         0.1400 
     76 CB         -2.8766  -24.6011  -44.8697 C.3       13 UNK        -0.1800 
     77 C          -1.6645  -25.1299  -47.0322 C.2       13 UNK         0.5000 
     78 O          -1.8111  -26.2669  -47.4818 O.2       13 UNK        -0.5000 
     79 N          -0.5067  -24.4561  -47.0725 N.am      14 UNK        -0.5000 
     80 CA          0.7119  -24.9436  -47.7168 C.3       14 UNK         0.1400 
     81 CB          1.9133  -24.1140  -47.2364 C.3       14 UNK        -0.1800 
     82 C           0.6133  -24.9322  -49.2541 C.2       14 UNK         0.5000 
     83 O           1.0227  -25.9029  -49.8923 O.2       14 UNK        -0.5000 
     84 N           0.0817  -23.8385  -49.8177 N.am      15 UNK        -0.5000 
     85 CA         -0.1048  -23.6396  -51.2548 C.3       15 UNK         0.1400 
     86 CB         -0.4430  -22.1660  -51.5322 C.3       15 UNK        -0.1800 
     87 C          -1.1737  -24.5726  -51.8478 C.2       15 UNK         0.5000 
     88 O          -0.9070  -25.2316  -52.8540 O.2       15 UNK        -0.5000 
     89 N          -2.3470  -24.6193  -51.1991 N.am      16 UNK        -0.5000 
     90 CA         -3.5101  -25.4511  -51.5186 C.3       16 UNK         0.1400 
     91 CB         -3.2164  -26.9253  -51.1728 C.3       16 UNK        -0.1800 
     92 C          -4.0331  -25.2588  -52.9598 C.2       16 UNK         0.5000 
     93 O          -4.3945  -26.2347  -53.6206 O.2       16 UNK        -0.5000 
     94 N          -4.0557  -24.0022  -53.4287 N.am      17 UNK        -0.5000 
     95 CA         -4.4998  -23.6297  -54.7738 C.3       17 UNK         0.1400 
     96 CB         -4.0755  -22.1841  -55.0762 C.3       17 UNK        -0.1800 
     97 C          -6.0175  -23.7978  -54.9629 C.2       17 UNK         0.5000 
     98 O          -6.4491  -24.2292  -56.0327 O.2       17 UNK        -0.5000 
     99 N          -6.7858  -23.4618  -53.9146 N.am      18 UNK        -0.5000 
    100 CA        -8.2418  -23.5765  -53.7523 C.3       18 UNK         0.1400 
    101 CB        -8.6968  -25.0465  -53.8185 C.3       18 UNK        -0.1800 
    102 C         -9.0684  -22.6894  -54.7034 C.2       18 UNK         0.5000 
    103 O         -9.8629  -21.8754  -54.2331 O.2       18 UNK        -0.5000 
    104 N         -8.8523  -22.8293  -56.0167 N.am      19 UNK        -0.5000 
    105 CA        -9.5085  -22.0572  -57.0765 C.3       19 UNK         0.1400 
    106 CB        -9.1795  -22.6926  -58.4355 C.3       19 UNK        -0.1800 
    107 C         -9.1155  -20.5673  -57.0656 C.2       19 UNK         0.5000 
    108 O         -9.9196  -19.7194  -57.4525 O.2       19 UNK        -0.5000 
    109 N         -7.8998  -20.2810  -56.5831 N.am      20 UNK        -0.5000 
    110 CA        -7.3645  -18.9384  -56.3539 C.3       20 UNK         0.1400 
    111 CB        -5.8773  -18.9351  -56.7506 C.3       20 UNK        -0.1800 
    112 C         -7.5581  -18.4856  -54.8900 C.2       20 UNK         0.5000 
    113 O         -6.8509  -17.5843  -54.4400 O.2       20 UNK        -0.5000 
    114 N         -8.4634  -19.1482  -54.1519 N.am      21 UNK        -0.5000 
    115 CA        -8.7981  -19.0031  -52.7270 C.3       21 UNK         0.1400 
    116 CB        -9.2314  -17.5662  -52.3798 C.3       21 UNK        -0.1800 
    117 C         -7.7025  -19.5059  -51.7666 C.2       21 UNK         0.5000 
    118 O         -8.0282  -20.1053  -50.7406 O.2       21 UNK        -0.5000 
    119 N         -6.4324  -19.2856  -52.1197 N.am      22 UNK        -0.5000 
    120 CA        -5.2211  -19.6873  -51.3887 C.3       22 UNK         0.1400 
    121 C         -4.9697  -21.2253  -51.3755 C.2       22 UNK         0.5000 
    122 N         -5.9445  -22.0283  -50.9731 N.am      22 UNK        -0.7600 
    123 O         -3.8955  -21.7023  -51.7272 O.2       22 UNK        -0.5000 
    124 C124       -3.9841  -18.8752  -51.8559 C.3       23 UNK        -0.0398 
    125 S125       -4.2035  -17.0785  -51.6078 S.3       23 UNK        -0.2404 
    126 C126       -3.5407  -16.8531  -49.9269 C.3       23 UNK        -0.0205 
    127 H127        4.4595   -9.1695  -48.2648 H         1 UNK         0.0600 
    128 H128        5.5578   -9.7929  -47.0286 H         1 UNK         0.0600 
    129 H129        3.8216   -9.7258  -46.7149 H         1 UNK         0.0600 
    130 H130        2.8568  -11.7234  -46.8611 H         1 UNK         0.3000 
    131 H131        3.2201  -13.5127  -49.0692 H         1 UNK         0.0600 
    132 H132        1.6557  -15.0150  -47.7373 H         1 UNK         0.0800 
    133 H133        1.7485  -13.9140  -46.4108 H         1 UNK         0.0800 
    134 H134       -0.3824  -12.9179  -50.4378 H         1 UNK         0.0800 
    135 H135        1.2641  -13.4833  -50.4009 H         1 UNK         0.0800 
    136 H136       -2.2802  -14.4434  -49.9576 H         1 UNK         0.1150 
    137 H137       -1.4815  -18.6551  -49.8244 H         1 UNK         0.1150 
    138 H138        1.7620  -15.8671  -49.9555 H         1 UNK         0.1150 
    139 H139        0.7562  -19.4821  -49.8894 H         1 UNK         0.0800 
    140 H140        1.9798  -18.4394  -50.5618 H         1 UNK         0.0800 
    141 H141        1.0860  -18.0045  -46.0726 H         1 UNK         0.0800 
    142 H142       -0.1263  -18.0258  -47.2992 H         1 UNK         0.0800 
    143 H143        1.3330  -20.6134  -46.5928 H         1 UNK         0.0600 
    144 H144       -0.2042  -19.2519  -44.6549 H         1 UNK         0.3000 
    145 H145       -1.4243  -22.1113  -42.9084 H         1 UNK         0.0600 
    146 H146       -0.3805  -20.8159  -41.0354 H         1 UNK         0.0600 
    147 H147        0.8121  -21.7268  -41.9490 H         1 UNK         0.0600 
    148 H148        0.6711  -19.9947  -42.1863 H         1 UNK         0.0600 
    149 H149       -1.6885  -19.2264  -42.6974 H         1 UNK         0.3000 
    150 H150       -4.6409  -18.9978  -44.6858 H         1 UNK         0.0600 
    151 H151       -5.5230  -19.7916  -42.4883 H         1 UNK         0.0600 
    152 H152       -5.5993  -18.0411  -42.6070 H         1 UNK         0.0600 
    153 H153       -4.3382  -18.8061  -41.6392 H         1 UNK         0.0600 
    154 H154       -3.2297  -17.1127  -43.0550 H         1 UNK         0.3000 
    155 H155       -0.7146  -16.2077  -45.3716 H         1 UNK         0.0600 
    156 H156       -1.6631  -13.9326  -45.1477 H         1 UNK         0.0600 
    157 H157       -3.2069  -14.5970  -44.6083 H         1 UNK         0.0600 
    158 H158       -2.6372  -14.8928  -46.2478 H         1 UNK         0.0600 
    159 H159       -1.5506  -15.1470  -42.8326 H         1 UNK         0.3000 
    160 H160       -0.1497  -15.5793  -40.9659 H         1 UNK         0.0600 
    161 H161       -1.4588  -18.3578  -40.6449 H         1 UNK         0.0600 
    162 H162       -2.3787  -16.8923  -40.9660 H         1 UNK         0.0600 
    163 H163       -1.4948  -17.0443  -39.4732 H         1 UNK         0.0600 
    164 H164        1.6176  -17.5903  -41.5569 H         1 UNK         0.3000 
    165 H165        3.0234  -18.2873  -38.3079 H         1 UNK         0.0600 
    166 H166        2.8182  -19.4149  -41.1535 H         1 UNK         0.0600 
    167 H167        3.8728  -19.9815  -39.8665 H         1 UNK         0.0600 
    168 H168        2.1319  -20.1562  -39.7135 H         1 UNK         0.0600 
    169 H169        3.9024  -17.1928  -40.9341 H         1 UNK         0.3000 
    170 H170        5.2967  -14.3163  -39.4759 H         1 UNK         0.0600 
    171 H171        7.2255  -15.8640  -39.1034 H         1 UNK         0.0600 
    172 H172        6.9119  -16.6473  -40.6474 H         1 UNK         0.0600 
    173 H173        7.4195  -14.9582  -40.5954 H         1 UNK         0.0600 
    174 H174        5.4029  -15.3760  -42.1288 H         1 UNK         0.3000 
    175 H175        2.1440  -14.6986  -43.1809 H         1 UNK         0.0600 
    176 H176        4.5601  -12.9353  -43.8493 H         1 UNK         0.0600 
    177 H177        3.0644  -13.0577  -44.7700 H         1 UNK         0.0600 
    178 H178        3.0478  -12.3419  -43.1737 H         1 UNK         0.0600 
    179 H179        4.3966  -15.2437  -44.7660 H         1 UNK         0.3000 
    180 H180        5.5174  -17.9794  -44.2280 H         1 UNK         0.0600 
    181 H181        2.8141  -19.1527  -45.0356 H         1 UNK         0.0600 
    182 H182        3.8948  -19.7327  -43.7833 H         1 UNK         0.0600 
    183 H183        4.3635  -19.8705  -45.4705 H         1 UNK         0.0600 
    184 H184        3.7960  -16.9632  -46.4516 H         1 UNK         0.3000 
    185 H185        6.6408  -15.7891  -48.1212 H         1 UNK         0.0600 
    186 H186        5.8301  -16.9322  -50.1552 H         1 UNK         0.0600 
    187 H187        6.6179  -18.0883  -49.0953 H         1 UNK         0.0600 
    188 H188        4.8635  -18.0442  -49.1868 H         1 UNK         0.0600 
    189 H189        4.0565  -15.6444  -49.0706 H         1 UNK         0.3000 
    190 H190       -2.1362  -19.6457  -46.6581 H         1 UNK         0.3000 
    191 H191       -2.8331  -20.7302  -49.1433 H         1 UNK         0.0600 
    192 H192       -5.1512  -20.6597  -48.2806 H         1 UNK         0.0600 
    193 H193       -4.2933  -19.2238  -47.7351 H         1 UNK         0.0600 
    194 H194       -4.5817  -20.5547  -46.6290 H         1 UNK         0.0600 
    195 H195       -2.8209  -22.3370  -45.9267 H         1 UNK         0.3000 
    196 H196       -3.7757  -24.8634  -46.7968 H         1 UNK         0.0600 
    197 H197       -2.8889  -25.6603  -44.6101 H         1 UNK         0.0600 
    198 H198       -3.7585  -24.1448  -44.4197 H         1 UNK         0.0600 
    199 H199       -1.9966  -24.1591  -44.4025 H         1 UNK         0.0600 
    200 H200       -0.4564  -23.5451  -46.6296 H         1 UNK         0.3000 
    201 H201        0.8723  -25.9767  -47.4013 H         1 UNK         0.0600 
    202 H202        2.0247  -24.1736  -46.1536 H         1 UNK         0.0600 
    203 H203        1.8124  -23.0617  -47.5027 H         1 UNK         0.0600 
    204 H204        2.8408  -24.4774  -47.6803 H         1 UNK         0.0600 
    205 H205       -0.1755  -23.0572  -49.2175 H         1 UNK         0.3000 
    206 H206        0.8417  -23.8643  -51.7508 H         1 UNK         0.0600 
    207 H207       -1.3209  -21.8427  -50.9723 H         1 UNK         0.0600 
    208 H208        0.3861  -21.5159  -51.2540 H         1 UNK         0.0600 
    209 H209       -0.6481  -21.9999  -52.5905 H         1 UNK         0.0600 
    210 H210       -2.4787  -24.0080  -50.3951 H         1 UNK         0.3000 
    211 H211       -4.3107  -25.1135  -50.8595 H         1 UNK         0.0600 
    212 H212       -2.4444  -27.3452  -51.8184 H         1 UNK         0.0600 
    213 H213       -4.1096  -27.5409  -51.2841 H         1 UNK         0.0600 
    214 H214       -2.8803  -27.0263  -50.1405 H         1 UNK         0.0600 
    215 H215       -3.7687  -23.2433  -52.8137 H         1 UNK         0.3000 
    216 H216       -3.9984  -24.2859  -55.4884 H         1 UNK         0.0600 
    217 H217       -4.3175  -21.9167  -56.1054 H         1 UNK         0.0600 
    218 H218       -3.0004  -22.0542  -54.9510 H         1 UNK         0.0600 
    219 H219       -4.5764  -21.4678  -54.4244 H         1 UNK         0.0600 
    220 H220       -6.3047  -23.0842  -53.1099 H         1 UNK         0.3000 
    221 H221       -8.4496  -23.2211  -52.7415 H         1 UNK         0.0600 
    222 H222       -8.5188  -25.4881  -54.7993 H         1 UNK         0.0600 
    223 H223       -8.1722  -25.6528  -53.0800 H         1 UNK         0.0600 
    224 H224       -9.7641  -25.1330  -53.6114 H         1 UNK         0.0600 
    225 H225       -8.1303  -23.4881  -56.3000 H         1 UNK         0.3000 
    226 H226      -10.5876  -22.1163  -56.9204 H         1 UNK         0.0600 
    227 H227       -9.5222  -23.7265  -58.4800 H         1 UNK         0.0600 
    228 H228       -9.6677  -22.1533  -59.2484 H         1 UNK         0.0600 
    229 H229       -8.1067  -22.6862  -58.6330 H         1 UNK         0.0600 
    230 H230       -7.3198  -21.0519  -56.2865 H         1 UNK         0.3000 
    231 H231       -7.8848  -18.2167  -56.9866 H         1 UNK         0.0600 
    232 H232       -5.4577  -17.9299  -56.6953 H         1 UNK         0.0600 
    233 H233       -5.7407  -19.2838  -57.7745 H         1 UNK         0.0600 
    234 H234       -5.2843  -19.5737  -56.0958 H         1 UNK         0.0600 
    235 H235       -8.9633  -19.9011  -54.6083 H         1 UNK         0.3000 
    236 H236       -9.6641  -19.6473  -52.5673 H         1 UNK         0.0600 
    237 H237      -10.0291  -17.2241  -53.0391 H         1 UNK         0.0600 
    238 H238       -9.6089  -17.5135  -51.3579 H         1 UNK         0.0600 
    239 H239       -8.4054  -16.8585  -52.4543 H         1 UNK         0.0600 
    240 H240       -6.2825  -18.7319  -52.9566 H         1 UNK         0.3000 
    241 H241       -5.3839  -19.4245  -50.3430 H         1 UNK         0.0600 
    242 H242       -6.8262  -21.6155  -50.6827 H         1 UNK         0.3800 
    243 H243       -5.7732  -23.0107  -50.8439 H         1 UNK         0.3800 
    244 H244       -3.0849  -19.2006  -51.3338 H         1 UNK         0.0800 
    245 H245       -3.7952  -19.0555  -52.9153 H         1 UNK         0.0800 
    246 H246       -3.7608  -17.7273  -49.3170 H         1 UNK         0.0800 
    247 H247       -4.0637  -16.0199  -49.4550 H         1 UNK         0.0800 
@<TRIPOS>BOND
     1    1    2 1    
     2    1  127 1    
     3    1  128 1    
     4    1  129 1    
     5    2    3 2    
     6    2    4 am   BACKBONE|DICT|INTERRES
     7    4    5 1    
     8    4  130 1    
     9    5    6 1    
    10    5   65 1    
    11    5  131 1    
    12    6    7 1    
    13    6  132 1    
    14    6  133 1    
    15    7    8 1    
    16    8    9 1    
    17    8  134 1    
    18    8  135 1    
    19    9   10 ar   
    20    9   14 ar   
    21   10   11 ar   
    22   10  136 1    
    23   11   12 ar   
    24   11  126 1    
    25   12   13 ar   
    26   12  137 1    
    27   13   14 ar   
    28   13   15 1    
    29   14  138 1    
    30   15   16 1    
    31   15  139 1    
    32   15  140 1    
    33   16   17 1    
    34   17   18 1    
    35   17  141 1    
    36   17  142 1    
    37   18   19 1    
    38   18   67 1    
    39   18  143 1    
    40   19   20 am   BACKBONE|DICT|INTERRES
    41   19  144 1    
    42   20   21 2    
    43   20   22 1    
    44   22   23 1    
    45   22   24 1    
    46   22  145 1    
    47   23  146 1    
    48   23  147 1    
    49   23  148 1    
    50   24   25 am   BACKBONE|DICT|INTERRES
    51   24  149 1    
    52   25   26 2    
    53   25   27 1    
    54   27   28 1    
    55   27   29 1    
    56   27  150 1    
    57   28  151 1    
    58   28  152 1    
    59   28  153 1    
    60   29   30 am   BACKBONE|DICT|INTERRES
    61   29  154 1    
    62   30   31 2    
    63   30   32 1    
    64   32   33 1    
    65   32   34 1    
    66   32  155 1    
    67   33  156 1    
    68   33  157 1    
    69   33  158 1    
    70   34   35 am   BACKBONE|DICT|INTERRES
    71   34  159 1    
    72   35   36 2    
    73   35   37 1    
    74   37   38 1    
    75   37   39 1    
    76   37  160 1    
    77   38  161 1    
    78   38  162 1    
    79   38  163 1    
    80   39   40 am   BACKBONE|DICT|INTERRES
    81   39  164 1    
    82   40   41 2    
    83   40   42 1    
    84   42   43 1    
    85   42   44 1    
    86   42  165 1    
    87   43  166 1    
    88   43  167 1    
    89   43  168 1    
    90   44   45 am   BACKBONE|DICT|INTERRES
    91   44  169 1    
    92   45   46 2    
    93   45   47 1    
    94   47   48 1    
    95   47   49 1    
    96   47  170 1    
    97   48  171 1    
    98   48  172 1    
    99   48  173 1    
   100   49   50 am   BACKBONE|DICT|INTERRES
   101   49  174 1    
   102   50   51 2    
   103   50   52 1    
   104   52   53 1    
   105   52   54 1    
   106   52  175 1    
   107   53  176 1    
   108   53  177 1    
   109   53  178 1    
   110   54   55 am   BACKBONE|DICT|INTERRES
   111   54  179 1    
   112   55   56 2    
   113   55   57 1    
   114   57   58 1    
   115   57   59 1    
   116   57  180 1    
   117   58  181 1    
   118   58  182 1    
   119   58  183 1    
   120   59   60 am   BACKBONE|DICT|INTERRES
   121   59  184 1    
   122   60   61 2    
   123   60   62 1    
   124   62   63 1    
   125   62   64 1    
   126   62  185 1    
   127   63  186 1    
   128   63  187 1    
   129   63  188 1    
   130   64   65 am   BACKBONE|DICT|INTERRES
   131   64  189 1    
   132   65   66 2    
   133   67   68 2    
   134   67   69 am   BACKBONE|DICT|INTERRES
   135   69   70 1    
   136   69  190 1    
   137   70   71 1    
   138   70   72 1    
   139   70  191 1    
   140   71  192 1    
   141   71  193 1    
   142   71  194 1    
   143   72   73 2    
   144   72   74 am   BACKBONE|DICT|INTERRES
   145   74   75 1    
   146   74  195 1    
   147   75   76 1    
   148   75   77 1    
   149   75  196 1    
   150   76  197 1    
   151   76  198 1    
   152   76  199 1    
   153   77   78 2    
   154   77   79 am   BACKBONE|DICT|INTERRES
   155   79   80 1    
   156   79  200 1    
   157   80   81 1    
   158   80   82 1    
   159   80  201 1    
   160   81  202 1    
   161   81  203 1    
   162   81  204 1    
   163   82   83 2    
   164   82   84 am   BACKBONE|DICT|INTERRES
   165   84   85 1    
   166   84  205 1    
   167   85   86 1    
   168   85   87 1    
   169   85  206 1    
   170   86  207 1    
   171   86  208 1    
   172   86  209 1    
   173   87   88 2    
   174   87   89 am   BACKBONE|DICT|INTERRES
   175   89   90 1    
   176   89  210 1    
   177   90   91 1    
   178   90   92 1    
   179   90  211 1    
   180   91  212 1    
   181   91  213 1    
   182   91  214 1    
   183   92   93 2    
   184   92   94 am   BACKBONE|DICT|INTERRES
   185   94   95 1    
   186   94  215 1    
   187   95   96 1    
   188   95   97 1    
   189   95  216 1    
   190   96  217 1    
   191   96  218 1    
   192   96  219 1    
   193   97   98 2    
   194   97   99 am   BACKBONE|DICT|INTERRES
   195   99  100 1    
   196   99  220 1    
   197  100  101 1    
   198  100  102 1    
   199  100  221 1    
   200  101  222 1    
   201  101  223 1    
   202  101  224 1    
   203  102  103 2    
   204  102  104 am   BACKBONE|DICT|INTERRES
   205  104  105 1    
   206  104  225 1    
   207  105  106 1    
   208  105  107 1    
   209  105  226 1    
   210  106  227 1    
   211  106  228 1    
   212  106  229 1    
   213  107  108 2    
   214  107  109 am   BACKBONE|DICT|INTERRES
   215  109  110 1    
   216  109  230 1    
   217  110  111 1    
   218  110  112 1    
   219  110  231 1    
   220  111  232 1    
   221  111  233 1    
   222  111  234 1    
   223  112  113 2    
   224  112  114 am   BACKBONE|DICT|INTERRES
   225  114  115 1    
   226  114  235 1    
   227  115  116 1    
   228  115  117 1    
   229  115  236 1    
   230  116  237 1    
   231  116  238 1    
   232  116  239 1    
   233  117  118 2    
   234  117  119 am   BACKBONE|DICT|INTERRES
   235  119  120 1    
   236  119  240 1    
   237  120  121 1    
   238  120  124 1    
   239  120  241 1    
   240  121  122 am   BACKBONE|DICT|INTERRES
   241  121  123 2    
   242  122  242 1    
   243  122  243 1    
   244  124  125 1    
   245  124  244 1    
   246  124  245 1    
   247  125  126 1    
   248  126  246 1    
   249  126  247 1    
@<TRIPOS>SUBSTRUCTURE
     1 UNK         1 GROUP             0       ****    0 ROOT    
