@<TRIPOS>MOLECULE
3R540
247   249    1
SMALL
USER_CHARGES


@<TRIPOS>ATOM
      1 CA         -1.4736  -13.3330  -49.8039 C.3       0 UNK        -0.1800 
      2 C          -0.0334  -13.1596  -49.3427 C.2       0 UNK         0.5000 
      3 O           0.4457  -12.0324  -49.2252 O.2       0 UNK        -0.5000 
      4 N           0.6539  -14.2745  -49.0706 N.am      1 UNK        -0.5000 
      5 CA          2.0672  -14.3390  -48.6688 C.3       1 UNK         0.1400 
      6 C6          2.6997  -15.7339  -48.9357 C.3       23 UNK        -0.0398 
      7 S7          2.3125  -16.4543  -50.5717 S.3       23 UNK        -0.2404 
      8 C8          1.4355  -17.9865  -50.1093 C.3       23 UNK        -0.0205 
      9 C9         -0.0454  -17.7546  -49.8387 C.ar      23 UNK        -0.0193 
     10 C10        -1.0025  -18.1482  -50.7797 C.ar      23 UNK        -0.1150 
     11 C11        -2.3655  -17.9793  -50.5203 C.ar      23 UNK        -0.0193 
     12 C12        -2.7689  -17.3723  -49.3274 C.ar      23 UNK        -0.1150 
     13 C13        -1.8225  -16.9472  -48.3923 C.ar      23 UNK        -0.0193 
     14 C14        -0.4662  -17.1725  -48.6396 C.ar      23 UNK        -0.1150 
     15 C15        -2.2585  -16.2095  -47.1348 C.3       23 UNK        -0.0205 
     16 S16        -1.7597  -17.0690  -45.6135 S.3       23 UNK        -0.2404 
     17 C17        -2.8275  -18.5406  -45.6566 C.3       23 UNK        -0.0398 
     18 CA         -2.0636  -19.8090  -46.1012 C.3       11 UNK         0.1400 
     19 N          -1.0290  -20.2204  -45.1398 N.am      11 UNK        -0.5000 
     20 C          -0.2225  -21.2863  -45.2689 C.2       10 UNK         0.5000 
     21 O          -0.3041  -22.0865  -46.2008 O.2       10 UNK        -0.5000 
     22 CA          0.8516  -21.5285  -44.1911 C.3       10 UNK         0.1400 
     23 CB          2.2567  -21.3022  -44.7705 C.3       10 UNK        -0.1800 
     24 N           0.6883  -20.7119  -42.9881 N.am      10 UNK        -0.5000 
     25 C          -0.2112  -20.9411  -42.0218 C.2       9 UNK         0.5000 
     26 O          -1.0269  -21.8631  -42.0558 O.2       9 UNK        -0.5000 
     27 CA         -0.2086  -19.9707  -40.8235 C.3       9 UNK         0.1400 
     28 CB          0.7252  -20.4817  -39.7162 C.3       9 UNK        -0.1800 
     29 N           0.1847  -18.6104  -41.1938 N.am      9 UNK        -0.5000 
     30 C          -0.5533  -17.7923  -41.9563 C.2       8 UNK         0.5000 
     31 O          -1.6813  -18.0759  -42.3582 O.2       8 UNK        -0.5000 
     32 CA          0.0931  -16.4557  -42.3689 C.3       8 UNK         0.1400 
     33 CB         -0.1122  -15.3905  -41.2820 C.3       8 UNK        -0.1800 
     34 N           1.5206  -16.5848  -42.6679 N.am      8 UNK        -0.5000 
     35 C           2.0339  -17.3207  -43.6651 C.2       7 UNK         0.5000 
     36 O           1.3539  -17.9357  -44.4831 O.2       7 UNK        -0.5000 
     37 CA          3.5663  -17.4320  -43.7300 C.3       7 UNK         0.1400 
     38 CB          4.1758  -16.2627  -44.5135 C.3       7 UNK        -0.1800 
     39 N           4.1621  -17.4959  -42.3972 N.am      7 UNK        -0.5000 
     40 C           4.1201  -18.5782  -41.6081 C.2       6 UNK         0.5000 
     41 O           3.6115  -19.6482  -41.9415 O.2       6 UNK        -0.5000 
     42 CA          4.7133  -18.4225  -40.1957 C.3       6 UNK         0.1400 
     43 CB          6.2325  -18.6476  -40.2176 C.3       6 UNK        -0.1800 
     44 N           4.4252  -17.1127  -39.6077 N.am      6 UNK        -0.5000 
     45 C           3.1988  -16.6941  -39.2659 C.2       5 UNK         0.5000 
     46 O           2.1869  -17.3853  -39.3794 O.2       5 UNK        -0.5000 
     47 CA          3.0766  -15.2457  -38.7548 C.3       5 UNK         0.1400 
     48 CB          3.3040  -15.1912  -37.2369 C.3       5 UNK        -0.1800 
     49 N           3.9833  -14.3003  -39.4158 N.am      5 UNK        -0.5000 
     50 C           3.9893  -14.0318  -40.7278 C.2       4 UNK         0.5000 
     51 O           3.2688  -14.6061  -41.5493 O.2       4 UNK        -0.5000 
     52 CA          4.9899  -12.9726  -41.2075 C.3       4 UNK         0.1400 
     53 CB          6.4053  -13.5643  -41.3154 C.3       4 UNK        -0.1800 
     54 N           4.5642  -12.4989  -42.5185 N.am      4 UNK        -0.5000 
     55 C           4.6915  -11.2556  -42.9938 C.2       3 UNK         0.5000 
     56 O           5.2449  -10.3439  -42.3773 O.2       3 UNK        -0.5000 
     57 CA          4.1109  -10.9782  -44.3963 C.3       3 UNK         0.1400 
     58 CB          5.2416  -10.8441  -45.4282 C.3       3 UNK        -0.1800 
     59 N           3.1896  -12.0212  -44.8518 N.am      3 UNK        -0.5000 
     60 C           1.9160  -12.1611  -44.4726 C.2       2 UNK         0.5000 
     61 O           1.3492  -11.3602  -43.7272 O.2       2 UNK        -0.5000 
     62 CA          1.1637  -13.4106  -44.9941 C.3       2 UNK         0.1400 
     63 CB         -0.3228  -13.4012  -44.5934 C.3       2 UNK        -0.1800 
     64 N           1.2360  -13.6402  -46.4424 N.am      2 UNK        -0.5000 
     65 C           2.3070  -13.9442  -47.1909 C.2       1 UNK         0.5000 
     66 O           3.4565  -13.9697  -46.7508 O.2       1 UNK        -0.5000 
     67 C          -3.0758  -20.9202  -46.4397 C.2       11 UNK         0.5000 
     68 O          -3.4726  -21.0315  -47.5976 O.2       11 UNK        -0.5000 
     69 N          -3.4563  -21.7367  -45.4465 N.am      12 UNK        -0.5000 
     70 CA         -4.3764  -22.8626  -45.6219 C.3       12 UNK         0.1400 
     71 CB         -4.7396  -23.4441  -44.2475 C.3       12 UNK        -0.1800 
     72 C          -3.8075  -23.9549  -46.5465 C.2       12 UNK         0.5000 
     73 O          -4.5189  -24.4461  -47.4237 O.2       12 UNK        -0.5000 
     74 N          -2.5226  -24.2820  -46.3566 N.am      13 UNK        -0.5000 
     75 CA         -1.7842  -25.2420  -47.1753 C.3       13 UNK         0.1400 
     76 CB         -0.5030  -25.6602  -46.4375 C.3       13 UNK        -0.1800 
     77 C          -1.4541  -24.6827  -48.5697 C.2       13 UNK         0.5000 
     78 O          -1.5009  -25.4295  -49.5468 O.2       13 UNK        -0.5000 
     79 N          -1.1386  -23.3820  -48.6358 N.am      14 UNK        -0.5000 
     80 CA         -0.8402  -22.6619  -49.8719 C.3       14 UNK         0.1400 
     81 CB         -0.2137  -21.3033  -49.5337 C.3       14 UNK        -0.1800 
     82 C          -2.0740  -22.4889  -50.7759 C.2       14 UNK         0.5000 
     83 O          -1.9428  -22.6031  -51.9935 O.2       14 UNK        -0.5000 
     84 N          -3.2440  -22.2317  -50.1734 N.am      15 UNK        -0.5000 
     85 CA         -4.5301  -22.1620  -50.8643 C.3       15 UNK         0.1400 
     86 CB         -5.5699  -21.4776  -49.9612 C.3       15 UNK        -0.1800 
     87 C          -5.0404  -23.5517  -51.2730 C.2       15 UNK         0.5000 
     88 O          -5.5607  -23.7075  -52.3782 O.2       15 UNK        -0.5000 
     89 N          -4.9467  -24.5250  -50.3522 N.am      16 UNK        -0.5000 
     90 CA         -5.3737  -25.9284  -50.4803 C.3       16 UNK         0.1400 
     91 CB         -4.4760  -26.6566  -51.5014 C.3       16 UNK        -0.1800 
     92 C          -6.8735  -26.1267  -50.8113 C.2       16 UNK         0.5000 
     93 O          -7.2791  -27.2404  -51.1459 O.2       16 UNK        -0.5000 
     94 N          -7.6540  -25.0366  -50.7532 N.am      17 UNK        -0.5000 
     95 CA         -9.0226  -24.8667  -51.2483 C.3       17 UNK         0.1400 
     96 CB        -10.0089  -25.7196  -50.4232 C.3       17 UNK        -0.1800 
     97 C          -9.1729  -25.0920  -52.7732 C.2       17 UNK         0.5000 
     98 O         -10.2936  -25.3252  -53.2309 O.2       17 UNK        -0.5000 
     99 N          -8.0702  -25.0276  -53.5397 N.am      18 UNK        -0.5000 
    100 CA        -8.0499  -25.3924  -54.9616 C.3       18 UNK         0.1400 
    101 CB        -8.1984  -26.9235  -55.1064 C.3       18 UNK        -0.1800 
    102 C         -6.8086  -24.9209  -55.7454 C.2       18 UNK         0.5000 
    103 O         -6.8243  -25.0312  -56.9732 O.2       18 UNK        -0.5000 
    104 N         -5.7438  -24.4528  -55.0778 N.am      19 UNK        -0.5000 
    105 CA        -4.4776  -24.1068  -55.7276 C.3       19 UNK         0.1400 
    106 CB        -3.3680  -24.0026  -54.6730 C.3       19 UNK        -0.1800 
    107 C         -4.5639  -22.7932  -56.5212 C.2       19 UNK         0.5000 
    108 O         -5.2241  -21.8450  -56.0875 O.2       19 UNK        -0.5000 
    109 N         -3.8246  -22.7375  -57.6363 N.am      20 UNK        -0.5000 
    110 CA        -3.7337  -21.5923  -58.5493 C.3       20 UNK         0.1400 
    111 CB        -2.9714  -22.0298  -59.8103 C.3       20 UNK        -0.1800 
    112 C         -3.0904  -20.3289  -57.9382 C.2       20 UNK         0.5000 
    113 O         -3.1793  -19.2587  -58.5410 O.2       20 UNK        -0.5000 
    114 N         -2.4661  -20.4666  -56.7590 N.am      21 UNK        -0.5000 
    115 CA        -1.9044  -19.3770  -55.9609 C.3       21 UNK         0.1400 
    116 CB        -1.1763  -19.9694  -54.7435 C.3       21 UNK        -0.1800 
    117 C         -2.9588  -18.3475  -55.5090 C.2       21 UNK         0.5000 
    118 O         -2.6496  -17.1559  -55.4734 O.2       21 UNK        -0.5000 
    119 N         -4.1743  -18.8208  -55.1982 N.am      22 UNK        -0.5000 
    120 CA        -5.3250  -17.9875  -54.8087 C.3       22 UNK         0.1400 
    121 C         -6.6443  -18.3594  -55.5437 C.2       22 UNK         0.5000 
    122 N         -6.7790  -19.5168  -56.1799 N.am      22 UNK        -0.7600 
    123 O         -7.5761  -17.5597  -55.5555 O.2       22 UNK        -0.5000 
    124 C124       -5.5427  -17.9560  -53.2723 C.3       23 UNK        -0.0398 
    125 S125       -4.2173  -17.0832  -52.3686 S.3       23 UNK        -0.2404 
    126 C126       -3.4072  -18.4665  -51.5140 C.3       23 UNK        -0.0205 
    127 H127       -1.6415  -12.7796  -50.7278 H         1 UNK         0.0600 
    128 H128       -1.7163  -14.3797  -49.9901 H         1 UNK         0.0600 
    129 H129       -2.1593  -12.9526  -49.0470 H         1 UNK         0.0600 
    130 H130        0.2105  -15.1711  -49.2203 H         1 UNK         0.3000 
    131 H131        2.6117  -13.6131  -49.2762 H         1 UNK         0.0600 
    132 H132        3.7866  -15.6566  -48.8728 H         1 UNK         0.0800 
    133 H133        2.4230  -16.4430  -48.1549 H         1 UNK         0.0800 
    134 H134        1.5555  -18.7023  -50.9238 H         1 UNK         0.0800 
    135 H135        1.9059  -18.4484  -49.2401 H         1 UNK         0.0800 
    136 H136       -0.6874  -18.6094  -51.7047 H         1 UNK         0.1150 
    137 H137       -3.8222  -17.2203  -49.1378 H         1 UNK         0.1150 
    138 H138        0.2566  -16.8814  -47.8922 H         1 UNK         0.1150 
    139 H139       -1.8057  -15.2176  -47.1378 H         1 UNK         0.0800 
    140 H140       -3.3377  -16.0499  -47.1242 H         1 UNK         0.0800 
    141 H141       -3.6691  -18.3355  -46.3214 H         1 UNK         0.0800 
    142 H142       -3.2560  -18.6817  -44.6629 H         1 UNK         0.0800 
    143 H143       -1.5420  -19.5755  -47.0307 H         1 UNK         0.0600 
    144 H144       -0.8650  -19.5881  -44.3681 H         1 UNK         0.3000 
    145 H145        0.7789  -22.5786  -43.9005 H         1 UNK         0.0600 
    146 H146        3.0287  -21.5028  -44.0274 H         1 UNK         0.0600 
    147 H147        2.4410  -21.9657  -45.6164 H         1 UNK         0.0600 
    148 H148        2.3883  -20.2805  -45.1252 H         1 UNK         0.0600 
    149 H149        1.3235  -19.9322  -42.8834 H         1 UNK         0.3000 
    150 H150       -1.2239  -19.9350  -40.4231 H         1 UNK         0.0600 
    151 H151        0.4436  -21.4867  -39.3995 H         1 UNK         0.0600 
    152 H152        0.6819  -19.8390  -38.8367 H         1 UNK         0.0600 
    153 H153        1.7625  -20.5202  -40.0505 H         1 UNK         0.0600 
    154 H154        1.0698  -18.2731  -40.8297 H         1 UNK         0.3000 
    155 H155       -0.4004  -16.1081  -43.2757 H         1 UNK         0.0600 
    156 H156        0.3867  -14.4559  -41.5385 H         1 UNK         0.0600 
    157 H157        0.2714  -15.7203  -40.3175 H         1 UNK         0.0600 
    158 H158       -1.1725  -15.1709  -41.1524 H         1 UNK         0.0600 
    159 H159        2.1588  -16.0586  -42.0781 H         1 UNK         0.3000 
    160 H160        3.8132  -18.3536  -44.2614 H         1 UNK         0.0600 
    161 H161        3.9220  -15.2973  -44.0763 H         1 UNK         0.0600 
    162 H162        3.8119  -16.2673  -45.5408 H         1 UNK         0.0600 
    163 H163        5.2624  -16.3368  -44.5562 H         1 UNK         0.0600 
    164 H164        4.5440  -16.6380  -42.0276 H         1 UNK         0.3000 
    165 H165        4.2628  -19.1879  -39.5599 H         1 UNK         0.0600 
    166 H166        6.7441  -17.8951  -40.8190 H         1 UNK         0.0600 
    167 H167        6.6503  -18.6145  -39.2112 H         1 UNK         0.0600 
    168 H168        6.4756  -19.6247  -40.6372 H         1 UNK         0.0600 
    169 H169        5.2037  -16.4831  -39.4808 H         1 UNK         0.3000 
    170 H170        2.0565  -14.9133  -38.9545 H         1 UNK         0.0600 
    171 H171        2.6270  -15.8698  -36.7159 H         1 UNK         0.0600 
    172 H172        4.3229  -15.4757  -36.9712 H         1 UNK         0.0600 
    173 H173        3.1213  -14.1901  -36.8460 H         1 UNK         0.0600 
    174 H174        4.6167  -13.7952  -38.8127 H         1 UNK         0.3000 
    175 H175        4.9855  -12.1474  -40.4923 H         1 UNK         0.0600 
    176 H176        6.7573  -13.9264  -40.3488 H         1 UNK         0.0600 
    177 H177        7.1188  -12.8151  -41.6590 H         1 UNK         0.0600 
    178 H178        6.4387  -14.4014  -42.0141 H         1 UNK         0.0600 
    179 H179        4.0339  -13.1736  -43.0526 H         1 UNK         0.3000 
    180 H180        3.5738  -10.0286  -44.3499 H         1 UNK         0.0600 
    181 H181        5.8103  -11.7701  -45.5227 H         1 UNK         0.0600 
    182 H182        5.9401  -10.0556  -45.1451 H         1 UNK         0.0600 
    183 H183        4.8482  -10.5907  -46.4129 H         1 UNK         0.0600 
    184 H184        3.5587  -12.7121  -45.5035 H         1 UNK         0.3000 
    185 H185        1.6274  -14.2698  -44.5070 H         1 UNK         0.0600 
    186 H186       -0.8190  -14.3237  -44.8904 H         1 UNK         0.0600 
    187 H187       -0.4435  -13.3063  -43.5140 H         1 UNK         0.0600 
    188 H188       -0.8568  -12.5710  -45.0573 H         1 UNK         0.0600 
    189 H189        0.3519  -13.6092  -46.9268 H         1 UNK         0.3000 
    190 H190       -3.0718  -21.5939  -44.5234 H         1 UNK         0.3000 
    191 H191       -5.2903  -22.4822  -46.0833 H         1 UNK         0.0600 
    192 H192       -5.2259  -22.6970  -43.6200 H         1 UNK         0.0600 
    193 H193       -5.4307  -24.2820  -44.3486 H         1 UNK         0.0600 
    194 H194       -3.8587  -23.8064  -43.7159 H         1 UNK         0.0600 
    195 H195       -1.9915  -23.7774  -45.6617 H         1 UNK         0.3000 
    196 H196       -2.4049  -26.1306  -47.3097 H         1 UNK         0.0600 
    197 H197        0.0556  -26.3978  -47.0152 H         1 UNK         0.0600 
    198 H198       -0.7333  -26.1106  -45.4719 H         1 UNK         0.0600 
    199 H199        0.1590  -24.8113  -46.2626 H         1 UNK         0.0600 
    200 H200       -1.0542  -22.8580  -47.7688 H         1 UNK         0.3000 
    201 H201       -0.1007  -23.2438  -50.4260 H         1 UNK         0.0600 
    202 H202        0.6573  -21.4142  -48.8877 H         1 UNK         0.0600 
    203 H203       -0.9242  -20.6475  -49.0308 H         1 UNK         0.0600 
    204 H204        0.1165  -20.7992  -50.4418 H         1 UNK         0.0600 
    205 H205       -3.2565  -22.0571  -49.1719 H         1 UNK         0.3000 
    206 H206       -4.4091  -21.5629  -51.7694 H         1 UNK         0.0600 
    207 H207       -6.5195  -21.3534  -50.4832 H         1 UNK         0.0600 
    208 H208       -5.7632  -22.0572  -49.0574 H         1 UNK         0.0600 
    209 H209       -5.2418  -20.4890  -49.6445 H         1 UNK         0.0600 
    210 H210       -4.5693  -24.2865  -49.4402 H         1 UNK         0.3000 
    211 H211       -5.2112  -26.3851  -49.5031 H         1 UNK         0.0600 
    212 H212       -4.6584  -26.3098  -52.5188 H         1 UNK         0.0600 
    213 H213       -4.6561  -27.7320  -51.4866 H         1 UNK         0.0600 
    214 H214       -3.4200  -26.5034  -51.2794 H         1 UNK         0.0600 
    215 H215       -7.1992  -24.1836  -50.4626 H         1 UNK         0.3000 
    216 H216       -9.2739  -23.8190  -51.0781 H         1 UNK         0.0600 
    217 H217       -9.8840  -25.5441  -49.3547 H         1 UNK         0.0600 
    218 H218       -9.8740  -26.7859  -50.6064 H         1 UNK         0.0600 
    219 H219      -11.0423  -25.4748  -50.6709 H         1 UNK         0.0600 
    220 H220       -7.1899  -24.7723  -53.1082 H         1 UNK         0.3000 
    221 H221       -8.9043  -24.9150  -55.4460 H         1 UNK         0.0600 
    222 H222       -7.4044  -27.4499  -54.5752 H         1 UNK         0.0600 
    223 H223       -9.1518  -27.2774  -54.7150 H         1 UNK         0.0600 
    224 H224       -8.1548  -27.2319  -56.1518 H         1 UNK         0.0600 
    225 H225       -5.7806  -24.2795  -54.0774 H         1 UNK         0.3000 
    226 H226       -4.2170  -24.9173  -56.4120 H         1 UNK         0.0600 
    227 H227       -3.3122  -24.9003  -54.0576 H         1 UNK         0.0600 
    228 H228       -2.3918  -23.8682  -55.1400 H         1 UNK         0.0600 
    229 H229       -3.5303  -23.1510  -54.0125 H         1 UNK         0.0600 
    230 H230       -3.2921  -23.5533  -57.9031 H         1 UNK         0.3000 
    231 H231       -4.7502  -21.3209  -58.8415 H         1 UNK         0.0600 
    232 H232       -2.9163  -21.2185  -60.5375 H         1 UNK         0.0600 
    233 H233       -3.4668  -22.8680  -60.3008 H         1 UNK         0.0600 
    234 H234       -1.9495  -22.3314  -59.5773 H         1 UNK         0.0600 
    235 H235       -2.4320  -21.3883  -56.3511 H         1 UNK         0.3000 
    236 H236       -1.1720  -18.8539  -56.5792 H         1 UNK         0.0600 
    237 H237       -0.7344  -19.1815  -54.1326 H         1 UNK         0.0600 
    238 H238       -1.8529  -20.5399  -54.1055 H         1 UNK         0.0600 
    239 H239       -0.3675  -20.6326  -55.0507 H         1 UNK         0.0600 
    240 H240       -4.3495  -19.8118  -55.2905 H         1 UNK         0.3000 
    241 H241       -5.1312  -16.9617  -55.1286 H         1 UNK         0.0600 
    242 H242       -7.6504  -19.6995  -56.6508 H         1 UNK         0.3800 
    243 H243       -6.0849  -20.2592  -56.1447 H         1 UNK         0.3800 
    244 H244       -6.4712  -17.4367  -53.0281 H         1 UNK         0.0800 
    245 H245       -5.6594  -18.9699  -52.8864 H         1 UNK         0.0800 
    246 H246       -2.9617  -19.1384  -52.2490 H         1 UNK         0.0800 
    247 H247       -4.1574  -19.0447  -50.9785 H         1 UNK         0.0800 
@<TRIPOS>BOND
     1    1    2 1    
     2    1  127 1    
     3    1  128 1    
     4    1  129 1    
     5    2    3 2    
     6    2    4 am   BACKBONE|DICT|INTERRES
     7    4    5 1    
     8    4  130 1    
     9    5    6 1    
    10    5   65 1    
    11    5  131 1    
    12    6    7 1    
    13    6  132 1    
    14    6  133 1    
    15    7    8 1    
    16    8    9 1    
    17    8  134 1    
    18    8  135 1    
    19    9   10 ar   
    20    9   14 ar   
    21   10   11 ar   
    22   10  136 1    
    23   11   12 ar   
    24   11  126 1    
    25   12   13 ar   
    26   12  137 1    
    27   13   14 ar   
    28   13   15 1    
    29   14  138 1    
    30   15   16 1    
    31   15  139 1    
    32   15  140 1    
    33   16   17 1    
    34   17   18 1    
    35   17  141 1    
    36   17  142 1    
    37   18   19 1    
    38   18   67 1    
    39   18  143 1    
    40   19   20 am   BACKBONE|DICT|INTERRES
    41   19  144 1    
    42   20   21 2    
    43   20   22 1    
    44   22   23 1    
    45   22   24 1    
    46   22  145 1    
    47   23  146 1    
    48   23  147 1    
    49   23  148 1    
    50   24   25 am   BACKBONE|DICT|INTERRES
    51   24  149 1    
    52   25   26 2    
    53   25   27 1    
    54   27   28 1    
    55   27   29 1    
    56   27  150 1    
    57   28  151 1    
    58   28  152 1    
    59   28  153 1    
    60   29   30 am   BACKBONE|DICT|INTERRES
    61   29  154 1    
    62   30   31 2    
    63   30   32 1    
    64   32   33 1    
    65   32   34 1    
    66   32  155 1    
    67   33  156 1    
    68   33  157 1    
    69   33  158 1    
    70   34   35 am   BACKBONE|DICT|INTERRES
    71   34  159 1    
    72   35   36 2    
    73   35   37 1    
    74   37   38 1    
    75   37   39 1    
    76   37  160 1    
    77   38  161 1    
    78   38  162 1    
    79   38  163 1    
    80   39   40 am   BACKBONE|DICT|INTERRES
    81   39  164 1    
    82   40   41 2    
    83   40   42 1    
    84   42   43 1    
    85   42   44 1    
    86   42  165 1    
    87   43  166 1    
    88   43  167 1    
    89   43  168 1    
    90   44   45 am   BACKBONE|DICT|INTERRES
    91   44  169 1    
    92   45   46 2    
    93   45   47 1    
    94   47   48 1    
    95   47   49 1    
    96   47  170 1    
    97   48  171 1    
    98   48  172 1    
    99   48  173 1    
   100   49   50 am   BACKBONE|DICT|INTERRES
   101   49  174 1    
   102   50   51 2    
   103   50   52 1    
   104   52   53 1    
   105   52   54 1    
   106   52  175 1    
   107   53  176 1    
   108   53  177 1    
   109   53  178 1    
   110   54   55 am   BACKBONE|DICT|INTERRES
   111   54  179 1    
   112   55   56 2    
   113   55   57 1    
   114   57   58 1    
   115   57   59 1    
   116   57  180 1    
   117   58  181 1    
   118   58  182 1    
   119   58  183 1    
   120   59   60 am   BACKBONE|DICT|INTERRES
   121   59  184 1    
   122   60   61 2    
   123   60   62 1    
   124   62   63 1    
   125   62   64 1    
   126   62  185 1    
   127   63  186 1    
   128   63  187 1    
   129   63  188 1    
   130   64   65 am   BACKBONE|DICT|INTERRES
   131   64  189 1    
   132   65   66 2    
   133   67   68 2    
   134   67   69 am   BACKBONE|DICT|INTERRES
   135   69   70 1    
   136   69  190 1    
   137   70   71 1    
   138   70   72 1    
   139   70  191 1    
   140   71  192 1    
   141   71  193 1    
   142   71  194 1    
   143   72   73 2    
   144   72   74 am   BACKBONE|DICT|INTERRES
   145   74   75 1    
   146   74  195 1    
   147   75   76 1    
   148   75   77 1    
   149   75  196 1    
   150   76  197 1    
   151   76  198 1    
   152   76  199 1    
   153   77   78 2    
   154   77   79 am   BACKBONE|DICT|INTERRES
   155   79   80 1    
   156   79  200 1    
   157   80   81 1    
   158   80   82 1    
   159   80  201 1    
   160   81  202 1    
   161   81  203 1    
   162   81  204 1    
   163   82   83 2    
   164   82   84 am   BACKBONE|DICT|INTERRES
   165   84   85 1    
   166   84  205 1    
   167   85   86 1    
   168   85   87 1    
   169   85  206 1    
   170   86  207 1    
   171   86  208 1    
   172   86  209 1    
   173   87   88 2    
   174   87   89 am   BACKBONE|DICT|INTERRES
   175   89   90 1    
   176   89  210 1    
   177   90   91 1    
   178   90   92 1    
   179   90  211 1    
   180   91  212 1    
   181   91  213 1    
   182   91  214 1    
   183   92   93 2    
   184   92   94 am   BACKBONE|DICT|INTERRES
   185   94   95 1    
   186   94  215 1    
   187   95   96 1    
   188   95   97 1    
   189   95  216 1    
   190   96  217 1    
   191   96  218 1    
   192   96  219 1    
   193   97   98 2    
   194   97   99 am   BACKBONE|DICT|INTERRES
   195   99  100 1    
   196   99  220 1    
   197  100  101 1    
   198  100  102 1    
   199  100  221 1    
   200  101  222 1    
   201  101  223 1    
   202  101  224 1    
   203  102  103 2    
   204  102  104 am   BACKBONE|DICT|INTERRES
   205  104  105 1    
   206  104  225 1    
   207  105  106 1    
   208  105  107 1    
   209  105  226 1    
   210  106  227 1    
   211  106  228 1    
   212  106  229 1    
   213  107  108 2    
   214  107  109 am   BACKBONE|DICT|INTERRES
   215  109  110 1    
   216  109  230 1    
   217  110  111 1    
   218  110  112 1    
   219  110  231 1    
   220  111  232 1    
   221  111  233 1    
   222  111  234 1    
   223  112  113 2    
   224  112  114 am   BACKBONE|DICT|INTERRES
   225  114  115 1    
   226  114  235 1    
   227  115  116 1    
   228  115  117 1    
   229  115  236 1    
   230  116  237 1    
   231  116  238 1    
   232  116  239 1    
   233  117  118 2    
   234  117  119 am   BACKBONE|DICT|INTERRES
   235  119  120 1    
   236  119  240 1    
   237  120  121 1    
   238  120  124 1    
   239  120  241 1    
   240  121  122 am   BACKBONE|DICT|INTERRES
   241  121  123 2    
   242  122  242 1    
   243  122  243 1    
   244  124  125 1    
   245  124  244 1    
   246  124  245 1    
   247  125  126 1    
   248  126  246 1    
   249  126  247 1    
@<TRIPOS>SUBSTRUCTURE
     1 UNK         1 GROUP             0       ****    0 ROOT    
