@<TRIPOS>MOLECULE
3R540
247   249    1
SMALL
USER_CHARGES


@<TRIPOS>ATOM
      1 CA          3.0452  -13.5547  -53.1641 C.3       0 UNK        -0.1800 
      2 C           2.6623  -13.2913  -51.7144 C.2       0 UNK         0.5000 
      3 O           2.6733  -12.1412  -51.2752 O.2       0 UNK        -0.5000 
      4 N           2.3256  -14.3511  -50.9717 N.am      1 UNK        -0.5000 
      5 CA          1.8328  -14.2850  -49.5974 C.3       1 UNK         0.1400 
      6 C6          1.9510  -15.6533  -48.8781 C.3       23 UNK        -0.0398 
      7 S7          3.6079  -16.0056  -48.1981 S.3       23 UNK        -0.2404 
      8 C8          4.5621  -16.6351  -49.6197 C.3       23 UNK        -0.0205 
      9 C9          3.8315  -17.7058  -50.4174 C.ar      23 UNK        -0.0193 
     10 C10         3.3991  -17.4235  -51.7136 C.ar      23 UNK        -0.1150 
     11 C11         2.7035  -18.3759  -52.4568 C.ar      23 UNK        -0.0193 
     12 C12         2.4658  -19.6392  -51.9033 C.ar      23 UNK        -0.1150 
     13 C13         2.9181  -19.9523  -50.6152 C.ar      23 UNK        -0.0193 
     14 C14         3.6005  -18.9747  -49.8776 C.ar      23 UNK        -0.1150 
     15 C15         2.7328  -21.3714  -50.0764 C.3       23 UNK        -0.0205 
     16 S16         2.3609  -21.4671  -48.2902 S.3       23 UNK        -0.2404 
     17 C17         0.5483  -21.2645  -48.2474 C.3       23 UNK        -0.0398 
     18 CA         -0.1624  -22.3664  -47.4147 C.3       11 UNK         0.1400 
     19 N           0.3380  -22.4177  -46.0352 N.am      11 UNK        -0.5000 
     20 C           0.2872  -23.4464  -45.1805 C.2       10 UNK         0.5000 
     21 O          -0.2402  -24.5259  -45.4604 O.2       10 UNK        -0.5000 
     22 CA          0.8091  -23.2029  -43.7485 C.3       10 UNK         0.1400 
     23 CB          1.5349  -24.4340  -43.1669 C.3       10 UNK        -0.1800 
     24 N           1.6013  -21.9752  -43.6034 N.am      10 UNK        -0.5000 
     25 C           2.8364  -21.7214  -44.0635 C.2       9 UNK         0.5000 
     26 O           3.5358  -22.5533  -44.6420 O.2       9 UNK        -0.5000 
     27 CA          3.3901  -20.2931  -43.8618 C.3       9 UNK         0.1400 
     28 CB          3.6254  -19.6081  -45.2190 C.3       9 UNK        -0.1800 
     29 N           2.5286  -19.4315  -43.0474 N.am      9 UNK        -0.5000 
     30 C           2.4206  -19.4743  -41.7129 C.2       8 UNK         0.5000 
     31 O           3.0797  -20.2308  -40.9993 O.2       8 UNK        -0.5000 
     32 CA          1.3733  -18.5410  -41.0702 C.3       8 UNK         0.1400 
     33 CB          1.9707  -17.1530  -40.7942 C.3       8 UNK        -0.1800 
     34 N           0.1566  -18.3979  -41.8753 N.am      8 UNK        -0.5000 
     35 C          -0.7062  -19.3933  -42.1286 C.2       7 UNK         0.5000 
     36 O          -0.5843  -20.5342  -41.6818 O.2       7 UNK        -0.5000 
     37 CA         -1.8677  -19.0828  -43.0919 C.3       7 UNK         0.1400 
     38 CB         -3.0050  -18.3509  -42.3649 C.3       7 UNK        -0.1800 
     39 N          -1.4463  -18.3084  -44.2601 N.am      7 UNK        -0.5000 
     40 C          -0.5348  -18.7254  -45.1508 C.2       6 UNK         0.5000 
     41 O           0.0210  -19.8191  -45.0977 O.2       6 UNK        -0.5000 
     42 CA         -0.1183  -17.7341  -46.2451 C.3       6 UNK         0.1400 
     43 CB         -1.1869  -17.6467  -47.3422 C.3       6 UNK        -0.1800 
     44 N           0.1457  -16.4067  -45.7047 N.am      6 UNK        -0.5000 
     45 C           1.0981  -16.1060  -44.8134 C.2       5 UNK         0.5000 
     46 O           1.9025  -16.9203  -44.3651 O.2       5 UNK        -0.5000 
     47 CA          1.1155  -14.6575  -44.3011 C.3       5 UNK         0.1400 
     48 CB          1.8565  -13.7382  -45.2848 C.3       5 UNK        -0.1800 
     49 N          -0.2374  -14.1480  -44.0725 N.am      5 UNK        -0.5000 
     50 C          -1.0521  -14.5725  -43.0966 C.2       4 UNK         0.5000 
     51 O          -0.7330  -15.4169  -42.2583 O.2       4 UNK        -0.5000 
     52 CA         -2.4701  -13.9702  -43.0749 C.3       4 UNK         0.1400 
     53 CB         -2.4633  -12.5914  -42.3980 C.3       4 UNK        -0.1800 
     54 N          -3.0578  -13.8521  -44.4122 N.am      4 UNK        -0.5000 
     55 C          -3.4460  -14.8984  -45.1544 C.2       3 UNK         0.5000 
     56 O          -3.3599  -16.0675  -44.7784 O.2       3 UNK        -0.5000 
     57 CA         -3.9768  -14.5945  -46.5722 C.3       3 UNK         0.1400 
     58 CB         -5.4656  -14.2222  -46.5253 C.3       3 UNK        -0.1800 
     59 N          -3.2436  -13.5581  -47.3128 N.am      3 UNK        -0.5000 
     60 C          -1.9194  -13.5503  -47.5100 C.2       2 UNK         0.5000 
     61 O          -1.1527  -14.3442  -46.9658 O.2       2 UNK        -0.5000 
     62 CA         -1.3425  -12.4703  -48.4468 C.3       2 UNK         0.1400 
     63 CB         -1.3333  -11.1022  -47.7476 C.3       2 UNK        -0.1800 
     64 N           0.0300  -12.8060  -48.8359 N.am      2 UNK        -0.5000 
     65 C           0.3589  -13.8425  -49.6174 C.2       1 UNK         0.5000 
     66 O          -0.4539  -14.4897  -50.2812 O.2       1 UNK        -0.5000 
     67 C          -1.7020  -22.2039  -47.4333 C.2       11 UNK         0.5000 
     68 O          -2.2368  -21.3525  -48.1420 O.2       11 UNK        -0.5000 
     69 N          -2.3849  -23.0237  -46.6320 N.am      12 UNK        -0.5000 
     70 CA         -3.8285  -23.0876  -46.4371 C.3       12 UNK         0.1400 
     71 CB         -4.3757  -21.7866  -45.8163 C.3       12 UNK        -0.1800 
     72 C          -4.1402  -24.2926  -45.5420 C.2       12 UNK         0.5000 
     73 O          -5.0505  -25.0610  -45.8502 O.2       12 UNK        -0.5000 
     74 N          -3.3466  -24.4534  -44.4707 N.am      13 UNK        -0.5000 
     75 CA         -3.4014  -25.5859  -43.5454 C.3       13 UNK         0.1400 
     76 CB         -2.5172  -25.2897  -42.3245 C.3       13 UNK        -0.1800 
     77 C          -2.9924  -26.9117  -44.2129 C.2       13 UNK         0.5000 
     78 O          -3.6559  -27.9262  -43.9950 O.2       13 UNK        -0.5000 
     79 N          -1.9338  -26.8715  -45.0357 N.am      14 UNK        -0.5000 
     80 CA         -1.5529  -27.9620  -45.9304 C.3       14 UNK         0.1400 
     81 CB         -0.0585  -27.8495  -46.2818 C.3       14 UNK        -0.1800 
     82 C          -2.4511  -27.9305  -47.1787 C.2       14 UNK         0.5000 
     83 O          -3.2901  -28.8149  -47.3533 O.2       14 UNK        -0.5000 
     84 N          -2.2864  -26.8800  -47.9896 N.am      15 UNK        -0.5000 
     85 CA         -3.0835  -26.5479  -49.1654 C.3       15 UNK         0.1400 
     86 CB         -2.8569  -27.5687  -50.2977 C.3       15 UNK        -0.1800 
     87 C          -2.6692  -25.1450  -49.6256 C.2       15 UNK         0.5000 
     88 O          -1.5002  -24.7831  -49.4715 O.2       15 UNK        -0.5000 
     89 N          -3.6185  -24.3928  -50.1898 N.am      16 UNK        -0.5000 
     90 CA         -3.3764  -23.0945  -50.8172 C.3       16 UNK         0.1400 
     91 CB         -4.5281  -22.1408  -50.4635 C.3       16 UNK        -0.1800 
     92 C          -3.2837  -23.2794  -52.3384 C.2       16 UNK         0.5000 
     93 O          -4.0193  -24.0969  -52.8985 O.2       16 UNK        -0.5000 
     94 N          -2.3989  -22.5119  -52.9831 N.am      17 UNK        -0.5000 
     95 CA         -2.1945  -22.5405  -54.4336 C.3       17 UNK         0.1400 
     96 CB         -0.7378  -22.1638  -54.7422 C.3       17 UNK        -0.1800 
     97 C          -3.1740  -21.6282  -55.1996 C.2       17 UNK         0.5000 
     98 O          -3.2854  -21.7609  -56.4192 O.2       17 UNK        -0.5000 
     99 N          -3.8674  -20.7306  -54.4901 N.am      18 UNK        -0.5000 
    100 CA        -4.8875  -19.8272  -55.0147 C.3       18 UNK         0.1400 
    101 CB        -4.2277  -18.6057  -55.6865 C.3       18 UNK        -0.1800 
    102 C         -5.8677  -19.4562  -53.8860 C.2       18 UNK         0.5000 
    103 O         -5.7914  -20.0262  -52.7946 O.2       18 UNK        -0.5000 
    104 N         -6.8103  -18.5524  -54.1808 N.am      19 UNK        -0.5000 
    105 CA        -7.8763  -18.1177  -53.2782 C.3       19 UNK         0.1400 
    106 CB        -8.9434  -17.3703  -54.0967 C.3       19 UNK        -0.1800 
    107 C         -7.3446  -17.2572  -52.1142 C.2       19 UNK         0.5000 
    108 O         -7.1895  -16.0438  -52.2715 O.2       19 UNK        -0.5000 
    109 N         -7.0818  -17.9096  -50.9730 N.am      20 UNK        -0.5000 
    110 CA        -6.5954  -17.3829  -49.6898 C.3       20 UNK         0.1400 
    111 CB        -7.5669  -16.3468  -49.0928 C.3       20 UNK        -0.1800 
    112 C         -5.1519  -16.8508  -49.7467 C.2       20 UNK         0.5000 
    113 O         -4.2927  -17.3481  -49.0173 O.2       20 UNK        -0.5000 
    114 N         -4.8931  -15.8857  -50.6375 N.am      21 UNK        -0.5000 
    115 CA        -3.5488  -15.4719  -51.0331 C.3       21 UNK         0.1400 
    116 CB        -3.6372  -14.2341  -51.9364 C.3       21 UNK        -0.1800 
    117 C         -2.8452  -16.6385  -51.7485 C.2       21 UNK         0.5000 
    118 O         -3.4800  -17.3265  -52.5491 O.2       21 UNK        -0.5000 
    119 N         -1.5775  -16.8728  -51.4001 N.am      22 UNK        -0.5000 
    120 CA        -0.8166  -18.0913  -51.7294 C.3       22 UNK         0.1400 
    121 C         -1.3908  -19.4070  -51.1140 C.2       22 UNK         0.5000 
    122 N         -2.2693  -19.3485  -50.1227 N.am      22 UNK        -0.7600 
    123 O         -1.0044  -20.5044  -51.5083 O.2       22 UNK        -0.5000 
    124 C124       -0.5003  -18.2304  -53.2444 C.3       23 UNK        -0.0398 
    125 S125        0.7152  -16.9998  -53.8155 S.3       23 UNK        -0.2404 
    126 C126        2.2241  -18.0237  -53.8579 C.3       23 UNK        -0.0205 
    127 H127        4.1124  -13.3859  -53.3073 H         1 UNK         0.0600 
    128 H128        2.5002  -12.8804  -53.8247 H         1 UNK         0.0600 
    129 H129        2.8157  -14.5766  -53.4661 H         1 UNK         0.0600 
    130 H130        2.2786  -15.2621  -51.4026 H         1 UNK         0.3000 
    131 H131        2.4154  -13.5456  -49.0432 H         1 UNK         0.0600 
    132 H132        1.6122  -16.4717  -49.5143 H         1 UNK         0.0800 
    133 H133        1.2873  -15.6755  -48.0142 H         1 UNK         0.0800 
    134 H134        5.5047  -17.0447  -49.2544 H         1 UNK         0.0800 
    135 H135        4.8285  -15.7919  -50.2589 H         1 UNK         0.0800 
    136 H136        3.6064  -16.4594  -52.1529 H         1 UNK         0.1150 
    137 H137        1.9408  -20.3859  -52.4826 H         1 UNK         0.1150 
    138 H138        3.9632  -19.1991  -48.8845 H         1 UNK         0.1150 
    139 H139        1.9596  -21.9012  -50.6353 H         1 UNK         0.0800 
    140 H140        3.6605  -21.9158  -50.2557 H         1 UNK         0.0800 
    141 H141        0.1696  -21.2698  -49.2693 H         1 UNK         0.0800 
    142 H142        0.3291  -20.2750  -47.8482 H         1 UNK         0.0800 
    143 H143        0.0583  -23.3260  -47.8850 H         1 UNK         0.0600 
    144 H144        0.6409  -21.5217  -45.6642 H         1 UNK         0.3000 
    145 H145       -0.0810  -23.0392  -43.1399 H         1 UNK         0.0600 
    146 H146        1.8797  -24.2449  -42.1503 H         1 UNK         0.0600 
    147 H147        0.8728  -25.2993  -43.1283 H         1 UNK         0.0600 
    148 H148        2.3973  -24.7217  -43.7680 H         1 UNK         0.0600 
    149 H149        1.1117  -21.2042  -43.1668 H         1 UNK         0.3000 
    150 H150        4.3550  -20.3896  -43.3603 H         1 UNK         0.0600 
    151 H151        4.2982  -20.1938  -45.8465 H         1 UNK         0.0600 
    152 H152        4.0755  -18.6233  -45.0930 H         1 UNK         0.0600 
    153 H153        2.6939  -19.4804  -45.7708 H         1 UNK         0.0600 
    154 H154        1.9998  -18.7259  -43.5518 H         1 UNK         0.3000 
    155 H155        1.0867  -18.9800  -40.1123 H         1 UNK         0.0600 
    156 H156        2.8542  -17.2278  -40.1591 H         1 UNK         0.0600 
    157 H157        1.2544  -16.5103  -40.2820 H         1 UNK         0.0600 
    158 H158        2.2702  -16.6513  -41.7143 H         1 UNK         0.0600 
    159 H159       -0.0276  -17.4805  -42.2652 H         1 UNK         0.3000 
    160 H160       -2.2571  -20.0362  -43.4547 H         1 UNK         0.0600 
    161 H161       -2.6953  -17.3630  -42.0228 H         1 UNK         0.0600 
    162 H162       -3.3376  -18.9133  -41.4917 H         1 UNK         0.0600 
    163 H163       -3.8690  -18.2224  -43.0171 H         1 UNK         0.0600 
    164 H164       -1.8915  -17.4060  -44.3941 H         1 UNK         0.3000 
    165 H165        0.8061  -18.1003  -46.6963 H         1 UNK         0.0600 
    166 H166       -0.8383  -17.0676  -48.1972 H         1 UNK         0.0600 
    167 H167       -1.4491  -18.6411  -47.7002 H         1 UNK         0.0600 
    168 H168       -2.1044  -17.1856  -46.9782 H         1 UNK         0.0600 
    169 H169       -0.4465  -15.6518  -46.0492 H         1 UNK         0.3000 
    170 H170        1.6527  -14.6443  -43.3504 H         1 UNK         0.0600 
    171 H171        2.8743  -14.0918  -45.4552 H         1 UNK         0.0600 
    172 H172        1.3602  -13.6964  -46.2540 H         1 UNK         0.0600 
    173 H173        1.9253  -12.7213  -44.8986 H         1 UNK         0.0600 
    174 H174       -0.6051  -13.5146  -44.7669 H         1 UNK         0.3000 
    175 H175       -3.1022  -14.6349  -42.4818 H         1 UNK         0.0600 
    176 H176       -2.0440  -12.6527  -41.3929 H         1 UNK         0.0600 
    177 H177       -1.8692  -11.8684  -42.9583 H         1 UNK         0.0600 
    178 H178       -3.4741  -12.1942  -42.3034 H         1 UNK         0.0600 
    179 H179       -3.1506  -12.9236  -44.7967 H         1 UNK         0.3000 
    180 H180       -3.8814  -15.5163  -47.1470 H         1 UNK         0.0600 
    181 H181       -5.6296  -13.2864  -45.9897 H         1 UNK         0.0600 
    182 H182       -6.0462  -14.9961  -46.0213 H         1 UNK         0.0600 
    183 H183       -5.8754  -14.1102  -47.5292 H         1 UNK         0.0600 
    184 H184       -3.8072  -12.8546  -47.7673 H         1 UNK         0.3000 
    185 H185       -1.9625  -12.4160  -49.3441 H         1 UNK         0.0600 
    186 H186       -2.3424  -10.7907  -47.4751 H         1 UNK         0.0600 
    187 H187       -0.7373  -11.1201  -46.8341 H         1 UNK         0.0600 
    188 H188       -0.9238  -10.3301  -48.3994 H         1 UNK         0.0600 
    189 H189        0.7602  -12.3347  -48.3232 H         1 UNK         0.3000 
    190 H190       -1.8393  -23.7224  -46.1377 H         1 UNK         0.3000 
    191 H191       -4.3028  -23.2541  -47.4053 H         1 UNK         0.0600 
    192 H192       -3.8607  -21.5340  -44.8890 H         1 UNK         0.0600 
    193 H193       -5.4382  -21.8801  -45.5888 H         1 UNK         0.0600 
    194 H194       -4.2692  -20.9416  -46.4963 H         1 UNK         0.0600 
    195 H195       -2.6563  -23.7468  -44.2700 H         1 UNK         0.3000 
    196 H196       -4.4328  -25.6893  -43.2015 H         1 UNK         0.0600 
    197 H197       -2.5621  -26.1075  -41.6041 H         1 UNK         0.0600 
    198 H198       -2.8434  -24.3859  -41.8097 H         1 UNK         0.0600 
    199 H199       -1.4727  -25.1582  -42.6052 H         1 UNK         0.0600 
    200 H200       -1.4185  -26.0028  -45.1412 H         1 UNK         0.3000 
    201 H201       -1.7052  -28.9181  -45.4249 H         1 UNK         0.0600 
    202 H202        0.5591  -27.9402  -45.3881 H         1 UNK         0.0600 
    203 H203        0.1868  -26.8983  -46.7551 H         1 UNK         0.0600 
    204 H204        0.2407  -28.6443  -46.9660 H         1 UNK         0.0600 
    205 H205       -1.5619  -26.2023  -47.7877 H         1 UNK         0.3000 
    206 H206       -4.1378  -26.5348  -48.8815 H         1 UNK         0.0600 
    207 H207       -3.2077  -28.5627  -50.0217 H         1 UNK         0.0600 
    208 H208       -3.3978  -27.2782  -51.1993 H         1 UNK         0.0600 
    209 H209       -1.8009  -27.6468  -50.5596 H         1 UNK         0.0600 
    210 H210       -4.5348  -24.7885  -50.3457 H         1 UNK         0.3000 
    211 H211       -2.4418  -22.6612  -50.4561 H         1 UNK         0.0600 
    212 H212       -4.3503  -21.1508  -50.8832 H         1 UNK         0.0600 
    213 H213       -4.6269  -22.0159  -49.3862 H         1 UNK         0.0600 
    214 H214       -5.4841  -22.4949  -50.8509 H         1 UNK         0.0600 
    215 H215       -1.8397  -21.8426  -52.4548 H         1 UNK         0.3000 
    216 H216       -2.3527  -23.5586  -54.7960 H         1 UNK         0.0600 
    217 H217       -0.0405  -22.8239  -54.2261 H         1 UNK         0.0600 
    218 H218       -0.5165  -21.1423  -54.4424 H         1 UNK         0.0600 
    219 H219       -0.5313  -22.2430  -55.8102 H         1 UNK         0.0600 
    220 H220       -3.7811  -20.7203  -53.4818 H         1 UNK         0.3000 
    221 H221       -5.4729  -20.3629  -55.7646 H         1 UNK         0.0600 
    222 H222       -3.6162  -18.0402  -54.9862 H         1 UNK         0.0600 
    223 H223       -3.5834  -18.9110  -56.5109 H         1 UNK         0.0600 
    224 H224       -4.9696  -17.9237  -56.1019 H         1 UNK         0.0600 
    225 H225       -6.7940  -18.1136  -55.0894 H         1 UNK         0.3000 
    226 H226       -8.3519  -19.0063  -52.8571 H         1 UNK         0.0600 
    227 H227       -9.3854  -18.0185  -54.8536 H         1 UNK         0.0600 
    228 H228       -9.7537  -17.0222  -53.4549 H         1 UNK         0.0600 
    229 H229       -8.5286  -16.4980  -54.6037 H         1 UNK         0.0600 
    230 H230       -7.1520  -18.9181  -51.0078 H         1 UNK         0.3000 
    231 H231       -6.5834  -18.2384  -49.0125 H         1 UNK         0.0600 
    232 H232       -8.5799  -16.7451  -49.0347 H         1 UNK         0.0600 
    233 H233       -7.6016  -15.4278  -49.6784 H         1 UNK         0.0600 
    234 H234       -7.2680  -16.0779  -48.0798 H         1 UNK         0.0600 
    235 H235       -5.6526  -15.6273  -51.2613 H         1 UNK         0.3000 
    236 H236       -2.9958  -15.2115  -50.1286 H         1 UNK         0.0600 
    237 H237       -2.6415  -13.8956  -52.2264 H         1 UNK         0.0600 
    238 H238       -4.1952  -14.4433  -52.8501 H         1 UNK         0.0600 
    239 H239       -4.1270  -13.4062  -51.4239 H         1 UNK         0.0600 
    240 H240       -1.1100  -16.1921  -50.8074 H         1 UNK         0.3000 
    241 H241        0.1335  -17.9715  -51.2089 H         1 UNK         0.0600 
    242 H242       -2.6612  -18.4721  -49.8048 H         1 UNK         0.3800 
    243 H243       -2.5086  -20.1985  -49.6224 H         1 UNK         0.3800 
    244 H244       -0.0927  -19.2134  -53.4680 H         1 UNK         0.0800 
    245 H245       -1.4031  -18.1471  -53.8487 H         1 UNK         0.0800 
    246 H246        2.0481  -18.9251  -54.4471 H         1 UNK         0.0800 
    247 H247        3.0073  -17.4719  -54.3800 H         1 UNK         0.0800 
@<TRIPOS>BOND
     1    1    2 1    
     2    1  127 1    
     3    1  128 1    
     4    1  129 1    
     5    2    3 2    
     6    2    4 am   BACKBONE|DICT|INTERRES
     7    4    5 1    
     8    4  130 1    
     9    5    6 1    
    10    5   65 1    
    11    5  131 1    
    12    6    7 1    
    13    6  132 1    
    14    6  133 1    
    15    7    8 1    
    16    8    9 1    
    17    8  134 1    
    18    8  135 1    
    19    9   10 ar   
    20    9   14 ar   
    21   10   11 ar   
    22   10  136 1    
    23   11   12 ar   
    24   11  126 1    
    25   12   13 ar   
    26   12  137 1    
    27   13   14 ar   
    28   13   15 1    
    29   14  138 1    
    30   15   16 1    
    31   15  139 1    
    32   15  140 1    
    33   16   17 1    
    34   17   18 1    
    35   17  141 1    
    36   17  142 1    
    37   18   19 1    
    38   18   67 1    
    39   18  143 1    
    40   19   20 am   BACKBONE|DICT|INTERRES
    41   19  144 1    
    42   20   21 2    
    43   20   22 1    
    44   22   23 1    
    45   22   24 1    
    46   22  145 1    
    47   23  146 1    
    48   23  147 1    
    49   23  148 1    
    50   24   25 am   BACKBONE|DICT|INTERRES
    51   24  149 1    
    52   25   26 2    
    53   25   27 1    
    54   27   28 1    
    55   27   29 1    
    56   27  150 1    
    57   28  151 1    
    58   28  152 1    
    59   28  153 1    
    60   29   30 am   BACKBONE|DICT|INTERRES
    61   29  154 1    
    62   30   31 2    
    63   30   32 1    
    64   32   33 1    
    65   32   34 1    
    66   32  155 1    
    67   33  156 1    
    68   33  157 1    
    69   33  158 1    
    70   34   35 am   BACKBONE|DICT|INTERRES
    71   34  159 1    
    72   35   36 2    
    73   35   37 1    
    74   37   38 1    
    75   37   39 1    
    76   37  160 1    
    77   38  161 1    
    78   38  162 1    
    79   38  163 1    
    80   39   40 am   BACKBONE|DICT|INTERRES
    81   39  164 1    
    82   40   41 2    
    83   40   42 1    
    84   42   43 1    
    85   42   44 1    
    86   42  165 1    
    87   43  166 1    
    88   43  167 1    
    89   43  168 1    
    90   44   45 am   BACKBONE|DICT|INTERRES
    91   44  169 1    
    92   45   46 2    
    93   45   47 1    
    94   47   48 1    
    95   47   49 1    
    96   47  170 1    
    97   48  171 1    
    98   48  172 1    
    99   48  173 1    
   100   49   50 am   BACKBONE|DICT|INTERRES
   101   49  174 1    
   102   50   51 2    
   103   50   52 1    
   104   52   53 1    
   105   52   54 1    
   106   52  175 1    
   107   53  176 1    
   108   53  177 1    
   109   53  178 1    
   110   54   55 am   BACKBONE|DICT|INTERRES
   111   54  179 1    
   112   55   56 2    
   113   55   57 1    
   114   57   58 1    
   115   57   59 1    
   116   57  180 1    
   117   58  181 1    
   118   58  182 1    
   119   58  183 1    
   120   59   60 am   BACKBONE|DICT|INTERRES
   121   59  184 1    
   122   60   61 2    
   123   60   62 1    
   124   62   63 1    
   125   62   64 1    
   126   62  185 1    
   127   63  186 1    
   128   63  187 1    
   129   63  188 1    
   130   64   65 am   BACKBONE|DICT|INTERRES
   131   64  189 1    
   132   65   66 2    
   133   67   68 2    
   134   67   69 am   BACKBONE|DICT|INTERRES
   135   69   70 1    
   136   69  190 1    
   137   70   71 1    
   138   70   72 1    
   139   70  191 1    
   140   71  192 1    
   141   71  193 1    
   142   71  194 1    
   143   72   73 2    
   144   72   74 am   BACKBONE|DICT|INTERRES
   145   74   75 1    
   146   74  195 1    
   147   75   76 1    
   148   75   77 1    
   149   75  196 1    
   150   76  197 1    
   151   76  198 1    
   152   76  199 1    
   153   77   78 2    
   154   77   79 am   BACKBONE|DICT|INTERRES
   155   79   80 1    
   156   79  200 1    
   157   80   81 1    
   158   80   82 1    
   159   80  201 1    
   160   81  202 1    
   161   81  203 1    
   162   81  204 1    
   163   82   83 2    
   164   82   84 am   BACKBONE|DICT|INTERRES
   165   84   85 1    
   166   84  205 1    
   167   85   86 1    
   168   85   87 1    
   169   85  206 1    
   170   86  207 1    
   171   86  208 1    
   172   86  209 1    
   173   87   88 2    
   174   87   89 am   BACKBONE|DICT|INTERRES
   175   89   90 1    
   176   89  210 1    
   177   90   91 1    
   178   90   92 1    
   179   90  211 1    
   180   91  212 1    
   181   91  213 1    
   182   91  214 1    
   183   92   93 2    
   184   92   94 am   BACKBONE|DICT|INTERRES
   185   94   95 1    
   186   94  215 1    
   187   95   96 1    
   188   95   97 1    
   189   95  216 1    
   190   96  217 1    
   191   96  218 1    
   192   96  219 1    
   193   97   98 2    
   194   97   99 am   BACKBONE|DICT|INTERRES
   195   99  100 1    
   196   99  220 1    
   197  100  101 1    
   198  100  102 1    
   199  100  221 1    
   200  101  222 1    
   201  101  223 1    
   202  101  224 1    
   203  102  103 2    
   204  102  104 am   BACKBONE|DICT|INTERRES
   205  104  105 1    
   206  104  225 1    
   207  105  106 1    
   208  105  107 1    
   209  105  226 1    
   210  106  227 1    
   211  106  228 1    
   212  106  229 1    
   213  107  108 2    
   214  107  109 am   BACKBONE|DICT|INTERRES
   215  109  110 1    
   216  109  230 1    
   217  110  111 1    
   218  110  112 1    
   219  110  231 1    
   220  111  232 1    
   221  111  233 1    
   222  111  234 1    
   223  112  113 2    
   224  112  114 am   BACKBONE|DICT|INTERRES
   225  114  115 1    
   226  114  235 1    
   227  115  116 1    
   228  115  117 1    
   229  115  236 1    
   230  116  237 1    
   231  116  238 1    
   232  116  239 1    
   233  117  118 2    
   234  117  119 am   BACKBONE|DICT|INTERRES
   235  119  120 1    
   236  119  240 1    
   237  120  121 1    
   238  120  124 1    
   239  120  241 1    
   240  121  122 am   BACKBONE|DICT|INTERRES
   241  121  123 2    
   242  122  242 1    
   243  122  243 1    
   244  124  125 1    
   245  124  244 1    
   246  124  245 1    
   247  125  126 1    
   248  126  246 1    
   249  126  247 1    
@<TRIPOS>SUBSTRUCTURE
     1 UNK         1 GROUP             0       ****    0 ROOT    
