@<TRIPOS>MOLECULE
3R540
247   249    1
SMALL
USER_CHARGES


@<TRIPOS>ATOM
      1 CA          2.2014  -17.3662  -48.4163 C.3       0 UNK        -0.1800 
      2 C           1.1806  -16.2399  -48.3406 C.2       0 UNK         0.5000 
      3 O           0.7928  -15.6944  -49.3727 O.2       0 UNK        -0.5000 
      4 N           0.7594  -15.8847  -47.1196 N.am      1 UNK        -0.5000 
      5 CA         -0.3063  -14.9175  -46.8089 C.3       1 UNK         0.1400 
      6 C6         -1.7141  -15.3401  -47.3180 C.3       23 UNK        -0.0398 
      7 S7         -2.2680  -16.9501  -46.6598 S.3       23 UNK        -0.2404 
      8 C8         -3.1647  -17.6561  -48.0763 C.3       23 UNK        -0.0205 
      9 C9         -2.2157  -18.1682  -49.1474 C.ar      23 UNK        -0.0193 
     10 C10        -1.9520  -17.4021  -50.2859 C.ar      23 UNK        -0.1150 
     11 C11        -1.0796  -17.8725  -51.2698 C.ar      23 UNK        -0.0193 
     12 C12        -0.4549  -19.1100  -51.1017 C.ar      23 UNK        -0.1150 
     13 C13        -0.7333  -19.8982  -49.9824 C.ar      23 UNK        -0.0193 
     14 C14        -1.6221  -19.4254  -49.0126 C.ar      23 UNK        -0.1150 
     15 C15        -0.1281  -21.2864  -49.8634 C.3       23 UNK        -0.0205 
     16 S16         1.4141  -21.3313  -48.8926 S.3       23 UNK        -0.2404 
     17 C17         0.8660  -21.1034  -47.1646 C.3       23 UNK        -0.0398 
     18 CA          0.4316  -22.4217  -46.4713 C.3       11 UNK         0.1400 
     19 N           0.6741  -22.3946  -45.0272 N.am      11 UNK        -0.5000 
     20 C           0.5441  -23.4472  -44.2072 C.2       10 UNK         0.5000 
     21 O           0.2131  -24.5710  -44.5816 O.2       10 UNK        -0.5000 
     22 CA          0.7626  -23.1895  -42.7084 C.3       10 UNK         0.1400 
     23 CB          2.2533  -23.0109  -42.3827 C.3       10 UNK        -0.1800 
     24 N           0.0077  -22.0282  -42.2427 N.am      10 UNK        -0.5000 
     25 C          -1.3302  -21.9717  -42.1783 C.2       9 UNK         0.5000 
     26 O          -2.0719  -22.9059  -42.4804 O.2       9 UNK        -0.5000 
     27 CA         -1.9433  -20.6350  -41.7252 C.3       9 UNK         0.1400 
     28 CB         -2.0604  -20.5847  -40.1946 C.3       9 UNK        -0.1800 
     29 N          -1.1878  -19.4714  -42.1913 N.am      9 UNK        -0.5000 
     30 C          -1.0637  -19.1190  -43.4779 C.2       8 UNK         0.5000 
     31 O          -1.5401  -19.7577  -44.4167 O.2       8 UNK        -0.5000 
     32 CA         -0.2114  -17.8702  -43.7561 C.3       8 UNK         0.1400 
     33 CB         -0.8831  -16.6031  -43.2023 C.3       8 UNK        -0.1800 
     34 N           1.1534  -17.9591  -43.2353 N.am      8 UNK        -0.5000 
     35 C           2.0377  -18.9231  -43.5315 C.2       7 UNK         0.5000 
     36 O           1.7470  -19.9452  -44.1518 O.2       7 UNK        -0.5000 
     37 CA          3.4947  -18.7035  -43.0707 C.3       7 UNK         0.1400 
     38 CB          4.5037  -19.4867  -43.9362 C.3       7 UNK        -0.1800 
     39 N           3.8927  -17.2927  -42.9932 N.am      7 UNK        -0.5000 
     40 C           3.8492  -16.3674  -43.9638 C.2       6 UNK         0.5000 
     41 O           3.3859  -16.5675  -45.0889 O.2       6 UNK        -0.5000 
     42 CA          4.3977  -14.9766  -43.5860 C.3       6 UNK         0.1400 
     43 CB          4.2185  -13.9450  -44.7142 C.3       6 UNK        -0.1800 
     44 N           3.7842  -14.4642  -42.3562 N.am      6 UNK        -0.5000 
     45 C           4.1815  -14.7678  -41.1108 C.2       5 UNK         0.5000 
     46 O           5.0801  -15.5764  -40.8750 O.2       5 UNK        -0.5000 
     47 CA          3.4732  -14.0753  -39.9288 C.3       5 UNK         0.1400 
     48 CB          4.3866  -13.0012  -39.3179 C.3       5 UNK        -0.1800 
     49 N           2.2026  -13.4517  -40.2944 N.am      5 UNK        -0.5000 
     50 C           1.0428  -14.1026  -40.4558 C.2       4 UNK         0.5000 
     51 O           0.9042  -15.3133  -40.2800 O.2       4 UNK        -0.5000 
     52 CA         -0.1515  -13.2526  -40.9393 C.3       4 UNK         0.1400 
     53 CB         -0.9280  -12.6821  -39.7433 C.3       4 UNK        -0.1800 
     54 N           0.2428  -12.1540  -41.8324 N.am      4 UNK        -0.5000 
     55 C           0.8409  -12.3387  -43.0152 C.2       3 UNK         0.5000 
     56 O           1.1024  -13.4579  -43.4697 O.2       3 UNK        -0.5000 
     57 CA          1.2650  -11.0881  -43.8015 C.3       3 UNK         0.1400 
     58 CB          2.4850  -10.4074  -43.1567 C.3       3 UNK        -0.1800 
     59 N           1.6058  -11.5622  -45.1308 N.am      3 UNK        -0.5000 
     60 C           1.6468  -10.8936  -46.2840 C.2       2 UNK         0.5000 
     61 O           1.5196   -9.6731  -46.3842 O.2       2 UNK        -0.5000 
     62 CA          1.8288  -11.7688  -47.5438 C.3       2 UNK         0.1400 
     63 CB          3.3077  -11.8257  -47.9553 C.3       2 UNK        -0.1800 
     64 N           1.3306  -13.1389  -47.3506 N.am      2 UNK        -0.5000 
     65 C           0.0353  -13.4590  -47.2020 C.2       1 UNK         0.5000 
     66 O          -0.8712  -12.6324  -47.3190 O.2       1 UNK        -0.5000 
     67 C          -1.0353  -22.7746  -46.7840 C.2       11 UNK         0.5000 
     68 O          -1.2853  -23.6464  -47.6190 O.2       11 UNK        -0.5000 
     69 N          -1.9777  -22.1260  -46.0836 N.am      12 UNK        -0.5000 
     70 CA         -3.4169  -22.3559  -46.2212 C.3       12 UNK         0.1400 
     71 CB         -4.1846  -21.3451  -45.3578 C.3       12 UNK        -0.1800 
     72 C          -3.8494  -23.7968  -45.8869 C.2       12 UNK         0.5000 
     73 O          -4.7817  -24.3016  -46.5110 O.2       12 UNK        -0.5000 
     74 N          -3.1627  -24.4343  -44.9302 N.am      13 UNK        -0.5000 
     75 CA         -3.3755  -25.8310  -44.5638 C.3       13 UNK         0.1400 
     76 CB         -2.8801  -26.0643  -43.1276 C.3       13 UNK        -0.1800 
     77 C          -2.6898  -26.8026  -45.5409 C.2       13 UNK         0.5000 
     78 O          -3.3301  -27.7488  -46.0011 O.2       13 UNK        -0.5000 
     79 N          -1.3949  -26.5814  -45.8066 N.am      14 UNK        -0.5000 
     80 CA         -0.5391  -27.5210  -46.5310 C.3       14 UNK         0.1400 
     81 CB          0.9327  -27.2406  -46.1887 C.3       14 UNK        -0.1800 
     82 C          -0.7410  -27.5027  -48.0541 C.2       14 UNK         0.5000 
     83 O          -0.7667  -28.5716  -48.6665 O.2       14 UNK        -0.5000 
     84 N          -0.8434  -26.3038  -48.6395 N.am      15 UNK        -0.5000 
     85 CA         -0.9016  -26.0993  -50.0872 C.3       15 UNK         0.1400 
     86 CB          0.1826  -25.0907  -50.4999 C.3       15 UNK        -0.1800 
     87 C          -2.2882  -25.6214  -50.5365 C.2       15 UNK         0.5000 
     88 O          -2.7933  -26.1156  -51.5448 O.2       15 UNK        -0.5000 
     89 N          -2.8721  -24.6721  -49.7876 N.am      16 UNK        -0.5000 
     90 CA         -4.1906  -24.0611  -50.0119 C.3       16 UNK         0.1400 
     91 CB         -5.3117  -25.1001  -49.8000 C.3       16 UNK        -0.1800 
     92 C          -4.3205  -23.3295  -51.3681 C.2       16 UNK         0.5000 
     93 O          -5.4234  -23.2281  -51.9090 O.2       16 UNK        -0.5000 
     94 N          -3.1948  -22.8203  -51.8940 N.am      17 UNK        -0.5000 
     95 CA         -3.0674  -22.2349  -53.2350 C.3       17 UNK         0.1400 
     96 CB         -1.5952  -21.8984  -53.5063 C.3       17 UNK        -0.1800 
     97 C          -3.9605  -21.0073  -53.4982 C.2       17 UNK         0.5000 
     98 O          -4.2901  -20.7424  -54.6538 O.2       17 UNK        -0.5000 
     99 N          -4.3923  -20.3215  -52.4305 N.am      18 UNK        -0.5000 
    100 CA        -5.3642  -19.2271  -52.4657 C.3       18 UNK         0.1400 
    101 CB        -5.5604  -18.6832  -51.0438 C.3       18 UNK        -0.1800 
    102 C         -6.7242  -19.6206  -53.0777 C.2       18 UNK         0.5000 
    103 O         -7.3736  -18.7712  -53.6874 O.2       18 UNK        -0.5000 
    104 N         -7.1143  -20.8987  -52.9486 N.am      19 UNK        -0.5000 
    105 CA        -8.3317  -21.4548  -53.5449 C.3       19 UNK         0.1400 
    106 CB        -8.6367  -22.8138  -52.8970 C.3       19 UNK        -0.1800 
    107 C         -8.2444  -21.5957  -55.0782 C.2       19 UNK         0.5000 
    108 O         -9.2768  -21.5518  -55.7478 O.2       19 UNK        -0.5000 
    109 N         -7.0221  -21.7472  -55.6064 N.am      20 UNK        -0.5000 
    110 CA        -6.7284  -21.8099  -57.0403 C.3       20 UNK         0.1400 
    111 CB        -5.5492  -22.7735  -57.2547 C.3       20 UNK        -0.1800 
    112 C         -6.4127  -20.4229  -57.6394 C.2       20 UNK         0.5000 
    113 O         -6.3198  -20.3118  -58.8625 O.2       20 UNK        -0.5000 
    114 N         -6.2625  -19.4129  -56.7686 N.am      21 UNK        -0.5000 
    115 CA        -5.8038  -18.0398  -56.9923 C.3       21 UNK         0.1400 
    116 CB        -6.6032  -17.3197  -58.0956 C.3       21 UNK        -0.1800 
    117 C         -4.2851  -17.9745  -57.2440 C.2       21 UNK         0.5000 
    118 O         -3.7541  -18.7002  -58.0872 O.2       21 UNK        -0.5000 
    119 N         -3.6129  -17.0877  -56.5025 N.am      22 UNK        -0.5000 
    120 CA        -2.1496  -16.9064  -56.5284 C.3       22 UNK         0.1400 
    121 C         -1.6282  -16.0174  -57.6963 C.2       22 UNK         0.5000 
    122 N         -2.4842  -15.3945  -58.4973 N.am      22 UNK        -0.7600 
    123 O         -0.4209  -15.8969  -57.8860 O.2       22 UNK        -0.5000 
    124 C124       -1.6145  -16.4015  -55.1626 C.3       23 UNK        -0.0398 
    125 S125       -2.0750  -17.5124  -53.7918 S.3       23 UNK        -0.2404 
    126 C126       -0.8446  -17.0634  -52.5325 C.3       23 UNK        -0.0205 
    127 H127        1.8430  -18.1482  -49.0860 H         1 UNK         0.0600 
    128 H128        2.3818  -17.8165  -47.4394 H         1 UNK         0.0600 
    129 H129        3.1494  -16.9913  -48.8012 H         1 UNK         0.0600 
    130 H130        1.1810  -16.3353  -46.3181 H         1 UNK         0.3000 
    131 H131       -0.3582  -14.8957  -45.7202 H         1 UNK         0.0600 
    132 H132       -1.7291  -15.3540  -48.4070 H         1 UNK         0.0800 
    133 H133       -2.4686  -14.6112  -47.0181 H         1 UNK         0.0800 
    134 H134       -3.7870  -18.4791  -47.7216 H         1 UNK         0.0800 
    135 H135       -3.8494  -16.9119  -48.4859 H         1 UNK         0.0800 
    136 H136       -2.4337  -16.4435  -50.4153 H         1 UNK         0.1150 
    137 H137        0.2196  -19.4750  -51.8633 H         1 UNK         0.1150 
    138 H138       -1.8595  -20.0323  -48.1512 H         1 UNK         0.1150 
    139 H139       -0.8677  -21.9710  -49.4574 H         1 UNK         0.0800 
    140 H140        0.1008  -21.6690  -50.8587 H         1 UNK         0.0800 
    141 H141        1.7395  -20.7013  -46.6506 H         1 UNK         0.0800 
    142 H142        0.1138  -20.3195  -47.0817 H         1 UNK         0.0800 
    143 H143        1.0487  -23.2326  -46.8647 H         1 UNK         0.0600 
    144 H144        0.9587  -21.4980  -44.6353 H         1 UNK         0.3000 
    145 H145        0.4025  -24.0658  -42.1650 H         1 UNK         0.0600 
    146 H146        2.4112  -22.8988  -41.3100 H         1 UNK         0.0600 
    147 H147        2.8282  -23.8795  -42.7063 H         1 UNK         0.0600 
    148 H148        2.6767  -22.1367  -42.8765 H         1 UNK         0.0600 
    149 H149        0.5353  -21.1974  -42.0218 H         1 UNK         0.3000 
    150 H150       -2.9491  -20.5734  -42.1459 H         1 UNK         0.0600 
    151 H151       -2.6375  -21.4312  -39.8198 H         1 UNK         0.0600 
    152 H152       -2.5677  -19.6770  -39.8674 H         1 UNK         0.0600 
    153 H153       -1.0820  -20.6156  -39.7136 H         1 UNK         0.0600 
    154 H154       -0.7418  -18.9019  -41.4872 H         1 UNK         0.3000 
    155 H155       -0.1286  -17.7686  -44.8392 H         1 UNK         0.0600 
    156 H156       -0.3279  -15.7095  -43.4833 H         1 UNK         0.0600 
    157 H157       -0.9496  -16.6201  -42.1140 H         1 UNK         0.0600 
    158 H158       -1.8956  -16.4928  -43.5922 H         1 UNK         0.0600 
    159 H159        1.4833  -17.1640  -42.7078 H         1 UNK         0.3000 
    160 H160        3.5525  -19.0964  -42.0549 H         1 UNK         0.0600 
    161 H161        4.4562  -19.1826  -44.9825 H         1 UNK         0.0600 
    162 H162        4.3101  -20.5591  -43.8986 H         1 UNK         0.0600 
    163 H163        5.5251  -19.3325  -43.5882 H         1 UNK         0.0600 
    164 H164        4.2875  -16.9952  -42.1068 H         1 UNK         0.3000 
    165 H165        5.4713  -15.0909  -43.4220 H         1 UNK         0.0600 
    166 H166        3.1779  -13.8656  -45.0229 H         1 UNK         0.0600 
    167 H167        4.5599  -12.9554  -44.4104 H         1 UNK         0.0600 
    168 H168        4.7950  -14.2313  -45.5945 H         1 UNK         0.0600 
    169 H169        2.9661  -13.8820  -42.4796 H         1 UNK         0.3000 
    170 H170        3.2855  -14.8360  -39.1680 H         1 UNK         0.0600 
    171 H171        5.3371  -13.4304  -38.9981 H         1 UNK         0.0600 
    172 H172        4.6088  -12.2075  -40.0324 H         1 UNK         0.0600 
    173 H173        3.9273  -12.5452  -38.4406 H         1 UNK         0.0600 
    174 H174        2.2187  -12.4562  -40.4596 H         1 UNK         0.3000 
    175 H175       -0.8196  -13.9133  -41.4959 H         1 UNK         0.0600 
    176 H176       -0.3193  -11.9897  -39.1605 H         1 UNK         0.0600 
    177 H177       -1.8221  -12.1511  -40.0704 H         1 UNK         0.0600 
    178 H178       -1.2523  -13.4790  -39.0726 H         1 UNK         0.0600 
    179 H179        0.0552  -11.2151  -41.5102 H         1 UNK         0.3000 
    180 H180        0.4232  -10.3957  -43.8609 H         1 UNK         0.0600 
    181 H181        3.3264  -11.0951  -43.0617 H         1 UNK         0.0600 
    182 H182        2.2475  -10.0365  -42.1592 H         1 UNK         0.0600 
    183 H183        2.8183   -9.5537  -43.7468 H         1 UNK         0.0600 
    184 H184        1.6725  -12.5724  -45.1632 H         1 UNK         0.3000 
    185 H185        1.2629  -11.3072  -48.3556 H         1 UNK         0.0600 
    186 H186        3.4403  -12.4003  -48.8721 H         1 UNK         0.0600 
    187 H187        3.6990  -10.8245  -48.1404 H         1 UNK         0.0600 
    188 H188        3.9257  -12.2805  -47.1807 H         1 UNK         0.0600 
    189 H189        2.0178  -13.8745  -47.2730 H         1 UNK         0.3000 
    190 H190       -1.6997  -21.4064  -45.4204 H         1 UNK         0.3000 
    191 H191       -3.6764  -22.1682  -47.2641 H         1 UNK         0.0600 
    192 H192       -5.2620  -21.4820  -45.4579 H         1 UNK         0.0600 
    193 H193       -3.9584  -20.3207  -45.6550 H         1 UNK         0.0600 
    194 H194       -3.9355  -21.4512  -44.3016 H         1 UNK         0.0600 
    195 H195       -2.4395  -23.9347  -44.4274 H         1 UNK         0.3000 
    196 H196       -4.4473  -26.0408  -44.5809 H         1 UNK         0.0600 
    197 H197       -3.0202  -27.1038  -42.8287 H         1 UNK         0.0600 
    198 H198       -3.4294  -25.4450  -42.4183 H         1 UNK         0.0600 
    199 H199       -1.8201  -25.8302  -43.0210 H         1 UNK         0.0600 
    200 H200       -0.9275  -25.7830  -45.3820 H         1 UNK         0.3000 
    201 H201       -0.7700  -28.5295  -46.1808 H         1 UNK         0.0600 
    202 H202        1.1091  -27.3147  -45.1154 H         1 UNK         0.0600 
    203 H203        1.2383  -26.2440  -46.5099 H         1 UNK         0.0600 
    204 H204        1.5919  -27.9592  -46.6773 H         1 UNK         0.0600 
    205 H205       -0.8716  -25.4693  -48.0613 H         1 UNK         0.3000 
    206 H206       -0.6958  -27.0315  -50.6174 H         1 UNK         0.0600 
    207 H207        1.1787  -25.4872  -50.3028 H         1 UNK         0.0600 
    208 H208        0.1276  -24.8650  -51.5657 H         1 UNK         0.0600 
    209 H209        0.0898  -24.1516  -49.9568 H         1 UNK         0.0600 
    210 H210       -2.3602  -24.3268  -48.9792 H         1 UNK         0.3000 
    211 H211       -4.3052  -23.2946  -49.2460 H         1 UNK         0.0600 
    212 H212       -5.3311  -25.8439  -50.5970 H         1 UNK         0.0600 
    213 H213       -6.2907  -24.6201  -49.7773 H         1 UNK         0.0600 
    214 H214       -5.1888  -25.6279  -48.8544 H         1 UNK         0.0600 
    215 H215       -2.3380  -22.9503  -51.3792 H         1 UNK         0.3000 
    216 H216       -3.3719  -23.0044  -53.9474 H         1 UNK         0.0600 
    217 H217       -1.4598  -21.5395  -54.5275 H         1 UNK         0.0600 
    218 H218       -0.9555  -22.7723  -53.3810 H         1 UNK         0.0600 
    219 H219       -1.2380  -21.1167  -52.8393 H         1 UNK         0.0600 
    220 H220       -4.0647  -20.6075  -51.5206 H         1 UNK         0.3000 
    221 H221       -4.9447  -18.4318  -53.0847 H         1 UNK         0.0600 
    222 H222       -5.9230  -19.4539  -50.3625 H         1 UNK         0.0600 
    223 H223       -4.6273  -18.2919  -50.6443 H         1 UNK         0.0600 
    224 H224       -6.2826  -17.8658  -51.0322 H         1 UNK         0.0600 
    225 H225       -6.5106  -21.5545  -52.4627 H         1 UNK         0.3000 
    226 H226       -9.1600  -20.7791  -53.3214 H         1 UNK         0.0600 
    227 H227       -8.7295  -22.7245  -51.8145 H         1 UNK         0.0600 
    228 H228       -9.5759  -23.2226  -53.2719 H         1 UNK         0.0600 
    229 H229       -7.8547  -23.5444  -53.1074 H         1 UNK         0.0600 
    230 H230       -6.2188  -21.7332  -54.9905 H         1 UNK         0.3000 
    231 H231       -7.5918  -22.2099  -57.5760 H         1 UNK         0.0600 
    232 H232       -5.3309  -22.8936  -58.3165 H         1 UNK         0.0600 
    233 H233       -5.7705  -23.7634  -56.8553 H         1 UNK         0.0600 
    234 H234       -4.6399  -22.4121  -56.7733 H         1 UNK         0.0600 
    235 H235       -6.3531  -19.6609  -55.7935 H         1 UNK         0.3000 
    236 H236       -6.0112  -17.5213  -56.0547 H         1 UNK         0.0600 
    237 H237       -7.6766  -17.4060  -57.9268 H         1 UNK         0.0600 
    238 H238       -6.3610  -16.2567  -58.1148 H         1 UNK         0.0600 
    239 H239       -6.3840  -17.7164  -59.0871 H         1 UNK         0.0600 
    240 H240       -4.1124  -16.5184  -55.8353 H         1 UNK         0.3000 
    241 H241       -1.7012  -17.8878  -56.6965 H         1 UNK         0.0600 
    242 H242       -3.4773  -15.4903  -58.3597 H         1 UNK         0.3800 
    243 H243       -2.1345  -14.8261  -59.2531 H         1 UNK         0.3800 
    244 H244       -0.5263  -16.3213  -55.1878 H         1 UNK         0.0800 
    245 H245       -1.9941  -15.4019  -54.9449 H         1 UNK         0.0800 
    246 H246       -0.9105  -15.9964  -52.3136 H         1 UNK         0.0800 
    247 H247        0.1609  -17.2442  -52.9153 H         1 UNK         0.0800 
@<TRIPOS>BOND
     1    1    2 1    
     2    1  127 1    
     3    1  128 1    
     4    1  129 1    
     5    2    3 2    
     6    2    4 am   BACKBONE|DICT|INTERRES
     7    4    5 1    
     8    4  130 1    
     9    5    6 1    
    10    5   65 1    
    11    5  131 1    
    12    6    7 1    
    13    6  132 1    
    14    6  133 1    
    15    7    8 1    
    16    8    9 1    
    17    8  134 1    
    18    8  135 1    
    19    9   10 ar   
    20    9   14 ar   
    21   10   11 ar   
    22   10  136 1    
    23   11   12 ar   
    24   11  126 1    
    25   12   13 ar   
    26   12  137 1    
    27   13   14 ar   
    28   13   15 1    
    29   14  138 1    
    30   15   16 1    
    31   15  139 1    
    32   15  140 1    
    33   16   17 1    
    34   17   18 1    
    35   17  141 1    
    36   17  142 1    
    37   18   19 1    
    38   18   67 1    
    39   18  143 1    
    40   19   20 am   BACKBONE|DICT|INTERRES
    41   19  144 1    
    42   20   21 2    
    43   20   22 1    
    44   22   23 1    
    45   22   24 1    
    46   22  145 1    
    47   23  146 1    
    48   23  147 1    
    49   23  148 1    
    50   24   25 am   BACKBONE|DICT|INTERRES
    51   24  149 1    
    52   25   26 2    
    53   25   27 1    
    54   27   28 1    
    55   27   29 1    
    56   27  150 1    
    57   28  151 1    
    58   28  152 1    
    59   28  153 1    
    60   29   30 am   BACKBONE|DICT|INTERRES
    61   29  154 1    
    62   30   31 2    
    63   30   32 1    
    64   32   33 1    
    65   32   34 1    
    66   32  155 1    
    67   33  156 1    
    68   33  157 1    
    69   33  158 1    
    70   34   35 am   BACKBONE|DICT|INTERRES
    71   34  159 1    
    72   35   36 2    
    73   35   37 1    
    74   37   38 1    
    75   37   39 1    
    76   37  160 1    
    77   38  161 1    
    78   38  162 1    
    79   38  163 1    
    80   39   40 am   BACKBONE|DICT|INTERRES
    81   39  164 1    
    82   40   41 2    
    83   40   42 1    
    84   42   43 1    
    85   42   44 1    
    86   42  165 1    
    87   43  166 1    
    88   43  167 1    
    89   43  168 1    
    90   44   45 am   BACKBONE|DICT|INTERRES
    91   44  169 1    
    92   45   46 2    
    93   45   47 1    
    94   47   48 1    
    95   47   49 1    
    96   47  170 1    
    97   48  171 1    
    98   48  172 1    
    99   48  173 1    
   100   49   50 am   BACKBONE|DICT|INTERRES
   101   49  174 1    
   102   50   51 2    
   103   50   52 1    
   104   52   53 1    
   105   52   54 1    
   106   52  175 1    
   107   53  176 1    
   108   53  177 1    
   109   53  178 1    
   110   54   55 am   BACKBONE|DICT|INTERRES
   111   54  179 1    
   112   55   56 2    
   113   55   57 1    
   114   57   58 1    
   115   57   59 1    
   116   57  180 1    
   117   58  181 1    
   118   58  182 1    
   119   58  183 1    
   120   59   60 am   BACKBONE|DICT|INTERRES
   121   59  184 1    
   122   60   61 2    
   123   60   62 1    
   124   62   63 1    
   125   62   64 1    
   126   62  185 1    
   127   63  186 1    
   128   63  187 1    
   129   63  188 1    
   130   64   65 am   BACKBONE|DICT|INTERRES
   131   64  189 1    
   132   65   66 2    
   133   67   68 2    
   134   67   69 am   BACKBONE|DICT|INTERRES
   135   69   70 1    
   136   69  190 1    
   137   70   71 1    
   138   70   72 1    
   139   70  191 1    
   140   71  192 1    
   141   71  193 1    
   142   71  194 1    
   143   72   73 2    
   144   72   74 am   BACKBONE|DICT|INTERRES
   145   74   75 1    
   146   74  195 1    
   147   75   76 1    
   148   75   77 1    
   149   75  196 1    
   150   76  197 1    
   151   76  198 1    
   152   76  199 1    
   153   77   78 2    
   154   77   79 am   BACKBONE|DICT|INTERRES
   155   79   80 1    
   156   79  200 1    
   157   80   81 1    
   158   80   82 1    
   159   80  201 1    
   160   81  202 1    
   161   81  203 1    
   162   81  204 1    
   163   82   83 2    
   164   82   84 am   BACKBONE|DICT|INTERRES
   165   84   85 1    
   166   84  205 1    
   167   85   86 1    
   168   85   87 1    
   169   85  206 1    
   170   86  207 1    
   171   86  208 1    
   172   86  209 1    
   173   87   88 2    
   174   87   89 am   BACKBONE|DICT|INTERRES
   175   89   90 1    
   176   89  210 1    
   177   90   91 1    
   178   90   92 1    
   179   90  211 1    
   180   91  212 1    
   181   91  213 1    
   182   91  214 1    
   183   92   93 2    
   184   92   94 am   BACKBONE|DICT|INTERRES
   185   94   95 1    
   186   94  215 1    
   187   95   96 1    
   188   95   97 1    
   189   95  216 1    
   190   96  217 1    
   191   96  218 1    
   192   96  219 1    
   193   97   98 2    
   194   97   99 am   BACKBONE|DICT|INTERRES
   195   99  100 1    
   196   99  220 1    
   197  100  101 1    
   198  100  102 1    
   199  100  221 1    
   200  101  222 1    
   201  101  223 1    
   202  101  224 1    
   203  102  103 2    
   204  102  104 am   BACKBONE|DICT|INTERRES
   205  104  105 1    
   206  104  225 1    
   207  105  106 1    
   208  105  107 1    
   209  105  226 1    
   210  106  227 1    
   211  106  228 1    
   212  106  229 1    
   213  107  108 2    
   214  107  109 am   BACKBONE|DICT|INTERRES
   215  109  110 1    
   216  109  230 1    
   217  110  111 1    
   218  110  112 1    
   219  110  231 1    
   220  111  232 1    
   221  111  233 1    
   222  111  234 1    
   223  112  113 2    
   224  112  114 am   BACKBONE|DICT|INTERRES
   225  114  115 1    
   226  114  235 1    
   227  115  116 1    
   228  115  117 1    
   229  115  236 1    
   230  116  237 1    
   231  116  238 1    
   232  116  239 1    
   233  117  118 2    
   234  117  119 am   BACKBONE|DICT|INTERRES
   235  119  120 1    
   236  119  240 1    
   237  120  121 1    
   238  120  124 1    
   239  120  241 1    
   240  121  122 am   BACKBONE|DICT|INTERRES
   241  121  123 2    
   242  122  242 1    
   243  122  243 1    
   244  124  125 1    
   245  124  244 1    
   246  124  245 1    
   247  125  126 1    
   248  126  246 1    
   249  126  247 1    
@<TRIPOS>SUBSTRUCTURE
     1 UNK         1 GROUP             0       ****    0 ROOT    
