@<TRIPOS>MOLECULE
3R540
247   249    1
SMALL
USER_CHARGES


@<TRIPOS>ATOM
      1 CA         -3.4311  -17.4887  -40.8825 C.3       0 UNK        -0.1800 
      2 C          -3.8224  -16.1736  -41.5419 C.2       0 UNK         0.5000 
      3 O          -4.5110  -15.3623  -40.9219 O.2       0 UNK        -0.5000 
      4 N          -3.3895  -15.9602  -42.7908 N.am      1 UNK        -0.5000 
      5 CA         -3.5680  -14.7085  -43.5381 C.3       1 UNK         0.1400 
      6 C6         -3.1987  -14.8870  -45.0332 C.3       23 UNK        -0.0398 
      7 S7         -4.5394  -15.7066  -45.9623 S.3       23 UNK        -0.2404 
      8 C8         -4.6533  -14.6640  -47.4645 C.3       23 UNK        -0.0205 
      9 C9         -3.8768  -15.2200  -48.6572 C.ar      23 UNK        -0.0193 
     10 C10        -4.4488  -15.1771  -49.9346 C.ar      23 UNK        -0.1150 
     11 C11        -3.7824  -15.7279  -51.0343 C.ar      23 UNK        -0.0193 
     12 C12        -2.5350  -16.3271  -50.8508 C.ar      23 UNK        -0.1150 
     13 C13        -1.9645  -16.4016  -49.5800 C.ar      23 UNK        -0.0193 
     14 C14        -2.6151  -15.8044  -48.4973 C.ar      23 UNK        -0.1150 
     15 C15        -0.7092  -17.2301  -49.3555 C.3       23 UNK        -0.0205 
     16 S16        -1.1052  -19.0078  -49.3191 S.3       23 UNK        -0.2404 
     17 C17        -2.4009  -19.0340  -48.0323 C.3       23 UNK        -0.0398 
     18 CA         -2.6876  -20.4502  -47.5008 C.3       11 UNK         0.1400 
     19 N          -1.5422  -21.0019  -46.7732 N.am      11 UNK        -0.5000 
     20 C          -1.4097  -22.2766  -46.3871 C.2       10 UNK         0.5000 
     21 O          -2.2365  -23.1534  -46.6279 O.2       10 UNK        -0.5000 
     22 CA         -0.1800  -22.6077  -45.5272 C.3       10 UNK         0.1400 
     23 CB          1.0670  -22.8187  -46.3983 C.3       10 UNK        -0.1800 
     24 N           0.0805  -21.5608  -44.5388 N.am      10 UNK        -0.5000 
     25 C          -0.6626  -21.3536  -43.4426 C.2       9 UNK         0.5000 
     26 O          -1.6308  -22.0471  -43.1345 O.2       9 UNK        -0.5000 
     27 CA         -0.2712  -20.1635  -42.5493 C.3       9 UNK         0.1400 
     28 CB          0.7736  -20.5913  -41.5083 C.3       9 UNK        -0.1800 
     29 N           0.2543  -19.0378  -43.3199 N.am      9 UNK        -0.5000 
     30 C          -0.4988  -18.1732  -44.0125 C.2       8 UNK         0.5000 
     31 O          -1.7299  -18.1947  -44.0390 O.2       8 UNK        -0.5000 
     32 CA          0.2562  -17.1007  -44.8174 C.3       8 UNK         0.1400 
     33 CB          0.5268  -15.8859  -43.9238 C.3       8 UNK        -0.1800 
     34 N           1.5210  -17.5562  -45.3993 N.am      8 UNK        -0.5000 
     35 C           1.6503  -18.5751  -46.2617 C.2       7 UNK         0.5000 
     36 O           0.7230  -19.3218  -46.5652 O.2       7 UNK        -0.5000 
     37 CA          3.0337  -18.8198  -46.8881 C.3       7 UNK         0.1400 
     38 CB          3.0364  -18.3856  -48.3619 C.3       7 UNK        -0.1800 
     39 N           4.1104  -18.1335  -46.1719 N.am      7 UNK        -0.5000 
     40 C           4.6708  -18.5994  -45.0462 C.2       6 UNK         0.5000 
     41 O           4.3485  -19.6649  -44.5193 O.2       6 UNK        -0.5000 
     42 CA          5.7595  -17.7327  -44.3823 C.3       6 UNK         0.1400 
     43 CB          7.1561  -18.1919  -44.8279 C.3       6 UNK        -0.1800 
     44 N           5.6237  -16.2984  -44.6452 N.am      6 UNK        -0.5000 
     45 C           4.6058  -15.5333  -44.2286 C.2       5 UNK         0.5000 
     46 O           3.6562  -15.9700  -43.5802 O.2       5 UNK        -0.5000 
     47 CA          4.6333  -14.0365  -44.6073 C.3       5 UNK         0.1400 
     48 CB          5.9917  -13.5598  -45.1694 C.3       5 UNK        -0.1800 
     49 N           3.5564  -13.6608  -45.5316 N.am      5 UNK        -0.5000 
     50 C           3.2640  -14.2290  -46.7117 C.2       4 UNK         0.5000 
     51 O           3.8250  -15.2399  -47.1382 O.2       4 UNK        -0.5000 
     52 CA          2.2130  -13.5238  -47.5939 C.3       4 UNK         0.1400 
     53 CB          1.2523  -14.5189  -48.2741 C.3       4 UNK        -0.1800 
     54 N           1.5156  -12.4088  -46.9308 N.am      4 UNK        -0.5000 
     55 C           0.4117  -12.4428  -46.1697 C.2       3 UNK         0.5000 
     56 O          -0.2413  -13.4587  -45.9198 O.2       3 UNK        -0.5000 
     57 CA         -0.0503  -11.0897  -45.6045 C.3       3 UNK         0.1400 
     58 CB         -0.5324  -10.1458  -46.7208 C.3       3 UNK        -0.1800 
     59 N          -1.1451  -11.3170  -44.6693 N.am      3 UNK        -0.5000 
     60 C          -1.3876  -10.6341  -43.5462 C.2       2 UNK         0.5000 
     61 O          -0.7013   -9.6835  -43.1682 O.2       2 UNK        -0.5000 
     62 CA         -2.6102  -11.0659  -42.7066 C.3       2 UNK         0.1400 
     63 CB         -3.6782   -9.9598  -42.7034 C.3       2 UNK        -0.1800 
     64 N          -3.2336  -12.3109  -43.1697 N.am      2 UNK        -0.5000 
     65 C          -2.7729  -13.5407  -42.9068 C.2       1 UNK         0.5000 
     66 O          -1.7654  -13.7561  -42.2294 O.2       1 UNK        -0.5000 
     67 C          -3.9954  -20.4649  -46.6803 C.2       11 UNK         0.5000 
     68 O          -5.0759  -20.4813  -47.2696 O.2       11 UNK        -0.5000 
     69 N          -3.8839  -20.4815  -45.3464 N.am      12 UNK        -0.5000 
     70 CA         -5.0066  -20.6355  -44.4216 C.3       12 UNK         0.1400 
     71 CB         -4.6463  -19.9418  -43.1000 C.3       12 UNK        -0.1800 
     72 C          -5.4017  -22.1109  -44.1902 C.2       12 UNK         0.5000 
     73 O          -6.3837  -22.3623  -43.4906 O.2       12 UNK        -0.5000 
     74 N          -4.6438  -23.0547  -44.7613 N.am      13 UNK        -0.5000 
     75 CA         -4.8506  -24.4967  -44.6737 C.3       13 UNK         0.1400 
     76 CB         -3.5980  -25.1166  -44.0258 C.3       13 UNK        -0.1800 
     77 C          -5.1061  -25.0807  -46.0763 C.2       13 UNK         0.5000 
     78 O          -5.1805  -24.3439  -47.0621 O.2       13 UNK        -0.5000 
     79 N          -5.2145  -26.4143  -46.1528 N.am      14 UNK        -0.5000 
     80 CA         -5.3915  -27.1763  -47.3960 C.3       14 UNK         0.1400 
     81 CB         -5.7273  -28.6325  -47.0393 C.3       14 UNK        -0.1800 
     82 C          -4.1764  -27.1206  -48.3486 C.2       14 UNK         0.5000 
     83 O          -4.3137  -27.4468  -49.5279 O.2       14 UNK        -0.5000 
     84 N          -3.0168  -26.6922  -47.8306 N.am      15 UNK        -0.5000 
     85 CA         -1.7668  -26.4940  -48.5658 C.3       15 UNK         0.1400 
     86 CB         -0.6220  -26.3425  -47.5519 C.3       15 UNK        -0.1800 
     87 C          -1.7865  -25.2996  -49.5425 C.2       15 UNK         0.5000 
     88 O          -0.8422  -25.1573  -50.3201 O.2       15 UNK        -0.5000 
     89 N          -2.8421  -24.4715  -49.5033 N.am      16 UNK        -0.5000 
     90 CA         -3.0303  -23.2534  -50.2963 C.3       16 UNK         0.1400 
     91 CB         -4.4465  -22.7105  -50.0581 C.3       16 UNK        -0.1800 
     92 C          -2.7817  -23.4084  -51.8052 C.2       16 UNK         0.5000 
     93 O          -2.1815  -22.5197  -52.4102 O.2       16 UNK        -0.5000 
     94 N          -3.2091  -24.5463  -52.3693 N.am      17 UNK        -0.5000 
     95 CA         -3.0351  -24.9094  -53.7770 C.3       17 UNK         0.1400 
     96 CB         -3.8316  -26.1910  -54.0625 C.3       17 UNK        -0.1800 
     97 C          -1.5633  -25.0844  -54.2000 C.2       17 UNK         0.5000 
     98 O          -1.2408  -24.8482  -55.3643 O.2       17 UNK        -0.5000 
     99 N          -0.7017  -25.4846  -53.2566 N.am      18 UNK        -0.5000 
    100 CA         0.7428  -25.5859  -53.4523 C.3       18 UNK         0.1400 
    101 CB         1.2838  -26.7629  -52.6250 C.3       18 UNK        -0.1800 
    102 C          1.4492  -24.2782  -53.0574 C.2       18 UNK         0.5000 
    103 O          2.4275  -23.9007  -53.7031 O.2       18 UNK        -0.5000 
    104 N          0.9511  -23.6206  -52.0005 N.am      19 UNK        -0.5000 
    105 CA         1.5292  -22.4103  -51.4198 C.3       19 UNK         0.1400 
    106 CB         0.8694  -22.1308  -50.0619 C.3       19 UNK        -0.1800 
    107 C          1.4338  -21.1744  -52.3314 C.2       19 UNK         0.5000 
    108 O          2.3969  -20.4080  -52.3907 O.2       19 UNK        -0.5000 
    109 N          0.2967  -20.9949  -53.0198 N.am      20 UNK        -0.5000 
    110 CA         0.0543  -19.8247  -53.8689 C.3       20 UNK         0.1400 
    111 CB        -0.2921  -18.6045  -52.9966 C.3       20 UNK        -0.1800 
    112 C         -1.0451  -20.0313  -54.9206 C.2       20 UNK         0.5000 
    113 O         -0.9614  -19.4260  -55.9892 O.2       20 UNK        -0.5000 
    114 N         -2.0837  -20.8137  -54.5946 N.am      21 UNK        -0.5000 
    115 CA        -3.3074  -21.0926  -55.3652 C.3       21 UNK         0.1400 
    116 CB        -2.9799  -21.7775  -56.7056 C.3       21 UNK        -0.1800 
    117 C         -4.2608  -19.8929  -55.5727 C.2       21 UNK         0.5000 
    118 O         -5.4540  -20.1145  -55.7825 O.2       21 UNK        -0.5000 
    119 N         -3.7398  -18.6620  -55.4992 N.am      22 UNK        -0.5000 
    120 CA        -4.4511  -17.3772  -55.6398 C.3       22 UNK         0.1400 
    121 C         -4.9458  -17.0644  -57.0860 C.2       22 UNK         0.5000 
    122 N         -4.4629  -17.7517  -58.1140 N.am      22 UNK        -0.7600 
    123 O         -5.7557  -16.1639  -57.2897 O.2       22 UNK        -0.5000 
    124 C124       -5.5609  -17.1489  -54.5713 C.3       23 UNK        -0.0398 
    125 S125       -4.9892  -17.4026  -52.8564 S.3       23 UNK        -0.2404 
    126 C126       -4.4209  -15.7304  -52.4144 C.3       23 UNK        -0.0205 
    127 H127       -2.7667  -18.0761  -41.5148 H         1 UNK         0.0600 
    128 H128       -2.9169  -17.2974  -39.9407 H         1 UNK         0.0600 
    129 H129       -4.3195  -18.0839  -40.6724 H         1 UNK         0.0600 
    130 H130       -2.8435  -16.6797  -43.2533 H         1 UNK         0.3000 
    131 H131       -4.6241  -14.4371  -43.4707 H         1 UNK         0.0600 
    132 H132       -2.2847  -15.4691  -45.1415 H         1 UNK         0.0800 
    133 H133       -2.9881  -13.9269  -45.5052 H         1 UNK         0.0800 
    134 H134       -4.3265  -13.6436  -47.2643 H         1 UNK         0.0800 
    135 H135       -5.7110  -14.5912  -47.7222 H         1 UNK         0.0800 
    136 H136       -5.4253  -14.7341  -50.0711 H         1 UNK         0.1150 
    137 H137       -2.0392  -16.7899  -51.6904 H         1 UNK         0.1150 
    138 H138       -2.1660  -15.8607  -47.5172 H         1 UNK         0.1150 
    139 H139        0.0206  -17.0318  -50.1413 H         1 UNK         0.0800 
    140 H140       -0.2349  -16.9706  -48.4103 H         1 UNK         0.0800 
    141 H141       -2.1098  -18.3772  -47.2103 H         1 UNK         0.0800 
    142 H142       -3.3029  -18.6045  -48.4732 H         1 UNK         0.0800 
    143 H143       -2.8646  -21.0921  -48.3596 H         1 UNK         0.0600 
    144 H144       -0.7750  -20.3560  -46.5936 H         1 UNK         0.3000 
    145 H145       -0.3834  -23.5404  -44.9965 H         1 UNK         0.0600 
    146 H146        1.3140  -21.9291  -46.9781 H         1 UNK         0.0600 
    147 H147        1.9346  -23.0732  -45.7896 H         1 UNK         0.0600 
    148 H148        0.9141  -23.6376  -47.1013 H         1 UNK         0.0600 
    149 H149        0.8183  -20.9069  -44.7560 H         1 UNK         0.3000 
    150 H150       -1.1672  -19.8389  -42.0165 H         1 UNK         0.0600 
    151 H151        1.0075  -19.7735  -40.8264 H         1 UNK         0.0600 
    152 H152        1.7038  -20.9134  -41.9782 H         1 UNK         0.0600 
    153 H153        0.4055  -21.4219  -40.9044 H         1 UNK         0.0600 
    154 H154        1.2580  -18.9308  -43.3515 H         1 UNK         0.3000 
    155 H155       -0.3822  -16.7896  -45.6463 H         1 UNK         0.0600 
    156 H156        1.0679  -16.1609  -43.0179 H         1 UNK         0.0600 
    157 H157       -0.4062  -15.4212  -43.6144 H         1 UNK         0.0600 
    158 H158        1.1118  -15.1282  -44.4431 H         1 UNK         0.0600 
    159 H159        2.3444  -17.0204  -45.1570 H         1 UNK         0.3000 
    160 H160        3.2171  -19.8960  -46.8595 H         1 UNK         0.0600 
    161 H161        2.8318  -17.3211  -48.4700 H         1 UNK         0.0600 
    162 H162        2.2735  -18.9217  -48.9285 H         1 UNK         0.0600 
    163 H163        3.9968  -18.5934  -48.8337 H         1 UNK         0.0600 
    164 H164        4.3795  -17.2203  -46.5226 H         1 UNK         0.3000 
    165 H165        5.6801  -17.8821  -43.3034 H         1 UNK         0.0600 
    166 H166        7.3059  -18.0428  -45.8980 H         1 UNK         0.0600 
    167 H167        7.9386  -17.6473  -44.2991 H         1 UNK         0.0600 
    168 H168        7.3036  -19.2526  -44.6204 H         1 UNK         0.0600 
    169 H169        6.3520  -15.8687  -45.1967 H         1 UNK         0.3000 
    170 H170        4.4515  -13.4900  -43.6808 H         1 UNK         0.0600 
    171 H171        6.8060  -13.7791  -44.4774 H         1 UNK         0.0600 
    172 H172        6.2285  -14.0253  -46.1269 H         1 UNK         0.0600 
    173 H173        5.9890  -12.4807  -45.3235 H         1 UNK         0.0600 
    174 H174        3.0112  -12.8568  -45.2588 H         1 UNK         0.3000 
    175 H175        2.7869  -13.0543  -48.3940 H         1 UNK         0.0600 
    176 H176        0.7658  -15.1581  -47.5384 H         1 UNK         0.0600 
    177 H177        0.4785  -14.0064  -48.8458 H         1 UNK         0.0600 
    178 H178        1.7889  -15.1693  -48.9650 H         1 UNK         0.0600 
    179 H179        1.9497  -11.5073  -47.0761 H         1 UNK         0.3000 
    180 H180        0.7963  -10.6391  -45.0823 H         1 UNK         0.0600 
    181 H181        0.2680   -9.9209  -47.4264 H         1 UNK         0.0600 
    182 H182       -1.3568  -10.5827  -47.2859 H         1 UNK         0.0600 
    183 H183       -0.8756   -9.1955  -46.3114 H         1 UNK         0.0600 
    184 H184       -1.6915  -12.1431  -44.8673 H         1 UNK         0.3000 
    185 H185       -2.2648  -11.2060  -41.6801 H         1 UNK         0.0600 
    186 H186       -4.5220  -10.2275  -42.0671 H         1 UNK         0.0600 
    187 H187       -3.2717   -9.0224  -42.3213 H         1 UNK         0.0600 
    188 H188       -4.0604   -9.7665  -43.7065 H         1 UNK         0.0600 
    189 H189       -4.0689  -12.2052  -43.7282 H         1 UNK         0.3000 
    190 H190       -2.9617  -20.4494  -44.9351 H         1 UNK         0.3000 
    191 H191       -5.8820  -20.1294  -44.8334 H         1 UNK         0.0600 
    192 H192       -5.4703  -19.9954  -42.3877 H         1 UNK         0.0600 
    193 H193       -4.4300  -18.8868  -43.2661 H         1 UNK         0.0600 
    194 H194       -3.7736  -20.3950  -42.6296 H         1 UNK         0.0600 
    195 H195       -3.8995  -22.7742  -45.3891 H         1 UNK         0.3000 
    196 H196       -5.7205  -24.7272  -44.0560 H         1 UNK         0.0600 
    197 H197       -3.7284  -26.1819  -43.8346 H         1 UNK         0.0600 
    198 H198       -3.3806  -24.6453  -43.0668 H         1 UNK         0.0600 
    199 H199       -2.7161  -24.9984  -44.6565 H         1 UNK         0.0600 
    200 H200       -5.1529  -26.9583  -45.3042 H         1 UNK         0.3000 
    201 H201       -6.2416  -26.7510  -47.9334 H         1 UNK         0.0600 
    202 H202       -6.6316  -28.6925  -46.4335 H         1 UNK         0.0600 
    203 H203       -4.9175  -29.1075  -46.4842 H         1 UNK         0.0600 
    204 H204       -5.9012  -29.2261  -47.9380 H         1 UNK         0.0600 
    205 H205       -3.0064  -26.4304  -46.8565 H         1 UNK         0.3000 
    206 H206       -1.5776  -27.3885  -49.1626 H         1 UNK         0.0600 
    207 H207       -0.5260  -27.2329  -46.9305 H         1 UNK         0.0600 
    208 H208        0.3348  -26.1954  -48.0549 H         1 UNK         0.0600 
    209 H209       -0.7814  -25.4897  -46.8921 H         1 UNK         0.0600 
    210 H210       -3.5410  -24.6425  -48.7917 H         1 UNK         0.3000 
    211 H211       -2.3098  -22.5261  -49.9279 H         1 UNK         0.0600 
    212 H212       -4.5905  -21.7543  -50.5631 H         1 UNK         0.0600 
    213 H213       -4.6370  -22.5495  -48.9980 H         1 UNK         0.0600 
    214 H214       -5.2084  -23.3983  -50.4266 H         1 UNK         0.0600 
    215 H215       -3.6723  -25.2241  -51.7807 H         1 UNK         0.3000 
    216 H216       -3.4555  -24.1067  -54.3844 H         1 UNK         0.0600 
    217 H217       -3.7444  -26.4806  -55.1105 H         1 UNK         0.0600 
    218 H218       -4.8923  -26.0517  -53.8525 H         1 UNK         0.0600 
    219 H219       -3.4764  -27.0277  -53.4595 H         1 UNK         0.0600 
    220 H220       -1.0353  -25.6076  -52.3076 H         1 UNK         0.3000 
    221 H221        0.9646  -25.7857  -54.5029 H         1 UNK         0.0600 
    222 H222        1.1081  -26.6245  -51.5576 H         1 UNK         0.0600 
    223 H223        0.8146  -27.7008  -52.9223 H         1 UNK         0.0600 
    224 H224        2.3590  -26.8774  -52.7679 H         1 UNK         0.0600 
    225 H225        0.1788  -24.0408  -51.4929 H         1 UNK         0.3000 
    226 H226        2.5881  -22.6084  -51.2408 H         1 UNK         0.0600 
    227 H227        1.3633  -21.3046  -49.5488 H         1 UNK         0.0600 
    228 H228       -0.1785  -21.8591  -50.1761 H         1 UNK         0.0600 
    229 H229        0.9222  -23.0020  -49.4102 H         1 UNK         0.0600 
    230 H230       -0.4535  -21.6711  -52.9207 H         1 UNK         0.3000 
    231 H231        0.9690  -19.6047  -54.4239 H         1 UNK         0.0600 
    232 H232       -0.5040  -17.7263  -53.6080 H         1 UNK         0.0600 
    233 H233        0.5270  -18.3411  -52.3278 H         1 UNK         0.0600 
    234 H234       -1.1725  -18.8030  -52.3850 H         1 UNK         0.0600 
    235 H235       -2.0784  -21.2598  -53.6799 H         1 UNK         0.3000 
    236 H236       -3.8658  -21.8079  -54.7607 H         1 UNK         0.0600 
    237 H237       -2.4600  -21.1080  -57.3908 H         1 UNK         0.0600 
    238 H238       -2.3538  -22.6566  -56.5570 H         1 UNK         0.0600 
    239 H239       -3.8909  -22.1089  -57.2055 H         1 UNK         0.0600 
    240 H240       -2.7337  -18.5994  -55.4066 H         1 UNK         0.3000 
    241 H241       -3.6871  -16.6212  -55.4570 H         1 UNK         0.0600 
    242 H242       -4.7779  -17.5377  -59.0474 H         1 UNK         0.3800 
    243 H243       -3.7840  -18.4816  -57.9675 H         1 UNK         0.3800 
    244 H244       -6.3998  -17.8228  -54.7492 H         1 UNK         0.0800 
    245 H245       -5.9697  -16.1403  -54.6508 H         1 UNK         0.0800 
    246 H246       -3.6939  -15.3834  -53.1501 H         1 UNK         0.0800 
    247 H247       -5.2624  -15.0371  -52.4524 H         1 UNK         0.0800 
@<TRIPOS>BOND
     1    1    2 1    
     2    1  127 1    
     3    1  128 1    
     4    1  129 1    
     5    2    3 2    
     6    2    4 am   BACKBONE|DICT|INTERRES
     7    4    5 1    
     8    4  130 1    
     9    5    6 1    
    10    5   65 1    
    11    5  131 1    
    12    6    7 1    
    13    6  132 1    
    14    6  133 1    
    15    7    8 1    
    16    8    9 1    
    17    8  134 1    
    18    8  135 1    
    19    9   10 ar   
    20    9   14 ar   
    21   10   11 ar   
    22   10  136 1    
    23   11   12 ar   
    24   11  126 1    
    25   12   13 ar   
    26   12  137 1    
    27   13   14 ar   
    28   13   15 1    
    29   14  138 1    
    30   15   16 1    
    31   15  139 1    
    32   15  140 1    
    33   16   17 1    
    34   17   18 1    
    35   17  141 1    
    36   17  142 1    
    37   18   19 1    
    38   18   67 1    
    39   18  143 1    
    40   19   20 am   BACKBONE|DICT|INTERRES
    41   19  144 1    
    42   20   21 2    
    43   20   22 1    
    44   22   23 1    
    45   22   24 1    
    46   22  145 1    
    47   23  146 1    
    48   23  147 1    
    49   23  148 1    
    50   24   25 am   BACKBONE|DICT|INTERRES
    51   24  149 1    
    52   25   26 2    
    53   25   27 1    
    54   27   28 1    
    55   27   29 1    
    56   27  150 1    
    57   28  151 1    
    58   28  152 1    
    59   28  153 1    
    60   29   30 am   BACKBONE|DICT|INTERRES
    61   29  154 1    
    62   30   31 2    
    63   30   32 1    
    64   32   33 1    
    65   32   34 1    
    66   32  155 1    
    67   33  156 1    
    68   33  157 1    
    69   33  158 1    
    70   34   35 am   BACKBONE|DICT|INTERRES
    71   34  159 1    
    72   35   36 2    
    73   35   37 1    
    74   37   38 1    
    75   37   39 1    
    76   37  160 1    
    77   38  161 1    
    78   38  162 1    
    79   38  163 1    
    80   39   40 am   BACKBONE|DICT|INTERRES
    81   39  164 1    
    82   40   41 2    
    83   40   42 1    
    84   42   43 1    
    85   42   44 1    
    86   42  165 1    
    87   43  166 1    
    88   43  167 1    
    89   43  168 1    
    90   44   45 am   BACKBONE|DICT|INTERRES
    91   44  169 1    
    92   45   46 2    
    93   45   47 1    
    94   47   48 1    
    95   47   49 1    
    96   47  170 1    
    97   48  171 1    
    98   48  172 1    
    99   48  173 1    
   100   49   50 am   BACKBONE|DICT|INTERRES
   101   49  174 1    
   102   50   51 2    
   103   50   52 1    
   104   52   53 1    
   105   52   54 1    
   106   52  175 1    
   107   53  176 1    
   108   53  177 1    
   109   53  178 1    
   110   54   55 am   BACKBONE|DICT|INTERRES
   111   54  179 1    
   112   55   56 2    
   113   55   57 1    
   114   57   58 1    
   115   57   59 1    
   116   57  180 1    
   117   58  181 1    
   118   58  182 1    
   119   58  183 1    
   120   59   60 am   BACKBONE|DICT|INTERRES
   121   59  184 1    
   122   60   61 2    
   123   60   62 1    
   124   62   63 1    
   125   62   64 1    
   126   62  185 1    
   127   63  186 1    
   128   63  187 1    
   129   63  188 1    
   130   64   65 am   BACKBONE|DICT|INTERRES
   131   64  189 1    
   132   65   66 2    
   133   67   68 2    
   134   67   69 am   BACKBONE|DICT|INTERRES
   135   69   70 1    
   136   69  190 1    
   137   70   71 1    
   138   70   72 1    
   139   70  191 1    
   140   71  192 1    
   141   71  193 1    
   142   71  194 1    
   143   72   73 2    
   144   72   74 am   BACKBONE|DICT|INTERRES
   145   74   75 1    
   146   74  195 1    
   147   75   76 1    
   148   75   77 1    
   149   75  196 1    
   150   76  197 1    
   151   76  198 1    
   152   76  199 1    
   153   77   78 2    
   154   77   79 am   BACKBONE|DICT|INTERRES
   155   79   80 1    
   156   79  200 1    
   157   80   81 1    
   158   80   82 1    
   159   80  201 1    
   160   81  202 1    
   161   81  203 1    
   162   81  204 1    
   163   82   83 2    
   164   82   84 am   BACKBONE|DICT|INTERRES
   165   84   85 1    
   166   84  205 1    
   167   85   86 1    
   168   85   87 1    
   169   85  206 1    
   170   86  207 1    
   171   86  208 1    
   172   86  209 1    
   173   87   88 2    
   174   87   89 am   BACKBONE|DICT|INTERRES
   175   89   90 1    
   176   89  210 1    
   177   90   91 1    
   178   90   92 1    
   179   90  211 1    
   180   91  212 1    
   181   91  213 1    
   182   91  214 1    
   183   92   93 2    
   184   92   94 am   BACKBONE|DICT|INTERRES
   185   94   95 1    
   186   94  215 1    
   187   95   96 1    
   188   95   97 1    
   189   95  216 1    
   190   96  217 1    
   191   96  218 1    
   192   96  219 1    
   193   97   98 2    
   194   97   99 am   BACKBONE|DICT|INTERRES
   195   99  100 1    
   196   99  220 1    
   197  100  101 1    
   198  100  102 1    
   199  100  221 1    
   200  101  222 1    
   201  101  223 1    
   202  101  224 1    
   203  102  103 2    
   204  102  104 am   BACKBONE|DICT|INTERRES
   205  104  105 1    
   206  104  225 1    
   207  105  106 1    
   208  105  107 1    
   209  105  226 1    
   210  106  227 1    
   211  106  228 1    
   212  106  229 1    
   213  107  108 2    
   214  107  109 am   BACKBONE|DICT|INTERRES
   215  109  110 1    
   216  109  230 1    
   217  110  111 1    
   218  110  112 1    
   219  110  231 1    
   220  111  232 1    
   221  111  233 1    
   222  111  234 1    
   223  112  113 2    
   224  112  114 am   BACKBONE|DICT|INTERRES
   225  114  115 1    
   226  114  235 1    
   227  115  116 1    
   228  115  117 1    
   229  115  236 1    
   230  116  237 1    
   231  116  238 1    
   232  116  239 1    
   233  117  118 2    
   234  117  119 am   BACKBONE|DICT|INTERRES
   235  119  120 1    
   236  119  240 1    
   237  120  121 1    
   238  120  124 1    
   239  120  241 1    
   240  121  122 am   BACKBONE|DICT|INTERRES
   241  121  123 2    
   242  122  242 1    
   243  122  243 1    
   244  124  125 1    
   245  124  244 1    
   246  124  245 1    
   247  125  126 1    
   248  126  246 1    
   249  126  247 1    
@<TRIPOS>SUBSTRUCTURE
     1 UNK         1 GROUP             0       ****    0 ROOT    
