@<TRIPOS>MOLECULE
3R540
247   249    1
SMALL
USER_CHARGES


@<TRIPOS>ATOM
      1 CA          5.3506  -11.1648  -43.1606 C.3       0 UNK        -0.1800 
      2 C           4.2958  -11.9302  -43.9459 C.2       0 UNK         0.5000 
      3 O           3.1316  -11.9573  -43.5469 O.2       0 UNK        -0.5000 
      4 N           4.6905  -12.5469  -45.0669 N.am      1 UNK        -0.5000 
      5 CA          3.8255  -13.3303  -45.9553 C.3       1 UNK         0.1400 
      6 C6          4.6299  -14.4330  -46.6903 C.3       23 UNK        -0.0398 
      7 S7          3.5765  -15.8335  -47.1933 S.3       23 UNK        -0.2404 
      8 C8          3.7746  -15.7869  -48.9989 C.3       23 UNK        -0.0205 
      9 C9          2.8765  -16.8106  -49.6709 C.ar      23 UNK        -0.0193 
     10 C10         1.5971  -16.4467  -50.1010 C.ar      23 UNK        -0.1150 
     11 C11         0.7584  -17.3851  -50.7093 C.ar      23 UNK        -0.0193 
     12 C12         1.2201  -18.6893  -50.9043 C.ar      23 UNK        -0.1150 
     13 C13         2.4895  -19.0720  -50.4570 C.ar      23 UNK        -0.0193 
     14 C14         3.3168  -18.1252  -49.8479 C.ar      23 UNK        -0.1150 
     15 C15         2.9478  -20.5180  -50.5957 C.3       23 UNK        -0.0205 
     16 S16         2.5859  -21.4949  -49.0962 S.3       23 UNK        -0.2404 
     17 C17         0.7825  -21.2748  -48.9974 C.3       23 UNK        -0.0398 
     18 CA          0.0791  -22.1205  -47.9182 C.3       11 UNK         0.1400 
     19 N           0.5994  -21.8572  -46.5742 N.am      11 UNK        -0.5000 
     20 C           0.2214  -22.4925  -45.4565 C.2       10 UNK         0.5000 
     21 O          -0.6525  -23.3593  -45.4383 O.2       10 UNK        -0.5000 
     22 CA          0.8732  -22.0525  -44.1309 C.3       10 UNK         0.1400 
     23 CB          1.3390  -23.2469  -43.2745 C.3       10 UNK        -0.1800 
     24 N           1.9208  -21.0348  -44.2872 N.am      10 UNK        -0.5000 
     25 C           3.1648  -21.1853  -44.7655 C.2       9 UNK         0.5000 
     26 O           3.6403  -22.2648  -45.1161 O.2       9 UNK        -0.5000 
     27 CA          4.0238  -19.9159  -44.8957 C.3       9 UNK         0.1400 
     28 CB          4.0024  -19.3945  -46.3410 C.3       9 UNK        -0.1800 
     29 N           3.5921  -18.8411  -43.9956 N.am      9 UNK        -0.5000 
     30 C           4.4113  -18.1769  -43.1695 C.2       8 UNK         0.5000 
     31 O           5.6138  -18.4186  -43.0538 O.2       8 UNK        -0.5000 
     32 CA          3.7992  -17.0406  -42.3299 C.3       8 UNK         0.1400 
     33 CB          3.7907  -15.7277  -43.1258 C.3       8 UNK        -0.1800 
     34 N           2.4472  -17.3170  -41.8438 N.am      8 UNK        -0.5000 
     35 C           2.1521  -18.2108  -40.8886 C.2       7 UNK         0.5000 
     36 O           2.9787  -18.9696  -40.3817 O.2       7 UNK        -0.5000 
     37 CA          0.6933  -18.2544  -40.4054 C.3       7 UNK         0.1400 
     38 CB          0.4211  -17.1116  -39.4137 C.3       7 UNK        -0.1800 
     39 N          -0.2332  -18.1428  -41.5295 N.am      7 UNK        -0.5000 
     40 C          -0.9323  -19.1622  -42.0439 C.2       6 UNK         0.5000 
     41 O          -0.9355  -20.2977  -41.5698 O.2       6 UNK        -0.5000 
     42 CA         -1.7673  -18.8831  -43.3108 C.3       6 UNK         0.1400 
     43 CB         -3.2418  -18.6665  -42.9356 C.3       6 UNK        -0.1800 
     44 N          -1.3016  -17.7360  -44.0946 N.am      6 UNK        -0.5000 
     45 C          -0.1128  -17.6396  -44.7070 C.2       5 UNK         0.5000 
     46 O           0.7235  -18.5424  -44.7215 O.2       5 UNK        -0.5000 
     47 CA          0.2275  -16.2841  -45.3544 C.3       5 UNK         0.1400 
     48 CB         -0.1602  -16.2844  -46.8402 C.3       5 UNK        -0.1800 
     49 N          -0.3860  -15.1284  -44.6894 N.am      5 UNK        -0.5000 
     50 C          -0.2551  -14.8019  -43.3943 C.2       4 UNK         0.5000 
     51 O           0.4000  -15.4796  -42.6003 O.2       4 UNK        -0.5000 
     52 CA         -0.9853  -13.5366  -42.8926 C.3       4 UNK         0.1400 
     53 CB         -0.1710  -12.8052  -41.8120 C.3       4 UNK        -0.1800 
     54 N          -1.3018  -12.5863  -43.9601 N.am      4 UNK        -0.5000 
     55 C          -2.3518  -12.6275  -44.7875 C.2       3 UNK         0.5000 
     56 O          -3.2083  -13.5101  -44.7464 O.2       3 UNK        -0.5000 
     57 CA         -2.4310  -11.5404  -45.8816 C.3       3 UNK         0.1400 
     58 CB         -3.0876  -10.2541  -45.3446 C.3       3 UNK        -0.1800 
     59 N          -1.1477  -11.2624  -46.5503 N.am      3 UNK        -0.5000 
     60 C          -0.0412  -10.7034  -46.0405 C.2       2 UNK         0.5000 
     61 O           0.0536  -10.2862  -44.8843 O.2       2 UNK        -0.5000 
     62 CA          1.2005  -10.6970  -46.9363 C.3       2 UNK         0.1400 
     63 CB          1.7919   -9.2866  -47.0957 C.3       2 UNK        -0.1800 
     64 N           2.1666  -11.5704  -46.2865 N.am      2 UNK        -0.5000 
     65 C           3.0087  -12.4101  -46.8926 C.2       1 UNK         0.5000 
     66 O           3.1573  -12.4569  -48.1144 O.2       1 UNK        -0.5000 
     67 C          -1.4345  -21.8573  -48.0094 C.2       11 UNK         0.5000 
     68 O          -2.1642  -22.6768  -48.5629 O.2       11 UNK        -0.5000 
     69 N          -1.8807  -20.7208  -47.4547 N.am      12 UNK        -0.5000 
     70 CA         -3.2831  -20.3042  -47.4812 C.3       12 UNK         0.1400 
     71 CB         -3.4009  -18.8498  -47.0092 C.3       12 UNK        -0.1800 
     72 C          -4.1955  -21.2418  -46.6679 C.2       12 UNK         0.5000 
     73 O          -5.3216  -21.5106  -47.0883 O.2       12 UNK        -0.5000 
     74 N          -3.6639  -21.7660  -45.5532 N.am      13 UNK        -0.5000 
     75 CA         -4.3078  -22.7829  -44.7212 C.3       13 UNK         0.1400 
     76 CB         -3.5542  -22.9053  -43.3878 C.3       13 UNK        -0.1800 
     77 C          -4.3970  -24.1466  -45.4325 C.2       13 UNK         0.5000 
     78 O          -5.3994  -24.8464  -45.2819 O.2       13 UNK        -0.5000 
     79 N          -3.3791  -24.4784  -46.2389 N.am      14 UNK        -0.5000 
     80 CA         -3.3140  -25.6543  -47.1085 C.3       14 UNK         0.1400 
     81 CB         -1.8389  -25.9613  -47.4238 C.3       14 UNK        -0.1800 
     82 C          -4.1749  -25.4851  -48.3809 C.2       14 UNK         0.5000 
     83 O          -3.6652  -25.5830  -49.4996 O.2       14 UNK        -0.5000 
     84 N          -5.4755  -25.2344  -48.1751 N.am      15 UNK        -0.5000 
     85 CA         -6.5390  -25.1208  -49.1770 C.3       15 UNK         0.1400 
     86 CB         -6.8418  -26.5074  -49.7836 C.3       15 UNK        -0.1800 
     87 C          -6.2595  -24.0508  -50.2516 C.2       15 UNK         0.5000 
     88 O          -6.4101  -24.3274  -51.4422 O.2       15 UNK        -0.5000 
     89 N          -5.8418  -22.8530  -49.8150 N.am      16 UNK        -0.5000 
     90 CA         -5.5105  -21.6947  -50.6547 C.3       16 UNK         0.1400 
     91 CB         -6.7788  -21.1294  -51.3235 C.3       16 UNK        -0.1800 
     92 C          -4.3773  -21.9959  -51.6600 C.2       16 UNK         0.5000 
     93 O          -4.5064  -21.7047  -52.8525 O.2       16 UNK        -0.5000 
     94 N          -3.3014  -22.6081  -51.1461 N.am      17 UNK        -0.5000 
     95 CA         -2.1355  -23.1300  -51.8597 C.3       17 UNK         0.1400 
     96 CB         -1.3197  -21.9895  -52.4995 C.3       17 UNK        -0.1800 
     97 C          -2.5194  -24.2484  -52.8459 C.2       17 UNK         0.5000 
     98 O          -2.1831  -24.1755  -54.0277 O.2       17 UNK        -0.5000 
     99 N          -3.2317  -25.2600  -52.3284 N.am      18 UNK        -0.5000 
    100 CA        -3.7194  -26.4498  -53.0331 C.3       18 UNK         0.1400 
    101 CB        -2.5421  -27.3710  -53.4147 C.3       18 UNK        -0.1800 
    102 C         -4.6339  -26.1045  -54.2276 C.2       18 UNK         0.5000 
    103 O         -4.4064  -26.5708  -55.3456 O.2       18 UNK        -0.5000 
    104 N         -5.6516  -25.2778  -53.9527 N.am      19 UNK        -0.5000 
    105 CA        -6.6873  -24.7915  -54.8682 C.3       19 UNK         0.1400 
    106 CB        -7.5298  -25.9564  -55.4296 C.3       19 UNK        -0.1800 
    107 C         -6.1711  -23.8371  -55.9659 C.2       19 UNK         0.5000 
    108 O         -6.8482  -23.6550  -56.9792 O.2       19 UNK        -0.5000 
    109 N         -5.0126  -23.2015  -55.7374 N.am      20 UNK        -0.5000 
    110 CA        -4.4698  -22.1426  -56.5956 C.3       20 UNK         0.1400 
    111 CB        -2.9565  -22.0313  -56.3670 C.3       20 UNK        -0.1800 
    112 C         -5.1515  -20.7774  -56.3655 C.2       20 UNK         0.5000 
    113 O         -4.9545  -19.8655  -57.1694 O.2       20 UNK        -0.5000 
    114 N         -5.9296  -20.6671  -55.2782 N.am      21 UNK        -0.5000 
    115 CA        -6.6631  -19.4897  -54.8070 C.3       21 UNK         0.1400 
    116 CB        -7.6690  -18.9825  -55.8627 C.3       21 UNK        -0.1800 
    117 C         -5.7335  -18.3855  -54.2624 C.2       21 UNK         0.5000 
    118 O         -6.0621  -17.2021  -54.3649 O.2       21 UNK        -0.5000 
    119 N         -4.5961  -18.7881  -53.6789 N.am      22 UNK        -0.5000 
    120 CA        -3.6660  -17.8882  -52.9854 C.3       22 UNK         0.1400 
    121 C         -4.1755  -17.5755  -51.5526 C.2       22 UNK         0.5000 
    122 N         -4.3553  -16.3091  -51.2053 N.am      22 UNK        -0.7600 
    123 O         -4.3725  -18.4771  -50.7421 O.2       22 UNK        -0.5000 
    124 C124       -2.2250  -18.4608  -52.9652 C.3       23 UNK        -0.0398 
    125 S125       -0.9591  -17.1449  -52.8917 S.3       23 UNK        -0.2404 
    126 C126       -0.6635  -17.0056  -51.0984 C.3       23 UNK        -0.0205 
    127 H127        5.4308  -11.5679  -42.1510 H         1 UNK         0.0600 
    128 H128        5.0737  -10.1131  -43.0882 H         1 UNK         0.0600 
    129 H129        6.3320  -11.2275  -43.6312 H         1 UNK         0.0600 
    130 H130        5.6518  -12.4547  -45.3639 H         1 UNK         0.3000 
    131 H131        3.0923  -13.8371  -45.3243 H         1 UNK         0.0600 
    132 H132        5.1844  -14.0312  -47.5401 H         1 UNK         0.0800 
    133 H133        5.3833  -14.8492  -46.0200 H         1 UNK         0.0800 
    134 H134        3.5419  -14.7882  -49.3703 H         1 UNK         0.0800 
    135 H135        4.8176  -15.9784  -49.2552 H         1 UNK         0.0800 
    136 H136        1.2492  -15.4358  -49.9409 H         1 UNK         0.1150 
    137 H137        0.5725  -19.4169  -51.3716 H         1 UNK         0.1150 
    138 H138        4.2953  -18.4163  -49.4922 H         1 UNK         0.1150 
    139 H139        2.4695  -20.9859  -51.4576 H         1 UNK         0.0800 
    140 H140        4.0211  -20.5491  -50.7888 H         1 UNK         0.0800 
    141 H141        0.3733  -21.5083  -49.9805 H         1 UNK         0.0800 
    142 H142        0.5857  -20.2180  -48.8122 H         1 UNK         0.0800 
    143 H143        0.2490  -23.1763  -48.1388 H         1 UNK         0.0600 
    144 H144        1.3335  -21.1686  -46.5045 H         1 UNK         0.3000 
    145 H145        0.0752  -21.5622  -43.5778 H         1 UNK         0.0600 
    146 H146        1.7905  -22.9103  -42.3412 H         1 UNK         0.0600 
    147 H147        0.4963  -23.8880  -43.0131 H         1 UNK         0.0600 
    148 H148        2.0653  -23.8685  -43.7981 H         1 UNK         0.0600 
    149 H149        1.5960  -20.0845  -44.1392 H         1 UNK         0.3000 
    150 H150        5.0467  -20.2194  -44.6641 H         1 UNK         0.0600 
    151 H151        4.3246  -20.1659  -47.0408 H         1 UNK         0.0600 
    152 H152        4.6817  -18.5511  -46.4616 H         1 UNK         0.0600 
    153 H153        3.0056  -19.0679  -46.6413 H         1 UNK         0.0600 
    154 H154        2.6177  -18.5682  -44.0462 H         1 UNK         0.3000 
    155 H155        4.4409  -16.8958  -41.4581 H         1 UNK         0.0600 
    156 H156        4.7966  -15.4579  -43.4497 H         1 UNK         0.0600 
    157 H157        3.4080  -14.9004  -42.5273 H         1 UNK         0.0600 
    158 H158        3.1712  -15.8101  -44.0167 H         1 UNK         0.0600 
    159 H159        1.7149  -16.6918  -42.1703 H         1 UNK         0.3000 
    160 H160        0.5458  -19.1983  -39.8763 H         1 UNK         0.0600 
    161 H161        0.5537  -16.1323  -39.8755 H         1 UNK         0.0600 
    162 H162        1.0971  -17.1667  -38.5596 H         1 UNK         0.0600 
    163 H163       -0.5967  -17.1627  -39.0268 H         1 UNK         0.0600 
    164 H164       -0.2666  -17.2403  -41.9905 H         1 UNK         0.3000 
    165 H165       -1.7017  -19.7691  -43.9448 H         1 UNK         0.0600 
    166 H166       -3.8720  -18.5693  -43.8191 H         1 UNK         0.0600 
    167 H167       -3.6275  -19.5077  -42.3583 H         1 UNK         0.0600 
    168 H168       -3.3730  -17.7686  -42.3305 H         1 UNK         0.0600 
    169 H169       -1.9142  -16.9340  -44.1247 H         1 UNK         0.3000 
    170 H170        1.3079  -16.1625  -45.2879 H         1 UNK         0.0600 
    171 H171        0.2888  -17.1312  -47.3621 H         1 UNK         0.0600 
    172 H172       -1.2403  -16.3463  -46.9767 H         1 UNK         0.0600 
    173 H173        0.1910  -15.3802  -47.3379 H         1 UNK         0.0600 
    174 H174       -0.9683  -14.5357  -45.2621 H         1 UNK         0.3000 
    175 H175       -1.9186  -13.8726  -42.4367 H         1 UNK         0.0600 
    176 H176        0.7948  -12.4742  -42.1953 H         1 UNK         0.0600 
    177 H177       -0.7030  -11.9282  -41.4433 H         1 UNK         0.0600 
    178 H178        0.0192  -13.4505  -40.9533 H         1 UNK         0.0600 
    179 H179       -0.6548  -11.8110  -44.0820 H         1 UNK         0.3000 
    180 H180       -3.0857  -11.9344  -46.6607 H         1 UNK         0.0600 
    181 H181       -2.5185   -9.8117  -44.5267 H         1 UNK         0.0600 
    182 H182       -4.0894  -10.4606  -44.9657 H         1 UNK         0.0600 
    183 H183       -3.1856   -9.5044  -46.1296 H         1 UNK         0.0600 
    184 H184       -1.0961  -11.6023  -47.5009 H         1 UNK         0.3000 
    185 H185        0.9379  -11.0880  -47.9218 H         1 UNK         0.0600 
    186 H186        2.6742   -9.3014  -47.7358 H         1 UNK         0.0600 
    187 H187        1.0682   -8.6104  -47.5520 H         1 UNK         0.0600 
    188 H188        2.0838   -8.8594  -46.1353 H         1 UNK         0.0600 
    189 H189        2.1370  -11.5725  -45.2700 H         1 UNK         0.3000 
    190 H190       -1.2219  -20.0986  -47.0108 H         1 UNK         0.3000 
    191 H191       -3.6119  -20.3366  -48.5192 H         1 UNK         0.0600 
    192 H192       -2.8535  -18.1785  -47.6711 H         1 UNK         0.0600 
    193 H193       -4.4414  -18.5224  -47.0065 H         1 UNK         0.0600 
    194 H194       -3.0116  -18.7213  -46.0022 H         1 UNK         0.0600 
    195 H195       -2.7110  -21.5329  -45.3228 H         1 UNK         0.3000 
    196 H196       -5.3262  -22.4515  -44.5074 H         1 UNK         0.0600 
    197 H197       -4.0410  -23.6282  -42.7320 H         1 UNK         0.0600 
    198 H198       -3.5290  -21.9534  -42.8578 H         1 UNK         0.0600 
    199 H199       -2.5253  -23.2360  -43.5301 H         1 UNK         0.0600 
    200 H200       -2.5852  -23.8518  -46.2915 H         1 UNK         0.3000 
    201 H201       -3.7161  -26.5103  -46.5629 H         1 UNK         0.0600 
    202 H202       -1.2627  -26.1077  -46.5099 H         1 UNK         0.0600 
    203 H203       -1.3692  -25.1557  -47.9876 H         1 UNK         0.0600 
    204 H204       -1.7471  -26.8725  -48.0159 H         1 UNK         0.0600 
    205 H205       -5.7687  -25.1387  -47.2074 H         1 UNK         0.3000 
    206 H206       -7.4319  -24.7907  -48.6445 H         1 UNK         0.0600 
    207 H207       -7.0797  -27.2338  -49.0066 H         1 UNK         0.0600 
    208 H208       -7.6986  -26.4629  -50.4570 H         1 UNK         0.0600 
    209 H209       -5.9964  -26.8928  -50.3543 H         1 UNK         0.0600 
    210 H210       -5.7281  -22.7119  -48.8171 H         1 UNK         0.3000 
    211 H211       -5.1384  -20.9256  -49.9824 H         1 UNK         0.0600 
    212 H212       -7.1557  -21.7841  -52.1100 H         1 UNK         0.0600 
    213 H213       -6.5692  -20.1567  -51.7668 H         1 UNK         0.0600 
    214 H214       -7.5770  -20.9832  -50.5959 H         1 UNK         0.0600 
    215 H215       -3.2827  -22.7911  -50.1468 H         1 UNK         0.3000 
    216 H216       -1.5014  -23.5982  -51.1053 H         1 UNK         0.0600 
    217 H217       -0.3998  -22.3684  -52.9461 H         1 UNK         0.0600 
    218 H218       -1.0396  -21.2462  -51.7563 H         1 UNK         0.0600 
    219 H219       -1.8776  -21.4793  -53.2816 H         1 UNK         0.0600 
    220 H220       -3.4523  -25.2296  -51.3344 H         1 UNK         0.3000 
    221 H221       -4.3409  -26.9922  -52.3192 H         1 UNK         0.0600 
    222 H222       -1.8826  -26.9053  -54.1476 H         1 UNK         0.0600 
    223 H223       -1.9439  -27.6269  -52.5401 H         1 UNK         0.0600 
    224 H224       -2.9022  -28.3058  -53.8458 H         1 UNK         0.0600 
    225 H225       -5.7553  -24.9444  -52.9941 H         1 UNK         0.3000 
    226 H226       -7.3519  -24.1862  -54.2501 H         1 UNK         0.0600 
    227 H227       -7.8896  -26.6038  -54.6299 H         1 UNK         0.0600 
    228 H228       -8.4063  -25.5849  -55.9616 H         1 UNK         0.0600 
    229 H229       -6.9613  -26.5693  -56.1293 H         1 UNK         0.0600 
    230 H230       -4.5016  -23.4036  -54.8876 H         1 UNK         0.3000 
    231 H231       -4.6318  -22.4178  -57.6398 H         1 UNK         0.0600 
    232 H232       -2.4568  -22.9818  -56.5545 H         1 UNK         0.0600 
    233 H233       -2.7326  -21.7282  -55.3458 H         1 UNK         0.0600 
    234 H234       -2.5112  -21.2921  -57.0339 H         1 UNK         0.0600 
    235 H235       -5.9308  -21.4573  -54.6466 H         1 UNK         0.3000 
    236 H236       -7.2525  -19.8308  -53.9567 H         1 UNK         0.0600 
    237 H237       -8.2926  -19.7948  -56.2362 H         1 UNK         0.0600 
    238 H238       -8.3363  -18.2334  -55.4351 H         1 UNK         0.0600 
    239 H239       -7.1700  -18.5214  -56.7151 H         1 UNK         0.0600 
    240 H240       -4.4339  -19.7838  -53.5704 H         1 UNK         0.3000 
    241 H241       -3.6396  -16.9560  -53.5540 H         1 UNK         0.0600 
    242 H242       -4.6779  -16.1000  -50.2742 H         1 UNK         0.3800 
    243 H243       -4.2020  -15.5560  -51.8577 H         1 UNK         0.3800 
    244 H244       -2.0846  -19.1783  -52.1562 H         1 UNK         0.0800 
    245 H245       -2.0354  -19.0139  -53.8862 H         1 UNK         0.0800 
    246 H246       -1.3574  -17.6336  -50.5386 H         1 UNK         0.0800 
    247 H247       -0.8820  -15.9801  -50.7967 H         1 UNK         0.0800 
@<TRIPOS>BOND
     1    1    2 1    
     2    1  127 1    
     3    1  128 1    
     4    1  129 1    
     5    2    3 2    
     6    2    4 am   BACKBONE|DICT|INTERRES
     7    4    5 1    
     8    4  130 1    
     9    5    6 1    
    10    5   65 1    
    11    5  131 1    
    12    6    7 1    
    13    6  132 1    
    14    6  133 1    
    15    7    8 1    
    16    8    9 1    
    17    8  134 1    
    18    8  135 1    
    19    9   10 ar   
    20    9   14 ar   
    21   10   11 ar   
    22   10  136 1    
    23   11   12 ar   
    24   11  126 1    
    25   12   13 ar   
    26   12  137 1    
    27   13   14 ar   
    28   13   15 1    
    29   14  138 1    
    30   15   16 1    
    31   15  139 1    
    32   15  140 1    
    33   16   17 1    
    34   17   18 1    
    35   17  141 1    
    36   17  142 1    
    37   18   19 1    
    38   18   67 1    
    39   18  143 1    
    40   19   20 am   BACKBONE|DICT|INTERRES
    41   19  144 1    
    42   20   21 2    
    43   20   22 1    
    44   22   23 1    
    45   22   24 1    
    46   22  145 1    
    47   23  146 1    
    48   23  147 1    
    49   23  148 1    
    50   24   25 am   BACKBONE|DICT|INTERRES
    51   24  149 1    
    52   25   26 2    
    53   25   27 1    
    54   27   28 1    
    55   27   29 1    
    56   27  150 1    
    57   28  151 1    
    58   28  152 1    
    59   28  153 1    
    60   29   30 am   BACKBONE|DICT|INTERRES
    61   29  154 1    
    62   30   31 2    
    63   30   32 1    
    64   32   33 1    
    65   32   34 1    
    66   32  155 1    
    67   33  156 1    
    68   33  157 1    
    69   33  158 1    
    70   34   35 am   BACKBONE|DICT|INTERRES
    71   34  159 1    
    72   35   36 2    
    73   35   37 1    
    74   37   38 1    
    75   37   39 1    
    76   37  160 1    
    77   38  161 1    
    78   38  162 1    
    79   38  163 1    
    80   39   40 am   BACKBONE|DICT|INTERRES
    81   39  164 1    
    82   40   41 2    
    83   40   42 1    
    84   42   43 1    
    85   42   44 1    
    86   42  165 1    
    87   43  166 1    
    88   43  167 1    
    89   43  168 1    
    90   44   45 am   BACKBONE|DICT|INTERRES
    91   44  169 1    
    92   45   46 2    
    93   45   47 1    
    94   47   48 1    
    95   47   49 1    
    96   47  170 1    
    97   48  171 1    
    98   48  172 1    
    99   48  173 1    
   100   49   50 am   BACKBONE|DICT|INTERRES
   101   49  174 1    
   102   50   51 2    
   103   50   52 1    
   104   52   53 1    
   105   52   54 1    
   106   52  175 1    
   107   53  176 1    
   108   53  177 1    
   109   53  178 1    
   110   54   55 am   BACKBONE|DICT|INTERRES
   111   54  179 1    
   112   55   56 2    
   113   55   57 1    
   114   57   58 1    
   115   57   59 1    
   116   57  180 1    
   117   58  181 1    
   118   58  182 1    
   119   58  183 1    
   120   59   60 am   BACKBONE|DICT|INTERRES
   121   59  184 1    
   122   60   61 2    
   123   60   62 1    
   124   62   63 1    
   125   62   64 1    
   126   62  185 1    
   127   63  186 1    
   128   63  187 1    
   129   63  188 1    
   130   64   65 am   BACKBONE|DICT|INTERRES
   131   64  189 1    
   132   65   66 2    
   133   67   68 2    
   134   67   69 am   BACKBONE|DICT|INTERRES
   135   69   70 1    
   136   69  190 1    
   137   70   71 1    
   138   70   72 1    
   139   70  191 1    
   140   71  192 1    
   141   71  193 1    
   142   71  194 1    
   143   72   73 2    
   144   72   74 am   BACKBONE|DICT|INTERRES
   145   74   75 1    
   146   74  195 1    
   147   75   76 1    
   148   75   77 1    
   149   75  196 1    
   150   76  197 1    
   151   76  198 1    
   152   76  199 1    
   153   77   78 2    
   154   77   79 am   BACKBONE|DICT|INTERRES
   155   79   80 1    
   156   79  200 1    
   157   80   81 1    
   158   80   82 1    
   159   80  201 1    
   160   81  202 1    
   161   81  203 1    
   162   81  204 1    
   163   82   83 2    
   164   82   84 am   BACKBONE|DICT|INTERRES
   165   84   85 1    
   166   84  205 1    
   167   85   86 1    
   168   85   87 1    
   169   85  206 1    
   170   86  207 1    
   171   86  208 1    
   172   86  209 1    
   173   87   88 2    
   174   87   89 am   BACKBONE|DICT|INTERRES
   175   89   90 1    
   176   89  210 1    
   177   90   91 1    
   178   90   92 1    
   179   90  211 1    
   180   91  212 1    
   181   91  213 1    
   182   91  214 1    
   183   92   93 2    
   184   92   94 am   BACKBONE|DICT|INTERRES
   185   94   95 1    
   186   94  215 1    
   187   95   96 1    
   188   95   97 1    
   189   95  216 1    
   190   96  217 1    
   191   96  218 1    
   192   96  219 1    
   193   97   98 2    
   194   97   99 am   BACKBONE|DICT|INTERRES
   195   99  100 1    
   196   99  220 1    
   197  100  101 1    
   198  100  102 1    
   199  100  221 1    
   200  101  222 1    
   201  101  223 1    
   202  101  224 1    
   203  102  103 2    
   204  102  104 am   BACKBONE|DICT|INTERRES
   205  104  105 1    
   206  104  225 1    
   207  105  106 1    
   208  105  107 1    
   209  105  226 1    
   210  106  227 1    
   211  106  228 1    
   212  106  229 1    
   213  107  108 2    
   214  107  109 am   BACKBONE|DICT|INTERRES
   215  109  110 1    
   216  109  230 1    
   217  110  111 1    
   218  110  112 1    
   219  110  231 1    
   220  111  232 1    
   221  111  233 1    
   222  111  234 1    
   223  112  113 2    
   224  112  114 am   BACKBONE|DICT|INTERRES
   225  114  115 1    
   226  114  235 1    
   227  115  116 1    
   228  115  117 1    
   229  115  236 1    
   230  116  237 1    
   231  116  238 1    
   232  116  239 1    
   233  117  118 2    
   234  117  119 am   BACKBONE|DICT|INTERRES
   235  119  120 1    
   236  119  240 1    
   237  120  121 1    
   238  120  124 1    
   239  120  241 1    
   240  121  122 am   BACKBONE|DICT|INTERRES
   241  121  123 2    
   242  122  242 1    
   243  122  243 1    
   244  124  125 1    
   245  124  244 1    
   246  124  245 1    
   247  125  126 1    
   248  126  246 1    
   249  126  247 1    
@<TRIPOS>SUBSTRUCTURE
     1 UNK         1 GROUP             0       ****    0 ROOT    
