@<TRIPOS>MOLECULE
3R540
247   249    1
SMALL
USER_CHARGES


@<TRIPOS>ATOM
      1 CA         -5.7499  -16.9628  -48.3143 C.3       0 UNK        -0.1800 
      2 C          -4.9253  -15.7476  -48.7030 C.2       0 UNK         0.5000 
      3 O          -5.4930  -14.7435  -49.1319 O.2       0 UNK        -0.5000 
      4 N          -3.5963  -15.8232  -48.5415 N.am      1 UNK        -0.5000 
      5 CA         -2.6542  -14.7226  -48.8128 C.3       1 UNK         0.1400 
      6 C6         -1.1756  -15.1615  -48.6769 C.3       23 UNK        -0.0398 
      7 S7         -0.7372  -16.5566  -49.7602 S.3       23 UNK        -0.2404 
      8 C8          1.0687  -16.3543  -49.8595 C.3       23 UNK        -0.0205 
      9 C9          1.7468  -17.6777  -50.1738 C.ar      23 UNK        -0.0193 
     10 C10         1.8450  -18.1312  -51.4925 C.ar      23 UNK        -0.1150 
     11 C11         2.4437  -19.3632  -51.7767 C.ar      23 UNK        -0.0193 
     12 C12         2.9352  -20.1470  -50.7270 C.ar      23 UNK        -0.1150 
     13 C13         2.8330  -19.7075  -49.4041 C.ar      23 UNK        -0.0193 
     14 C14         2.2602  -18.4617  -49.1376 C.ar      23 UNK        -0.1150 
     15 C15         3.3044  -20.5862  -48.2569 C.3       23 UNK        -0.0205 
     16 S16         1.8801  -21.3261  -47.3970 S.3       23 UNK        -0.2404 
     17 C17         2.3327  -23.0925  -47.3546 C.3       23 UNK        -0.0398 
     18 CA          1.4975  -23.9400  -46.3592 C.3       11 UNK         0.1400 
     19 N           1.6762  -23.4758  -44.9846 N.am      11 UNK        -0.5000 
     20 C           1.6369  -24.2552  -43.8978 C.2       10 UNK         0.5000 
     21 O           1.4810  -25.4776  -43.9390 O.2       10 UNK        -0.5000 
     22 CA          1.8211  -23.5372  -42.5450 C.3       10 UNK         0.1400 
     23 CB          2.1567  -24.4929  -41.3816 C.3       10 UNK        -0.1800 
     24 N           2.7930  -22.4436  -42.6247 N.am      10 UNK        -0.5000 
     25 C           4.0993  -22.5136  -42.9202 C.2       9 UNK         0.5000 
     26 O           4.7132  -23.5637  -43.1119 O.2       9 UNK        -0.5000 
     27 CA          4.8457  -21.1697  -43.0372 C.3       9 UNK         0.1400 
     28 CB          4.9023  -20.7280  -44.5085 C.3       9 UNK        -0.1800 
     29 N           4.2312  -20.1032  -42.2422 N.am      9 UNK        -0.5000 
     30 C           4.2459  -20.0417  -40.9024 C.2       8 UNK         0.5000 
     31 O           4.8707  -20.8264  -40.1879 O.2       8 UNK        -0.5000 
     32 CA          3.3819  -18.9438  -40.2513 C.3       8 UNK         0.1400 
     33 CB          4.1134  -17.5935  -40.2549 C.3       8 UNK        -0.1800 
     34 N           2.0784  -18.8009  -40.9042 N.am      8 UNK        -0.5000 
     35 C           1.1190  -19.7385  -40.8981 C.2       7 UNK         0.5000 
     36 O           1.2001  -20.7978  -40.2773 O.2       7 UNK        -0.5000 
     37 CA         -0.1219  -19.4729  -41.7668 C.3       7 UNK         0.1400 
     38 CB         -1.1898  -18.6955  -40.9839 C.3       7 UNK        -0.1800 
     39 N           0.2147  -18.7591  -42.9985 N.am      7 UNK        -0.5000 
     40 C           0.8257  -19.3246  -44.0496 C.2       6 UNK         0.5000 
     41 O           1.1259  -20.5171  -44.1032 O.2       6 UNK        -0.5000 
     42 CA          1.1992  -18.3915  -45.2146 C.3       6 UNK         0.1400 
     43 CB          0.0149  -18.2229  -46.1757 C.3       6 UNK        -0.1800 
     44 N           1.6506  -17.0787  -44.7538 N.am      6 UNK        -0.5000 
     45 C           2.8069  -16.8780  -44.1047 C.2       5 UNK         0.5000 
     46 O           3.6087  -17.7766  -43.8545 O.2       5 UNK        -0.5000 
     47 CA          3.1060  -15.4506  -43.6095 C.3       5 UNK         0.1400 
     48 CB          3.8843  -14.6690  -44.6780 C.3       5 UNK        -0.1800 
     49 N           1.9145  -14.6899  -43.2340 N.am      5 UNK        -0.5000 
     50 C           1.0122  -15.0470  -42.3099 C.2       4 UNK         0.5000 
     51 O           1.0878  -16.0814  -41.6451 O.2       4 UNK        -0.5000 
     52 CA         -0.2088  -14.1196  -42.1337 C.3       4 UNK         0.1400 
     53 CB          0.0402  -12.6765  -42.6215 C.3       4 UNK        -0.1800 
     54 N          -1.4273  -14.6616  -42.7503 N.am      4 UNK        -0.5000 
     55 C          -1.5735  -15.1693  -43.9845 C.2       3 UNK         0.5000 
     56 O          -0.6740  -15.2496  -44.8207 O.2       3 UNK        -0.5000 
     57 CA         -2.9813  -15.6630  -44.3543 C.3       3 UNK         0.1400 
     58 CB         -3.2647  -17.0074  -43.6676 C.3       3 UNK        -0.1800 
     59 N          -4.0423  -14.7170  -43.9841 N.am      3 UNK        -0.5000 
     60 C          -4.3119  -13.4591  -44.3886 C.2       2 UNK         0.5000 
     61 O          -5.1684  -12.8026  -43.7996 O.2       2 UNK        -0.5000 
     62 CA         -3.6369  -12.7997  -45.6134 C.3       2 UNK         0.1400 
     63 CB         -2.3899  -11.9846  -45.2174 C.3       2 UNK        -0.1800 
     64 N          -3.3551  -13.7537  -46.6779 N.am      2 UNK        -0.5000 
     65 C          -2.8956  -13.4936  -47.9072 C.2       1 UNK         0.5000 
     66 O          -2.6579  -12.3633  -48.3345 O.2       1 UNK        -0.5000 
     67 C          -0.0022  -23.9871  -46.7268 C.2       11 UNK         0.5000 
     68 O          -0.8404  -23.4221  -46.0184 O.2       11 UNK        -0.5000 
     69 N          -0.3167  -24.6338  -47.8588 N.am      12 UNK        -0.5000 
     70 CA         -1.6742  -24.7624  -48.4032 C.3       12 UNK         0.1400 
     71 CB         -1.6313  -25.6596  -49.6495 C.3       12 UNK        -0.1800 
     72 C          -2.3459  -23.4165  -48.7418 C.2       12 UNK         0.5000 
     73 O          -3.5723  -23.3229  -48.7087 O.2       12 UNK        -0.5000 
     74 N          -1.5349  -22.3877  -49.0229 N.am      13 UNK        -0.5000 
     75 CA         -1.9780  -21.0290  -49.3334 C.3       13 UNK         0.1400 
     76 CB         -0.8342  -20.2791  -50.0240 C.3       13 UNK        -0.1800 
     77 C          -2.5232  -20.2438  -48.1218 C.2       13 UNK         0.5000 
     78 O          -2.9761  -19.1120  -48.2948 O.2       13 UNK        -0.5000 
     79 N          -2.4971  -20.8467  -46.9235 N.am      14 UNK        -0.5000 
     80 CA         -3.2003  -20.3499  -45.7422 C.3       14 UNK         0.1400 
     81 CB         -2.6582  -21.0613  -44.4941 C.3       14 UNK        -0.1800 
     82 C          -4.7298  -20.5280  -45.8454 C.2       14 UNK         0.5000 
     83 O          -5.4627  -19.7960  -45.1795 O.2       14 UNK        -0.5000 
     84 N          -5.1894  -21.4829  -46.6704 N.am      15 UNK        -0.5000 
     85 CA         -6.6006  -21.6769  -47.0049 C.3       15 UNK         0.1400 
     86 CB         -6.7774  -23.0487  -47.6726 C.3       15 UNK        -0.1800 
     87 C          -7.0980  -20.5609  -47.9398 C.2       15 UNK         0.5000 
     88 O          -6.3130  -20.0397  -48.7328 O.2       15 UNK        -0.5000 
     89 N          -8.3978  -20.2443  -47.8586 N.am      16 UNK        -0.5000 
     90 CA         -9.0640  -19.1114  -48.5188 C.3       16 UNK         0.1400 
     91 CB        -10.5510  -19.1223  -48.1316 C.3       16 UNK        -0.1800 
     92 C          -8.9136  -19.0257  -50.0532 C.2       16 UNK         0.5000 
     93 O          -9.0457  -17.9354  -50.6098 O.2       16 UNK        -0.5000 
     94 N          -8.6219  -20.1575  -50.7074 N.am      17 UNK        -0.5000 
     95 CA         -8.3072  -20.2430  -52.1357 C.3       17 UNK         0.1400 
     96 CB         -8.4205  -21.7122  -52.5731 C.3       17 UNK        -0.1800 
     97 C          -6.9139  -19.6851  -52.5013 C.2       17 UNK         0.5000 
     98 O          -6.6274  -19.5248  -53.6894 O.2       17 UNK        -0.5000 
     99 N          -6.0522  -19.4550  -51.4956 N.am      18 UNK        -0.5000 
    100 CA        -4.6687  -18.9704  -51.5928 C.3       18 UNK         0.1400 
    101 CB        -4.6366  -17.5126  -52.0957 C.3       18 UNK        -0.1800 
    102 C         -3.7593  -19.8976  -52.4264 C.2       18 UNK         0.5000 
    103 O         -2.7890  -19.4312  -53.0232 O.2       18 UNK        -0.5000 
    104 N         -4.1291  -21.1880  -52.4975 N.am      19 UNK        -0.5000 
    105 CA        -3.5473  -22.2443  -53.3354 C.3       19 UNK         0.1400 
    106 CB        -2.1499  -22.6348  -52.8111 C.3       19 UNK        -0.1800 
    107 C         -3.5317  -21.8999  -54.8429 C.2       19 UNK         0.5000 
    108 O         -2.6713  -22.3997  -55.5677 O.2       19 UNK        -0.5000 
    109 N         -4.4410  -21.0114  -55.2815 N.am      20 UNK        -0.5000 
    110 CA        -4.4761  -20.3717  -56.6035 C.3       20 UNK         0.1400 
    111 CB        -4.8717  -21.3898  -57.6929 C.3       20 UNK        -0.1800 
    112 C         -3.1651  -19.6156  -56.9256 C.2       20 UNK         0.5000 
    113 O         -2.6661  -19.6843  -58.0509 O.2       20 UNK        -0.5000 
    114 N         -2.5976  -18.9614  -55.8984 N.am      21 UNK        -0.5000 
    115 CA        -1.2938  -18.2859  -55.8730 C.3       21 UNK         0.1400 
    116 CB        -1.2869  -17.0651  -56.8160 C.3       21 UNK        -0.1800 
    117 C         -0.1049  -19.2420  -56.1193 C.2       21 UNK         0.5000 
    118 O          0.9621  -18.7973  -56.5456 O.2       21 UNK        -0.5000 
    119 N         -0.3186  -20.5378  -55.8542 N.am      22 UNK        -0.5000 
    120 CA         0.5950  -21.6606  -56.1154 C.3       22 UNK         0.1400 
    121 C          0.8084  -21.9661  -57.6305 C.2       22 UNK         0.5000 
    122 N         -0.0363  -21.4776  -58.5333 N.am      22 UNK        -0.7600 
    123 O          1.7366  -22.6813  -57.9988 O.2       22 UNK        -0.5000 
    124 C124        1.9261  -21.5850  -55.3157 C.3       23 UNK        -0.0398 
    125 S125        1.6634  -21.3860  -53.5176 S.3       23 UNK        -0.2404 
    126 C126        2.5736  -19.8385  -53.2167 C.3       23 UNK        -0.0205 
    127 H127       -6.2083  -17.3993  -49.2009 H         1 UNK         0.0600 
    128 H128       -5.1453  -17.7263  -47.8261 H         1 UNK         0.0600 
    129 H129       -6.5442  -16.6751  -47.6260 H         1 UNK         0.0600 
    130 H130       -3.1804  -16.7071  -48.2720 H         1 UNK         0.3000 
    131 H131       -2.8192  -14.4016  -49.8435 H         1 UNK         0.0600 
    132 H132       -0.5146  -14.3257  -48.9154 H         1 UNK         0.0800 
    133 H133       -0.9502  -15.4471  -47.6476 H         1 UNK         0.0800 
    134 H134        1.4488  -15.9612  -48.9150 H         1 UNK         0.0800 
    135 H135        1.3107  -15.6142  -50.6235 H         1 UNK         0.0800 
    136 H136        1.4477  -17.5253  -52.2947 H         1 UNK         0.1150 
    137 H137        3.3815  -21.1076  -50.9426 H         1 UNK         0.1150 
    138 H138        2.1834  -18.1206  -48.1162 H         1 UNK         0.1150 
    139 H139        3.9751  -21.3633  -48.6260 H         1 UNK         0.0800 
    140 H140        3.8819  -19.9914  -47.5479 H         1 UNK         0.0800 
    141 H141        3.3871  -23.1697  -47.0848 H         1 UNK         0.0800 
    142 H142        2.2571  -23.4940  -48.3662 H         1 UNK         0.0800 
    143 H143        1.8684  -24.9650  -46.4256 H         1 UNK         0.0600 
    144 H144        1.7097  -22.4701  -44.8572 H         1 UNK         0.3000 
    145 H145        0.8616  -23.0695  -42.3196 H         1 UNK         0.0600 
    146 H146        2.2722  -23.9453  -40.4460 H         1 UNK         0.0600 
    147 H147        1.3598  -25.2224  -41.2338 H         1 UNK         0.0600 
    148 H148        3.0778  -25.0473  -41.5628 H         1 UNK         0.0600 
    149 H149        2.3916  -21.5179  -42.5564 H         1 UNK         0.3000 
    150 H150        5.8670  -21.3213  -42.6819 H         1 UNK         0.0600 
    151 H151        5.3687  -21.4925  -45.1312 H         1 UNK         0.0600 
    152 H152        5.4845  -19.8138  -44.6243 H         1 UNK         0.0600 
    153 H153        3.9052  -20.5422  -44.9099 H         1 UNK         0.0600 
    154 H154        3.7668  -19.3641  -42.7625 H         1 UNK         0.3000 
    155 H155        3.2041  -19.2291  -39.2123 H         1 UNK         0.0600 
    156 H156        4.3766  -17.2805  -41.2645 H         1 UNK         0.0600 
    157 H157        5.0392  -17.6533  -39.6815 H         1 UNK         0.0600 
    158 H158        3.5020  -16.8094  -39.8076 H         1 UNK         0.0600 
    159 H159        1.8963  -17.9262  -41.3845 H         1 UNK         0.3000 
    160 H160       -0.5465  -20.4432  -42.0340 H         1 UNK         0.0600 
    161 H161       -2.1281  -18.6608  -41.5350 H         1 UNK         0.0600 
    162 H162       -0.8799  -17.6717  -40.7741 H         1 UNK         0.0600 
    163 H163       -1.4001  -19.1765  -40.0277 H         1 UNK         0.0600 
    164 H164        0.0848  -17.7576  -42.9934 H         1 UNK         0.3000 
    165 H165        2.0223  -18.8532  -45.7626 H         1 UNK         0.0600 
    166 H166        0.2461  -17.5211  -46.9752 H         1 UNK         0.0600 
    167 H167       -0.2317  -19.1751  -46.6433 H         1 UNK         0.0600 
    168 H168       -0.8788  -17.8630  -45.6682 H         1 UNK         0.0600 
    169 H169        1.0131  -16.2988  -44.8867 H         1 UNK         0.3000 
    170 H170        3.7346  -15.5326  -42.7216 H         1 UNK         0.0600 
    171 H171        4.7942  -15.1985  -44.9639 H         1 UNK         0.0600 
    172 H172        4.1834  -13.6874  -44.3102 H         1 UNK         0.0600 
    173 H173        3.2909  -14.5239  -45.5818 H         1 UNK         0.0600 
    174 H174        1.7415  -13.8449  -43.7581 H         1 UNK         0.3000 
    175 H175       -0.4003  -14.0735  -41.0606 H         1 UNK         0.0600 
    176 H176       -0.8157  -12.0386  -42.4016 H         1 UNK         0.0600 
    177 H177        0.9029  -12.2376  -42.1185 H         1 UNK         0.0600 
    178 H178        0.2236  -12.6262  -43.6943 H         1 UNK         0.0600 
    179 H179       -2.2408  -14.6618  -42.1517 H         1 UNK         0.3000 
    180 H180       -3.0040  -15.8672  -45.4230 H         1 UNK         0.0600 
    181 H181       -3.3600  -16.8971  -42.5870 H         1 UNK         0.0600 
    182 H182       -2.4666  -17.7261  -43.8541 H         1 UNK         0.0600 
    183 H183       -4.1899  -17.4499  -44.0379 H         1 UNK         0.0600 
    184 H184       -4.6105  -15.0436  -43.2169 H         1 UNK         0.3000 
    185 H185       -4.3711  -12.0969  -46.0128 H         1 UNK         0.0600 
    186 H186       -1.4964  -12.6035  -45.1875 H         1 UNK         0.0600 
    187 H187       -2.2032  -11.1851  -45.9341 H         1 UNK         0.0600 
    188 H188       -2.5085  -11.5132  -44.2409 H         1 UNK         0.0600 
    189 H189       -3.5898  -14.7113  -46.4640 H         1 UNK         0.3000 
    190 H190        0.4167  -25.0808  -48.3899 H         1 UNK         0.3000 
    191 H191       -2.2910  -25.2523  -47.6469 H         1 UNK         0.0600 
    192 H192       -1.2415  -26.6494  -49.4113 H         1 UNK         0.0600 
    193 H193       -1.0060  -25.2301  -50.4334 H         1 UNK         0.0600 
    194 H194       -2.6301  -25.7974  -50.0663 H         1 UNK         0.0600 
    195 H195       -0.5374  -22.5393  -48.9971 H         1 UNK         0.3000 
    196 H196       -2.8022  -21.1136  -50.0400 H         1 UNK         0.0600 
    197 H197       -1.1898  -19.3446  -50.4566 H         1 UNK         0.0600 
    198 H198       -0.3980  -20.8599  -50.8367 H         1 UNK         0.0600 
    199 H199       -0.0413  -20.0351  -49.3195 H         1 UNK         0.0600 
    200 H200       -2.0565  -21.7551  -46.8386 H         1 UNK         0.3000 
    201 H201       -2.9949  -19.2827  -45.6468 H         1 UNK         0.0600 
    202 H202       -1.5754  -20.9696  -44.4257 H         1 UNK         0.0600 
    203 H203       -2.8983  -22.1252  -44.5025 H         1 UNK         0.0600 
    204 H204       -3.0815  -20.6329  -43.5848 H         1 UNK         0.0600 
    205 H205       -4.5257  -22.0100  -47.2247 H         1 UNK         0.3000 
    206 H206       -7.1836  -21.6564  -46.0818 H         1 UNK         0.0600 
    207 H207       -7.8308  -23.2604  -47.8591 H         1 UNK         0.0600 
    208 H208       -6.2593  -23.0999  -48.6311 H         1 UNK         0.0600 
    209 H209       -6.3919  -23.8491  -47.0408 H         1 UNK         0.0600 
    210 H210       -8.9704  -20.7593  -47.2053 H         1 UNK         0.3000 
    211 H211       -8.6174  -18.2024  -48.1116 H         1 UNK         0.0600 
    212 H212      -11.0790  -18.2765  -48.5743 H         1 UNK         0.0600 
    213 H213      -10.6794  -19.0513  -47.0513 H         1 UNK         0.0600 
    214 H214      -11.0467  -20.0326  -48.4711 H         1 UNK         0.0600 
    215 H215       -8.5317  -21.0066  -50.1695 H         1 UNK         0.3000 
    216 H216       -9.0466  -19.6615  -52.6902 H         1 UNK         0.0600 
    217 H217       -8.2268  -21.8205  -53.6413 H         1 UNK         0.0600 
    218 H218       -9.4210  -22.1029  -52.3864 H         1 UNK         0.0600 
    219 H219       -7.7080  -22.3465  -52.0442 H         1 UNK         0.0600 
    220 H220       -6.3564  -19.6572  -50.5448 H         1 UNK         0.3000 
    221 H221       -4.2726  -18.9782  -50.5779 H         1 UNK         0.0600 
    222 H222       -5.3221  -16.8824  -51.5300 H         1 UNK         0.0600 
    223 H223       -3.6390  -17.0851  -51.9859 H         1 UNK         0.0600 
    224 H224       -4.9109  -17.4415  -53.1487 H         1 UNK         0.0600 
    225 H225       -4.9503  -21.4557  -51.9743 H         1 UNK         0.3000 
    226 H226       -4.1965  -23.1146  -53.2318 H         1 UNK         0.0600 
    227 H227       -2.1901  -22.9216  -51.7619 H         1 UNK         0.0600 
    228 H228       -1.7442  -23.4867  -53.3579 H         1 UNK         0.0600 
    229 H229       -1.4377  -21.8151  -52.9099 H         1 UNK         0.0600 
    230 H230       -5.1096  -20.6423  -54.6130 H         1 UNK         0.3000 
    231 H231       -5.2604  -19.6149  -56.5569 H         1 UNK         0.0600 
    232 H232       -5.8032  -21.8956  -57.4392 H         1 UNK         0.0600 
    233 H233       -4.1045  -22.1513  -57.8358 H         1 UNK         0.0600 
    234 H234       -5.0229  -20.8950  -58.6529 H         1 UNK         0.0600 
    235 H235       -3.0334  -19.0419  -54.9850 H         1 UNK         0.3000 
    236 H236       -1.1696  -17.9150  -54.8545 H         1 UNK         0.0600 
    237 H237       -0.3821  -16.4717  -56.6806 H         1 UNK         0.0600 
    238 H238       -1.3277  -17.3616  -57.8644 H         1 UNK         0.0600 
    239 H239       -2.1350  -16.4096  -56.6185 H         1 UNK         0.0600 
    240 H240       -1.2393  -20.8159  -55.5399 H         1 UNK         0.3000 
    241 H241        0.0648  -22.5382  -55.7447 H         1 UNK         0.0600 
    242 H242        0.1050  -21.6897  -59.5082 H         1 UNK         0.3800 
    243 H243       -0.8188  -20.8986  -58.2553 H         1 UNK         0.3800 
    244 H244        2.5021  -22.5009  -55.4559 H         1 UNK         0.0800 
    245 H245        2.5535  -20.7783  -55.6967 H         1 UNK         0.0800 
    246 H246        3.6289  -19.9902  -53.4476 H         1 UNK         0.0800 
    247 H247        2.2107  -19.0739  -53.9054 H         1 UNK         0.0800 
@<TRIPOS>BOND
     1    1    2 1    
     2    1  127 1    
     3    1  128 1    
     4    1  129 1    
     5    2    3 2    
     6    2    4 am   BACKBONE|DICT|INTERRES
     7    4    5 1    
     8    4  130 1    
     9    5    6 1    
    10    5   65 1    
    11    5  131 1    
    12    6    7 1    
    13    6  132 1    
    14    6  133 1    
    15    7    8 1    
    16    8    9 1    
    17    8  134 1    
    18    8  135 1    
    19    9   10 ar   
    20    9   14 ar   
    21   10   11 ar   
    22   10  136 1    
    23   11   12 ar   
    24   11  126 1    
    25   12   13 ar   
    26   12  137 1    
    27   13   14 ar   
    28   13   15 1    
    29   14  138 1    
    30   15   16 1    
    31   15  139 1    
    32   15  140 1    
    33   16   17 1    
    34   17   18 1    
    35   17  141 1    
    36   17  142 1    
    37   18   19 1    
    38   18   67 1    
    39   18  143 1    
    40   19   20 am   BACKBONE|DICT|INTERRES
    41   19  144 1    
    42   20   21 2    
    43   20   22 1    
    44   22   23 1    
    45   22   24 1    
    46   22  145 1    
    47   23  146 1    
    48   23  147 1    
    49   23  148 1    
    50   24   25 am   BACKBONE|DICT|INTERRES
    51   24  149 1    
    52   25   26 2    
    53   25   27 1    
    54   27   28 1    
    55   27   29 1    
    56   27  150 1    
    57   28  151 1    
    58   28  152 1    
    59   28  153 1    
    60   29   30 am   BACKBONE|DICT|INTERRES
    61   29  154 1    
    62   30   31 2    
    63   30   32 1    
    64   32   33 1    
    65   32   34 1    
    66   32  155 1    
    67   33  156 1    
    68   33  157 1    
    69   33  158 1    
    70   34   35 am   BACKBONE|DICT|INTERRES
    71   34  159 1    
    72   35   36 2    
    73   35   37 1    
    74   37   38 1    
    75   37   39 1    
    76   37  160 1    
    77   38  161 1    
    78   38  162 1    
    79   38  163 1    
    80   39   40 am   BACKBONE|DICT|INTERRES
    81   39  164 1    
    82   40   41 2    
    83   40   42 1    
    84   42   43 1    
    85   42   44 1    
    86   42  165 1    
    87   43  166 1    
    88   43  167 1    
    89   43  168 1    
    90   44   45 am   BACKBONE|DICT|INTERRES
    91   44  169 1    
    92   45   46 2    
    93   45   47 1    
    94   47   48 1    
    95   47   49 1    
    96   47  170 1    
    97   48  171 1    
    98   48  172 1    
    99   48  173 1    
   100   49   50 am   BACKBONE|DICT|INTERRES
   101   49  174 1    
   102   50   51 2    
   103   50   52 1    
   104   52   53 1    
   105   52   54 1    
   106   52  175 1    
   107   53  176 1    
   108   53  177 1    
   109   53  178 1    
   110   54   55 am   BACKBONE|DICT|INTERRES
   111   54  179 1    
   112   55   56 2    
   113   55   57 1    
   114   57   58 1    
   115   57   59 1    
   116   57  180 1    
   117   58  181 1    
   118   58  182 1    
   119   58  183 1    
   120   59   60 am   BACKBONE|DICT|INTERRES
   121   59  184 1    
   122   60   61 2    
   123   60   62 1    
   124   62   63 1    
   125   62   64 1    
   126   62  185 1    
   127   63  186 1    
   128   63  187 1    
   129   63  188 1    
   130   64   65 am   BACKBONE|DICT|INTERRES
   131   64  189 1    
   132   65   66 2    
   133   67   68 2    
   134   67   69 am   BACKBONE|DICT|INTERRES
   135   69   70 1    
   136   69  190 1    
   137   70   71 1    
   138   70   72 1    
   139   70  191 1    
   140   71  192 1    
   141   71  193 1    
   142   71  194 1    
   143   72   73 2    
   144   72   74 am   BACKBONE|DICT|INTERRES
   145   74   75 1    
   146   74  195 1    
   147   75   76 1    
   148   75   77 1    
   149   75  196 1    
   150   76  197 1    
   151   76  198 1    
   152   76  199 1    
   153   77   78 2    
   154   77   79 am   BACKBONE|DICT|INTERRES
   155   79   80 1    
   156   79  200 1    
   157   80   81 1    
   158   80   82 1    
   159   80  201 1    
   160   81  202 1    
   161   81  203 1    
   162   81  204 1    
   163   82   83 2    
   164   82   84 am   BACKBONE|DICT|INTERRES
   165   84   85 1    
   166   84  205 1    
   167   85   86 1    
   168   85   87 1    
   169   85  206 1    
   170   86  207 1    
   171   86  208 1    
   172   86  209 1    
   173   87   88 2    
   174   87   89 am   BACKBONE|DICT|INTERRES
   175   89   90 1    
   176   89  210 1    
   177   90   91 1    
   178   90   92 1    
   179   90  211 1    
   180   91  212 1    
   181   91  213 1    
   182   91  214 1    
   183   92   93 2    
   184   92   94 am   BACKBONE|DICT|INTERRES
   185   94   95 1    
   186   94  215 1    
   187   95   96 1    
   188   95   97 1    
   189   95  216 1    
   190   96  217 1    
   191   96  218 1    
   192   96  219 1    
   193   97   98 2    
   194   97   99 am   BACKBONE|DICT|INTERRES
   195   99  100 1    
   196   99  220 1    
   197  100  101 1    
   198  100  102 1    
   199  100  221 1    
   200  101  222 1    
   201  101  223 1    
   202  101  224 1    
   203  102  103 2    
   204  102  104 am   BACKBONE|DICT|INTERRES
   205  104  105 1    
   206  104  225 1    
   207  105  106 1    
   208  105  107 1    
   209  105  226 1    
   210  106  227 1    
   211  106  228 1    
   212  106  229 1    
   213  107  108 2    
   214  107  109 am   BACKBONE|DICT|INTERRES
   215  109  110 1    
   216  109  230 1    
   217  110  111 1    
   218  110  112 1    
   219  110  231 1    
   220  111  232 1    
   221  111  233 1    
   222  111  234 1    
   223  112  113 2    
   224  112  114 am   BACKBONE|DICT|INTERRES
   225  114  115 1    
   226  114  235 1    
   227  115  116 1    
   228  115  117 1    
   229  115  236 1    
   230  116  237 1    
   231  116  238 1    
   232  116  239 1    
   233  117  118 2    
   234  117  119 am   BACKBONE|DICT|INTERRES
   235  119  120 1    
   236  119  240 1    
   237  120  121 1    
   238  120  124 1    
   239  120  241 1    
   240  121  122 am   BACKBONE|DICT|INTERRES
   241  121  123 2    
   242  122  242 1    
   243  122  243 1    
   244  124  125 1    
   245  124  244 1    
   246  124  245 1    
   247  125  126 1    
   248  126  246 1    
   249  126  247 1    
@<TRIPOS>SUBSTRUCTURE
     1 UNK         1 GROUP             0       ****    0 ROOT    
