@<TRIPOS>MOLECULE
3R540
247   249    1
SMALL
USER_CHARGES


@<TRIPOS>ATOM
      1 CA         -4.8036  -20.8902  -43.6586 C.3       0 UNK        -0.1800 
      2 C          -4.0684  -19.6469  -44.1357 C.2       0 UNK         0.5000 
      3 O          -4.2067  -18.5886  -43.5250 O.2       0 UNK        -0.5000 
      4 N          -3.2790  -19.7671  -45.2098 N.am      1 UNK        -0.5000 
      5 CA         -2.4616  -18.6984  -45.7962 C.3       1 UNK         0.1400 
      6 C6         -1.7530  -19.1660  -47.0906 C.3       23 UNK        -0.0398 
      7 S7         -1.3287  -17.7759  -48.1870 S.3       23 UNK        -0.2404 
      8 C8         -1.7971  -18.4290  -49.8170 C.3       23 UNK        -0.0205 
      9 C9         -0.6646  -19.2269  -50.4388 C.ar      23 UNK        -0.0193 
     10 C10         0.2105  -18.6162  -51.3401 C.ar      23 UNK        -0.1150 
     11 C11         1.2690  -19.3327  -51.9017 C.ar      23 UNK        -0.0193 
     12 C12         1.4571  -20.6709  -51.5436 C.ar      23 UNK        -0.1150 
     13 C13         0.5811  -21.2966  -50.6517 C.ar      23 UNK        -0.0193 
     14 C14        -0.4850  -20.5724  -50.1112 C.ar      23 UNK        -0.1150 
     15 C15         0.7957  -22.7508  -50.2648 C.3       23 UNK        -0.0205 
     16 S16         1.8667  -22.9020  -48.7997 S.3       23 UNK        -0.2404 
     17 C17         0.7774  -22.2738  -47.4759 C.3       23 UNK        -0.0398 
     18 CA          1.1266  -22.8955  -46.1042 C.3       11 UNK         0.1400 
     19 N           2.4317  -22.4394  -45.6290 N.am      11 UNK        -0.5000 
     20 C           3.3093  -23.1913  -44.9532 C.2       10 UNK         0.5000 
     21 O           3.0561  -24.3276  -44.5504 O.2       10 UNK        -0.5000 
     22 CA          4.7083  -22.5932  -44.7033 C.3       10 UNK         0.1400 
     23 CB          5.7089  -23.1428  -45.7317 C.3       10 UNK        -0.1800 
     24 N           4.7182  -21.1315  -44.7759 N.am      10 UNK        -0.5000 
     25 C           4.3620  -20.3245  -43.7688 C.2       9 UNK         0.5000 
     26 O           4.0923  -20.7325  -42.6395 O.2       9 UNK        -0.5000 
     27 CA          4.2890  -18.8114  -44.0616 C.3       9 UNK         0.1400 
     28 CB          5.4675  -18.0783  -43.4027 C.3       9 UNK        -0.1800 
     29 N           4.2635  -18.4750  -45.4884 N.am      9 UNK        -0.5000 
     30 C           3.2394  -18.7010  -46.3215 C.2       8 UNK         0.5000 
     31 O           2.1962  -19.2665  -45.9908 O.2       8 UNK        -0.5000 
     32 CA          3.4486  -18.2644  -47.7832 C.3       8 UNK         0.1400 
     33 CB          3.2966  -19.4558  -48.7388 C.3       8 UNK        -0.1800 
     34 N           2.5367  -17.2029  -48.2045 N.am      8 UNK        -0.5000 
     35 C           2.5103  -15.9564  -47.7152 C.2       7 UNK         0.5000 
     36 O           3.2009  -15.5759  -46.7691 O.2       7 UNK        -0.5000 
     37 CA          1.5859  -14.9467  -48.4139 C.3       7 UNK         0.1400 
     38 CB          1.1488  -15.3641  -49.8366 C.3       7 UNK        -0.1800 
     39 N           0.4305  -14.6946  -47.5609 N.am      7 UNK        -0.5000 
     40 C          -0.3988  -13.6509  -47.6759 C.2       6 UNK         0.5000 
     41 O          -0.2828  -12.7709  -48.5300 O.2       6 UNK        -0.5000 
     42 CA         -1.5445  -13.5587  -46.6548 C.3       6 UNK         0.1400 
     43 CB         -2.7914  -14.3081  -47.1479 C.3       6 UNK        -0.1800 
     44 N          -1.1725  -14.0699  -45.3382 N.am      6 UNK        -0.5000 
     45 C          -0.4394  -13.4011  -44.4382 C.2       5 UNK         0.5000 
     46 O           0.0747  -12.3019  -44.6535 O.2       5 UNK        -0.5000 
     47 CA         -0.3052  -14.0740  -43.0558 C.3       5 UNK         0.1400 
     48 CB          0.2165  -13.1262  -41.9567 C.3       5 UNK        -0.1800 
     49 N          -1.5577  -14.7189  -42.6481 N.am      5 UNK        -0.5000 
     50 C          -2.7560  -14.1466  -42.4506 C.2       4 UNK         0.5000 
     51 O          -2.9550  -12.9315  -42.4580 O.2       4 UNK        -0.5000 
     52 CA         -3.9473  -15.1032  -42.2441 C.3       4 UNK         0.1400 
     53 CB         -4.7180  -15.2723  -43.5637 C.3       4 UNK        -0.1800 
     54 N          -3.5392  -16.4259  -41.7707 N.am      4 UNK        -0.5000 
     55 C          -3.0911  -16.6938  -40.5370 C.2       3 UNK         0.5000 
     56 O          -3.0661  -15.8712  -39.6209 O.2       3 UNK        -0.5000 
     57 CA         -2.5355  -18.1097  -40.3077 C.3       3 UNK         0.1400 
     58 CB         -3.6682  -19.1118  -40.0364 C.3       3 UNK        -0.1800 
     59 N          -1.7308  -18.5719  -41.4407 N.am      3 UNK        -0.5000 
     60 C          -0.5124  -18.1044  -41.7496 C.2       2 UNK         0.5000 
     61 O           0.0716  -17.2336  -41.1059 O.2       2 UNK        -0.5000 
     62 CA          0.1672  -18.7064  -42.9913 C.3       2 UNK         0.1400 
     63 CB          0.9290  -19.9768  -42.5978 C.3       2 UNK        -0.1800 
     64 N          -0.7760  -19.0282  -44.0588 N.am      2 UNK        -0.5000 
     65 C          -1.4489  -18.1264  -44.7847 C.2       1 UNK         0.5000 
     66 O          -1.3386  -16.9065  -44.6483 O.2       1 UNK        -0.5000 
     67 C           0.0535  -22.6171  -45.0370 C.2       11 UNK         0.5000 
     68 O          -0.7671  -21.7134  -45.1946 O.2       11 UNK        -0.5000 
     69 N           0.0860  -23.3953  -43.9499 N.am      12 UNK        -0.5000 
     70 CA         -0.9448  -23.3788  -42.9101 C.3       12 UNK         0.1400 
     71 CB         -0.3365  -23.8805  -41.5923 C.3       12 UNK        -0.1800 
     72 C          -2.1784  -24.2172  -43.2963 C.2       12 UNK         0.5000 
     73 O          -3.2799  -23.9149  -42.8381 O.2       12 UNK        -0.5000 
     74 N          -1.9734  -25.2598  -44.1148 N.am      13 UNK        -0.5000 
     75 CA         -3.0208  -26.1848  -44.5512 C.3       13 UNK         0.1400 
     76 CB         -2.3748  -27.5117  -44.9796 C.3       13 UNK        -0.1800 
     77 C          -3.8864  -25.6146  -45.6889 C.2       13 UNK         0.5000 
     78 O          -5.0975  -25.8388  -45.6993 O.2       13 UNK        -0.5000 
     79 N          -3.2536  -24.8984  -46.6269 N.am      14 UNK        -0.5000 
     80 CA         -3.9200  -24.2346  -47.7454 C.3       14 UNK         0.1400 
     81 CB         -2.9457  -24.1318  -48.9282 C.3       14 UNK        -0.1800 
     82 C          -4.3852  -22.8382  -47.3129 C.2       14 UNK         0.5000 
     83 O          -3.6195  -22.1253  -46.6633 O.2       14 UNK        -0.5000 
     84 N          -5.6154  -22.4710  -47.6885 N.am      15 UNK        -0.5000 
     85 CA         -6.2226  -21.1679  -47.4129 C.3       15 UNK         0.1400 
     86 CB         -7.7190  -21.2462  -47.7551 C.3       15 UNK        -0.1800 
     87 C          -5.5564  -20.0246  -48.2006 C.2       15 UNK         0.5000 
     88 O          -4.8978  -20.2731  -49.2113 O.2       15 UNK        -0.5000 
     89 N          -5.7934  -18.7815  -47.7574 N.am      16 UNK        -0.5000 
     90 CA         -5.2679  -17.5432  -48.3495 C.3       16 UNK         0.1400 
     91 CB         -5.7644  -16.3475  -47.5241 C.3       16 UNK        -0.1800 
     92 C          -5.5949  -17.3452  -49.8447 C.2       16 UNK         0.5000 
     93 O          -4.8204  -16.7085  -50.5593 O.2       16 UNK        -0.5000 
     94 N          -6.7081  -17.9367  -50.2995 N.am      17 UNK        -0.5000 
     95 CA         -7.1451  -17.9752  -51.6962 C.3       17 UNK         0.1400 
     96 CB         -8.5558  -18.5813  -51.7519 C.3       17 UNK        -0.1800 
     97 C          -6.1939  -18.7425  -52.6399 C.2       17 UNK         0.5000 
     98 O          -6.2631  -18.5361  -53.8527 O.2       17 UNK        -0.5000 
     99 N          -5.3122  -19.5936  -52.0895 N.am      18 UNK        -0.5000 
    100 CA        -4.3267  -20.3745  -52.8418 C.3       18 UNK         0.1400 
    101 CB        -3.6840  -21.4239  -51.9233 C.3       18 UNK        -0.1800 
    102 C         -3.2458  -19.5279  -53.5416 C.2       18 UNK         0.5000 
    103 O         -2.5971  -20.0426  -54.4513 O.2       18 UNK        -0.5000 
    104 N         -3.1017  -18.2451  -53.1684 N.am      19 UNK        -0.5000 
    105 CA        -2.1844  -17.2670  -53.7724 C.3       19 UNK         0.1400 
    106 CB        -2.3207  -15.9239  -53.0355 C.3       19 UNK        -0.1800 
    107 C         -2.3634  -17.0514  -55.2904 C.2       19 UNK         0.5000 
    108 O         -1.4502  -16.5431  -55.9411 O.2       19 UNK        -0.5000 
    109 N         -3.5206  -17.4535  -55.8326 N.am      20 UNK        -0.5000 
    110 CA        -3.8211  -17.4723  -57.2624 C.3       20 UNK         0.1400 
    111 CB        -5.3215  -17.7527  -57.4398 C.3       20 UNK        -0.1800 
    112 C         -2.9850  -18.4902  -58.0699 C.2       20 UNK         0.5000 
    113 O         -2.8953  -18.3395  -59.2896 O.2       20 UNK        -0.5000 
    114 N         -2.4050  -19.5019  -57.4056 N.am      21 UNK        -0.5000 
    115 CA        -1.6193  -20.5612  -58.0455 C.3       21 UNK         0.1400 
    116 CB        -2.5255  -21.7757  -58.3095 C.3       21 UNK        -0.1800 
    117 C         -0.3775  -20.9775  -57.2378 C.2       21 UNK         0.5000 
    118 O          0.6205  -21.3681  -57.8447 O.2       21 UNK        -0.5000 
    119 N         -0.4540  -20.9100  -55.9021 N.am      22 UNK        -0.5000 
    120 CA         0.5777  -21.3319  -54.9365 C.3       22 UNK         0.1400 
    121 C          0.8586  -22.8669  -54.9058 C.2       22 UNK         0.5000 
    122 N         -0.0175  -23.7105  -55.4384 N.am      22 UNK        -0.7600 
    123 O          1.8664  -23.3108  -54.3624 O.2       22 UNK        -0.5000 
    124 C124        1.8768  -20.4793  -55.0098 C.3       23 UNK        -0.0398 
    125 S125        1.5864  -18.7255  -54.5928 S.3       23 UNK        -0.2404 
    126 C126        2.2117  -18.6506  -52.8820 C.3       23 UNK        -0.0205 
    127 H127       -5.8805  -20.7415  -43.7322 H         1 UNK         0.0600 
    128 H128       -4.5568  -21.0944  -42.6169 H         1 UNK         0.0600 
    129 H129       -4.5385  -21.7711  -44.2419 H         1 UNK         0.0600 
    130 H130       -3.2100  -20.6760  -45.6690 H         1 UNK         0.3000 
    131 H131       -3.1555  -17.8944  -46.0492 H         1 UNK         0.0600 
    132 H132       -2.4024  -19.8529  -47.6337 H         1 UNK         0.0800 
    133 H133       -0.8443  -19.7266  -46.8737 H         1 UNK         0.0800 
    134 H134       -2.6979  -19.0358  -49.7476 H         1 UNK         0.0800 
    135 H135       -2.0589  -17.5888  -50.4559 H         1 UNK         0.0800 
    136 H136        0.0688  -17.5798  -51.6087 H         1 UNK         0.1150 
    137 H137        2.2839  -21.2292  -51.9592 H         1 UNK         0.1150 
    138 H138       -1.1665  -21.0491  -49.4218 H         1 UNK         0.1150 
    139 H139       -0.1592  -23.2452  -50.0854 H         1 UNK         0.0800 
    140 H140        1.2596  -23.2862  -51.0949 H         1 UNK         0.0800 
    141 H141       -0.2554  -22.5009  -47.7386 H         1 UNK         0.0800 
    142 H142        0.8556  -21.1871  -47.4409 H         1 UNK         0.0800 
    143 H143        1.1493  -23.9789  -46.2434 H         1 UNK         0.0600 
    144 H144        2.6699  -21.4826  -45.8541 H         1 UNK         0.3000 
    145 H145        5.0335  -22.9095  -43.7098 H         1 UNK         0.0600 
    146 H146        5.7536  -24.2319  -45.6899 H         1 UNK         0.0600 
    147 H147        5.4339  -22.8649  -46.7502 H         1 UNK         0.0600 
    148 H148        6.7156  -22.7702  -45.5411 H         1 UNK         0.0600 
    149 H149        4.9574  -20.7176  -45.6644 H         1 UNK         0.3000 
    150 H150        3.3656  -18.4404  -43.6131 H         1 UNK         0.0600 
    151 H151        6.4234  -18.3959  -43.8210 H         1 UNK         0.0600 
    152 H152        5.4985  -18.2713  -42.3294 H         1 UNK         0.0600 
    153 H153        5.3839  -16.9992  -43.5337 H         1 UNK         0.0600 
    154 H154        5.0795  -17.9974  -45.8437 H         1 UNK         0.3000 
    155 H155        4.4667  -17.8844  -47.8902 H         1 UNK         0.0600 
    156 H156        2.2663  -19.8088  -48.7691 H         1 UNK         0.0600 
    157 H157        3.9240  -20.2945  -48.4344 H         1 UNK         0.0600 
    158 H158        3.5842  -19.1864  -49.7551 H         1 UNK         0.0600 
    159 H159        1.8918  -17.4413  -48.9436 H         1 UNK         0.3000 
    160 H160        2.1582  -14.0206  -48.4985 H         1 UNK         0.0600 
    161 H161        0.4454  -16.1928  -49.8122 H         1 UNK         0.0600 
    162 H162        2.0028  -15.6615  -50.4467 H         1 UNK         0.0600 
    163 H163        0.6614  -14.5410  -50.3585 H         1 UNK         0.0600 
    164 H164        0.2788  -15.3573  -46.8127 H         1 UNK         0.3000 
    165 H165       -1.8085  -12.5036  -46.5546 H         1 UNK         0.0600 
    166 H166       -3.0716  -13.9898  -48.1529 H         1 UNK         0.0600 
    167 H167       -2.6312  -15.3850  -47.1760 H         1 UNK         0.0600 
    168 H168       -3.6440  -14.1168  -46.4962 H         1 UNK         0.0600 
    169 H169       -1.4976  -15.0001  -45.0916 H         1 UNK         0.3000 
    170 H170        0.4251  -14.8757  -43.1755 H         1 UNK         0.0600 
    171 H171        1.2105  -12.7525  -42.2046 H         1 UNK         0.0600 
    172 H172       -0.4331  -12.2610  -41.8222 H         1 UNK         0.0600 
    173 H173        0.2931  -13.6412  -40.9990 H         1 UNK         0.0600 
    174 H174       -1.5367  -15.7295  -42.6621 H         1 UNK         0.3000 
    175 H175       -4.6148  -14.6565  -41.5045 H         1 UNK         0.0600 
    176 H176       -5.5970  -15.9031  -43.4296 H         1 UNK         0.0600 
    177 H177       -5.0619  -14.3100  -43.9451 H         1 UNK         0.0600 
    178 H178       -4.0953  -15.7284  -44.3348 H         1 UNK         0.0600 
    179 H179       -3.5981  -17.1857  -42.4455 H         1 UNK         0.3000 
    180 H180       -1.8939  -18.0785  -39.4243 H         1 UNK         0.0600 
    181 H181       -4.3612  -19.1795  -40.8751 H         1 UNK         0.0600 
    182 H182       -4.2458  -18.8155  -39.1600 H         1 UNK         0.0600 
    183 H183       -3.2751  -20.1102  -39.8438 H         1 UNK         0.0600 
    184 H184       -2.1549  -19.2522  -42.0532 H         1 UNK         0.3000 
    185 H185        0.8813  -17.9771  -43.3795 H         1 UNK         0.0600 
    186 H186        1.4173  -20.4260  -43.4615 H         1 UNK         0.0600 
    187 H187        1.7005  -19.7526  -41.8606 H         1 UNK         0.0600 
    188 H188        0.2706  -20.7248  -42.1583 H         1 UNK         0.0600 
    189 H189       -0.8937  -20.0100  -44.2953 H         1 UNK         0.3000 
    190 H190        0.8368  -24.0674  -43.8530 H         1 UNK         0.3000 
    191 H191       -1.2884  -22.3542  -42.7547 H         1 UNK         0.0600 
    192 H192        0.0254  -24.9057  -41.6793 H         1 UNK         0.0600 
    193 H193       -1.0737  -23.8586  -40.7886 H         1 UNK         0.0600 
    194 H194        0.5004  -23.2544  -41.2821 H         1 UNK         0.0600 
    195 H195       -1.0348  -25.4496  -44.4314 H         1 UNK         0.3000 
    196 H196       -3.6795  -26.3917  -43.7048 H         1 UNK         0.0600 
    197 H197       -3.1326  -28.2311  -45.2930 H         1 UNK         0.0600 
    198 H198       -1.8205  -27.9638  -44.1569 H         1 UNK         0.0600 
    199 H199       -1.6861  -27.3762  -45.8145 H         1 UNK         0.0600 
    200 H200       -2.2727  -24.7017  -46.5060 H         1 UNK         0.3000 
    201 H201       -4.7823  -24.8252  -48.0626 H         1 UNK         0.0600 
    202 H202       -3.4303  -23.6775  -49.7930 H         1 UNK         0.0600 
    203 H203       -2.0809  -23.5186  -48.6813 H         1 UNK         0.0600 
    204 H204       -2.5869  -25.1146  -49.2339 H         1 UNK         0.0600 
    205 H205       -6.1622  -23.1048  -48.2520 H         1 UNK         0.3000 
    206 H206       -6.1148  -20.9588  -46.3473 H         1 UNK         0.0600 
    207 H207       -8.2125  -22.0346  -47.1864 H         1 UNK         0.0600 
    208 H208       -8.2301  -20.3124  -47.5175 H         1 UNK         0.0600 
    209 H209       -7.8792  -21.4472  -48.8154 H         1 UNK         0.0600 
    210 H210       -6.3680  -18.6637  -46.9356 H         1 UNK         0.3000 
    211 H211       -4.1832  -17.5789  -48.2679 H         1 UNK         0.0600 
    212 H212       -6.8537  -16.3002  -47.5001 H         1 UNK         0.0600 
    213 H213       -5.4063  -15.4063  -47.9429 H         1 UNK         0.0600 
    214 H214       -5.4062  -16.4019  -46.4958 H         1 UNK         0.0600 
    215 H215       -7.2760  -18.4444  -49.6380 H         1 UNK         0.3000 
    216 H216       -7.1980  -16.9463  -52.0576 H         1 UNK         0.0600 
    217 H217       -8.9341  -18.6000  -52.7749 H         1 UNK         0.0600 
    218 H218       -9.2603  -17.9985  -51.1582 H         1 UNK         0.0600 
    219 H219       -8.5675  -19.6062  -51.3787 H         1 UNK         0.0600 
    220 H220       -5.3004  -19.7149  -51.0811 H         1 UNK         0.3000 
    221 H221       -4.8644  -20.9081  -53.6282 H         1 UNK         0.0600 
    222 H222       -3.1367  -20.9599  -51.1047 H         1 UNK         0.0600 
    223 H223       -4.4374  -22.0818  -51.4903 H         1 UNK         0.0600 
    224 H224       -2.9798  -22.0506  -52.4723 H         1 UNK         0.0600 
    225 H225       -3.6966  -17.8992  -52.4273 H         1 UNK         0.3000 
    226 H226       -1.1695  -17.6402  -53.6326 H         1 UNK         0.0600 
    227 H227       -1.6848  -15.1609  -53.4867 H         1 UNK         0.0600 
    228 H228       -3.3466  -15.5546  -53.0645 H         1 UNK         0.0600 
    229 H229       -2.0234  -16.0008  -51.9917 H         1 UNK         0.0600 
    230 H230       -4.2234  -17.8445  -55.2197 H         1 UNK         0.3000 
    231 H231       -3.6071  -16.4804  -57.6657 H         1 UNK         0.0600 
    232 H232       -5.5984  -18.7260  -57.0321 H         1 UNK         0.0600 
    233 H233       -5.6007  -17.7457  -58.4942 H         1 UNK         0.0600 
    234 H234       -5.9266  -16.9962  -56.9394 H         1 UNK         0.0600 
    235 H235       -2.5139  -19.5522  -56.3987 H         1 UNK         0.3000 
    236 H236       -1.2417  -20.2063  -59.0070 H         1 UNK         0.0600 
    237 H237       -1.9672  -22.5897  -58.7738 H         1 UNK         0.0600 
    238 H238       -2.9618  -22.1580  -57.3858 H         1 UNK         0.0600 
    239 H239       -3.3425  -21.5176  -58.9835 H         1 UNK         0.0600 
    240 H240       -1.3162  -20.5927  -55.4630 H         1 UNK         0.3000 
    241 H241        0.1264  -21.1406  -53.9631 H         1 UNK         0.0600 
    242 H242        0.1657  -24.7010  -55.4054 H         1 UNK         0.3800 
    243 H243       -0.8586  -23.3692  -55.8739 H         1 UNK         0.3800 
    244 H244        2.3160  -20.5314  -56.0061 H         1 UNK         0.0800 
    245 H245        2.6416  -20.8678  -54.3369 H         1 UNK         0.0800 
    246 H246        3.2077  -19.0924  -52.8278 H         1 UNK         0.0800 
    247 H247        2.3330  -17.6034  -52.6010 H         1 UNK         0.0800 
@<TRIPOS>BOND
     1    1    2 1    
     2    1  127 1    
     3    1  128 1    
     4    1  129 1    
     5    2    3 2    
     6    2    4 am   BACKBONE|DICT|INTERRES
     7    4    5 1    
     8    4  130 1    
     9    5    6 1    
    10    5   65 1    
    11    5  131 1    
    12    6    7 1    
    13    6  132 1    
    14    6  133 1    
    15    7    8 1    
    16    8    9 1    
    17    8  134 1    
    18    8  135 1    
    19    9   10 ar   
    20    9   14 ar   
    21   10   11 ar   
    22   10  136 1    
    23   11   12 ar   
    24   11  126 1    
    25   12   13 ar   
    26   12  137 1    
    27   13   14 ar   
    28   13   15 1    
    29   14  138 1    
    30   15   16 1    
    31   15  139 1    
    32   15  140 1    
    33   16   17 1    
    34   17   18 1    
    35   17  141 1    
    36   17  142 1    
    37   18   19 1    
    38   18   67 1    
    39   18  143 1    
    40   19   20 am   BACKBONE|DICT|INTERRES
    41   19  144 1    
    42   20   21 2    
    43   20   22 1    
    44   22   23 1    
    45   22   24 1    
    46   22  145 1    
    47   23  146 1    
    48   23  147 1    
    49   23  148 1    
    50   24   25 am   BACKBONE|DICT|INTERRES
    51   24  149 1    
    52   25   26 2    
    53   25   27 1    
    54   27   28 1    
    55   27   29 1    
    56   27  150 1    
    57   28  151 1    
    58   28  152 1    
    59   28  153 1    
    60   29   30 am   BACKBONE|DICT|INTERRES
    61   29  154 1    
    62   30   31 2    
    63   30   32 1    
    64   32   33 1    
    65   32   34 1    
    66   32  155 1    
    67   33  156 1    
    68   33  157 1    
    69   33  158 1    
    70   34   35 am   BACKBONE|DICT|INTERRES
    71   34  159 1    
    72   35   36 2    
    73   35   37 1    
    74   37   38 1    
    75   37   39 1    
    76   37  160 1    
    77   38  161 1    
    78   38  162 1    
    79   38  163 1    
    80   39   40 am   BACKBONE|DICT|INTERRES
    81   39  164 1    
    82   40   41 2    
    83   40   42 1    
    84   42   43 1    
    85   42   44 1    
    86   42  165 1    
    87   43  166 1    
    88   43  167 1    
    89   43  168 1    
    90   44   45 am   BACKBONE|DICT|INTERRES
    91   44  169 1    
    92   45   46 2    
    93   45   47 1    
    94   47   48 1    
    95   47   49 1    
    96   47  170 1    
    97   48  171 1    
    98   48  172 1    
    99   48  173 1    
   100   49   50 am   BACKBONE|DICT|INTERRES
   101   49  174 1    
   102   50   51 2    
   103   50   52 1    
   104   52   53 1    
   105   52   54 1    
   106   52  175 1    
   107   53  176 1    
   108   53  177 1    
   109   53  178 1    
   110   54   55 am   BACKBONE|DICT|INTERRES
   111   54  179 1    
   112   55   56 2    
   113   55   57 1    
   114   57   58 1    
   115   57   59 1    
   116   57  180 1    
   117   58  181 1    
   118   58  182 1    
   119   58  183 1    
   120   59   60 am   BACKBONE|DICT|INTERRES
   121   59  184 1    
   122   60   61 2    
   123   60   62 1    
   124   62   63 1    
   125   62   64 1    
   126   62  185 1    
   127   63  186 1    
   128   63  187 1    
   129   63  188 1    
   130   64   65 am   BACKBONE|DICT|INTERRES
   131   64  189 1    
   132   65   66 2    
   133   67   68 2    
   134   67   69 am   BACKBONE|DICT|INTERRES
   135   69   70 1    
   136   69  190 1    
   137   70   71 1    
   138   70   72 1    
   139   70  191 1    
   140   71  192 1    
   141   71  193 1    
   142   71  194 1    
   143   72   73 2    
   144   72   74 am   BACKBONE|DICT|INTERRES
   145   74   75 1    
   146   74  195 1    
   147   75   76 1    
   148   75   77 1    
   149   75  196 1    
   150   76  197 1    
   151   76  198 1    
   152   76  199 1    
   153   77   78 2    
   154   77   79 am   BACKBONE|DICT|INTERRES
   155   79   80 1    
   156   79  200 1    
   157   80   81 1    
   158   80   82 1    
   159   80  201 1    
   160   81  202 1    
   161   81  203 1    
   162   81  204 1    
   163   82   83 2    
   164   82   84 am   BACKBONE|DICT|INTERRES
   165   84   85 1    
   166   84  205 1    
   167   85   86 1    
   168   85   87 1    
   169   85  206 1    
   170   86  207 1    
   171   86  208 1    
   172   86  209 1    
   173   87   88 2    
   174   87   89 am   BACKBONE|DICT|INTERRES
   175   89   90 1    
   176   89  210 1    
   177   90   91 1    
   178   90   92 1    
   179   90  211 1    
   180   91  212 1    
   181   91  213 1    
   182   91  214 1    
   183   92   93 2    
   184   92   94 am   BACKBONE|DICT|INTERRES
   185   94   95 1    
   186   94  215 1    
   187   95   96 1    
   188   95   97 1    
   189   95  216 1    
   190   96  217 1    
   191   96  218 1    
   192   96  219 1    
   193   97   98 2    
   194   97   99 am   BACKBONE|DICT|INTERRES
   195   99  100 1    
   196   99  220 1    
   197  100  101 1    
   198  100  102 1    
   199  100  221 1    
   200  101  222 1    
   201  101  223 1    
   202  101  224 1    
   203  102  103 2    
   204  102  104 am   BACKBONE|DICT|INTERRES
   205  104  105 1    
   206  104  225 1    
   207  105  106 1    
   208  105  107 1    
   209  105  226 1    
   210  106  227 1    
   211  106  228 1    
   212  106  229 1    
   213  107  108 2    
   214  107  109 am   BACKBONE|DICT|INTERRES
   215  109  110 1    
   216  109  230 1    
   217  110  111 1    
   218  110  112 1    
   219  110  231 1    
   220  111  232 1    
   221  111  233 1    
   222  111  234 1    
   223  112  113 2    
   224  112  114 am   BACKBONE|DICT|INTERRES
   225  114  115 1    
   226  114  235 1    
   227  115  116 1    
   228  115  117 1    
   229  115  236 1    
   230  116  237 1    
   231  116  238 1    
   232  116  239 1    
   233  117  118 2    
   234  117  119 am   BACKBONE|DICT|INTERRES
   235  119  120 1    
   236  119  240 1    
   237  120  121 1    
   238  120  124 1    
   239  120  241 1    
   240  121  122 am   BACKBONE|DICT|INTERRES
   241  121  123 2    
   242  122  242 1    
   243  122  243 1    
   244  124  125 1    
   245  124  244 1    
   246  124  245 1    
   247  125  126 1    
   248  126  246 1    
   249  126  247 1    
@<TRIPOS>SUBSTRUCTURE
     1 UNK         1 GROUP             0       ****    0 ROOT    
