@<TRIPOS>MOLECULE
3R540
247   249    1
SMALL
USER_CHARGES


@<TRIPOS>ATOM
      1 CA          1.0957  -12.3402  -53.4233 C.3       0 UNK        -0.1800 
      2 C           0.5861  -12.7110  -52.0374 C.2       0 UNK         0.5000 
      3 O           1.3778  -13.1020  -51.1793 O.2       0 UNK        -0.5000 
      4 N          -0.7294  -12.5897  -51.8195 N.am      1 UNK        -0.5000 
      5 CA         -1.3928  -12.8571  -50.5408 C.3       1 UNK         0.1400 
      6 C6         -2.9263  -12.9907  -50.7208 C.3       23 UNK        -0.0398 
      7 S7         -3.6880  -14.0054  -49.4083 S.3       23 UNK        -0.2404 
      8 C8         -3.9140  -15.6047  -50.2550 C.3       23 UNK        -0.0205 
      9 C9         -2.5985  -16.1901  -50.7516 C.ar      23 UNK        -0.0193 
     10 C10        -2.3627  -16.3470  -52.1201 C.ar      23 UNK        -0.1150 
     11 C11        -1.1471  -16.8670  -52.5736 C.ar      23 UNK        -0.0193 
     12 C12        -0.1561  -17.2111  -51.6497 C.ar      23 UNK        -0.1150 
     13 C13        -0.3807  -17.0616  -50.2794 C.ar      23 UNK        -0.0193 
     14 C14        -1.6122  -16.5706  -49.8390 C.ar      23 UNK        -0.1150 
     15 C15         0.7182  -17.3997  -49.2824 C.3       23 UNK        -0.0205 
     16 S16         0.9133  -19.1938  -49.0533 S.3       23 UNK        -0.2404 
     17 C17        -0.6534  -19.6255  -48.2302 C.3       23 UNK        -0.0398 
     18 CA         -0.5442  -20.9169  -47.3876 C.3       11 UNK         0.1400 
     19 N           0.4053  -20.8158  -46.2730 N.am      11 UNK        -0.5000 
     20 C           1.5118  -21.5627  -46.1678 C.2       10 UNK         0.5000 
     21 O           1.9170  -22.3232  -47.0484 O.2       10 UNK        -0.5000 
     22 CA          2.2959  -21.4804  -44.8438 C.3       10 UNK         0.1400 
     23 CB          3.3006  -20.3210  -44.8982 C.3       10 UNK        -0.1800 
     24 N           1.4901  -21.3717  -43.6209 N.am      10 UNK        -0.5000 
     25 C           0.4595  -22.1615  -43.2737 C.2       9 UNK         0.5000 
     26 O          -0.0439  -22.9971  -44.0247 O.2       9 UNK        -0.5000 
     27 CA         -0.1137  -21.9888  -41.8489 C.3       9 UNK         0.1400 
     28 CB         -0.9129  -23.2181  -41.3696 C.3       9 UNK        -0.1800 
     29 N           0.8871  -21.6087  -40.8497 N.am      9 UNK        -0.5000 
     30 C           2.0253  -22.2470  -40.5309 C.2       8 UNK         0.5000 
     31 O           2.3449  -23.3459  -40.9868 O.2       8 UNK        -0.5000 
     32 CA          2.9730  -21.5164  -39.5477 C.3       8 UNK         0.1400 
     33 CB          4.4592  -21.8281  -39.8214 C.3       8 UNK        -0.1800 
     34 N           2.7514  -20.0628  -39.4892 N.am      8 UNK        -0.5000 
     35 C           2.8325  -19.1962  -40.5101 C.2       7 UNK         0.5000 
     36 O           3.1846  -19.5020  -41.6498 O.2       7 UNK        -0.5000 
     37 CA          2.3215  -17.7722  -40.2323 C.3       7 UNK         0.1400 
     38 CB          3.3576  -16.7102  -40.6328 C.3       7 UNK        -0.1800 
     39 N           1.0686  -17.5332  -40.9517 N.am      7 UNK        -0.5000 
     40 C          -0.0837  -18.1830  -40.7288 C.2       6 UNK         0.5000 
     41 O          -0.2180  -19.0465  -39.8610 O.2       6 UNK        -0.5000 
     42 CA         -1.2871  -17.8348  -41.6204 C.3       6 UNK         0.1400 
     43 CB         -2.2398  -16.8825  -40.8828 C.3       6 UNK        -0.1800 
     44 N          -0.8878  -17.2157  -42.8809 N.am      6 UNK        -0.5000 
     45 C          -0.6344  -17.8824  -44.0152 C.2       5 UNK         0.5000 
     46 O          -0.7043  -19.1079  -44.1380 O.2       5 UNK        -0.5000 
     47 CA         -0.2576  -17.0239  -45.2350 C.3       5 UNK         0.1400 
     48 CB         -1.5447  -16.5551  -45.9270 C.3       5 UNK        -0.1800 
     49 N           0.5394  -15.8430  -44.9019 N.am      5 UNK        -0.5000 
     50 C           1.7319  -15.8524  -44.2872 C.2       4 UNK         0.5000 
     51 O           2.3472  -16.8825  -44.0243 O.2       4 UNK        -0.5000 
     52 CA          2.3257  -14.4958  -43.8487 C.3       4 UNK         0.1400 
     53 CB          3.4691  -14.0847  -44.7884 C.3       4 UNK        -0.1800 
     54 N           1.3541  -13.4017  -43.7863 N.am      4 UNK        -0.5000 
     55 C           0.2358  -13.3684  -43.0460 C.2       3 UNK         0.5000 
     56 O          -0.0737  -14.2453  -42.2374 O.2       3 UNK        -0.5000 
     57 CA         -0.7328  -12.1956  -43.3141 C.3       3 UNK         0.1400 
     58 CB         -0.5689  -11.1107  -42.2395 C.3       3 UNK        -0.1800 
     59 N          -0.5881  -11.5812  -44.6436 N.am      3 UNK        -0.5000 
     60 C          -0.7305  -12.2206  -45.8140 C.2       2 UNK         0.5000 
     61 O          -1.0004  -13.4212  -45.9039 O.2       2 UNK        -0.5000 
     62 CA         -0.4677  -11.4022  -47.0875 C.3       2 UNK         0.1400 
     63 CB          1.0165  -10.9935  -47.1806 C.3       2 UNK        -0.1800 
     64 N          -0.8326  -12.2175  -48.2417 N.am      2 UNK        -0.5000 
     65 C          -1.0295  -11.7843  -49.4901 C.2       1 UNK         0.5000 
     66 O          -0.9518  -10.5990  -49.8251 O.2       1 UNK        -0.5000 
     67 C          -1.9286  -21.3565  -46.8828 C.2       11 UNK         0.5000 
     68 O          -2.6732  -21.9523  -47.6582 O.2       11 UNK        -0.5000 
     69 N          -2.2622  -21.1094  -45.6060 N.am      12 UNK        -0.5000 
     70 CA         -3.5338  -21.5185  -45.0013 C.3       12 UNK         0.1400 
     71 CB         -3.6272  -20.9657  -43.5728 C.3       12 UNK        -0.1800 
     72 C          -3.7664  -23.0443  -45.0218 C.2       12 UNK         0.5000 
     73 O          -4.9009  -23.4794  -45.2250 O.2       12 UNK        -0.5000 
     74 N          -2.6878  -23.8287  -44.8765 N.am      13 UNK        -0.5000 
     75 CA         -2.7059  -25.2882  -44.9964 C.3       13 UNK         0.1400 
     76 CB         -1.3988  -25.8641  -44.4319 C.3       13 UNK        -0.1800 
     77 C          -2.9263  -25.7818  -46.4402 C.2       13 UNK         0.5000 
     78 O          -3.3896  -26.9081  -46.6244 O.2       13 UNK        -0.5000 
     79 N          -2.6324  -24.9398  -47.4422 N.am      14 UNK        -0.5000 
     80 CA         -2.8397  -25.2124  -48.8654 C.3       14 UNK         0.1400 
     81 CB         -1.8023  -24.4298  -49.6938 C.3       14 UNK        -0.1800 
     82 C          -4.2941  -24.9002  -49.2700 C.2       14 UNK         0.5000 
     83 O          -4.5308  -24.0922  -50.1707 O.2       14 UNK        -0.5000 
     84 N          -5.2412  -25.5425  -48.5709 N.am      15 UNK        -0.5000 
     85 CA         -6.6942  -25.4609  -48.7439 C.3       15 UNK         0.1400 
     86 CB         -7.1049  -26.1390  -50.0685 C.3       15 UNK        -0.1800 
     87 C          -7.2301  -24.0203  -48.6143 C.2       15 UNK         0.5000 
     88 O          -7.9546  -23.5541  -49.4930 O.2       15 UNK        -0.5000 
     89 N          -6.8233  -23.3194  -47.5434 N.am      16 UNK        -0.5000 
     90 CA         -7.1144  -21.9027  -47.2762 C.3       16 UNK         0.1400 
     91 CB         -8.6150  -21.6898  -46.9857 C.3       16 UNK        -0.1800 
     92 C          -6.5698  -20.9754  -48.3855 C.2       16 UNK         0.5000 
     93 O          -7.2314  -20.0146  -48.7808 O.2       16 UNK        -0.5000 
     94 N          -5.3716  -21.3189  -48.8762 N.am      17 UNK        -0.5000 
     95 CA         -4.6202  -20.7021  -49.9694 C.3       17 UNK         0.1400 
     96 CB         -4.2812  -19.2324  -49.6591 C.3       17 UNK        -0.1800 
     97 C          -5.2412  -20.8889  -51.3689 C.2       17 UNK         0.5000 
     98 O          -4.7867  -20.2446  -52.3144 O.2       17 UNK        -0.5000 
     99 N          -6.2195  -21.7947  -51.5171 N.am      18 UNK        -0.5000 
    100 CA        -6.7880  -22.1668  -52.8160 C.3       18 UNK         0.1400 
    101 CB        -8.1058  -22.9270  -52.6119 C.3       18 UNK        -0.1800 
    102 C         -5.8149  -22.9976  -53.6756 C.2       18 UNK         0.5000 
    103 O         -5.9092  -22.9510  -54.9026 O.2       18 UNK        -0.5000 
    104 N         -4.8958  -23.7248  -53.0253 N.am      19 UNK        -0.5000 
    105 CA        -3.8554  -24.5337  -53.6615 C.3       19 UNK         0.1400 
    106 CB        -3.8667  -25.9386  -53.0328 C.3       19 UNK        -0.1800 
    107 C         -2.4637  -23.8734  -53.5644 C.2       19 UNK         0.5000 
    108 O         -1.4637  -24.5390  -53.8397 O.2       19 UNK        -0.5000 
    109 N         -2.4043  -22.5901  -53.1759 N.am      20 UNK        -0.5000 
    110 CA        -1.1768  -21.7902  -53.1473 C.3       20 UNK         0.1400 
    111 CB        -1.4079  -20.5386  -52.2875 C.3       20 UNK        -0.1800 
    112 C         -0.6941  -21.4137  -54.5652 C.2       20 UNK         0.5000 
    113 O         -1.4519  -21.5347  -55.5309 O.2       20 UNK        -0.5000 
    114 N          0.5713  -20.9835  -54.6558 N.am      21 UNK        -0.5000 
    115 CA         1.2795  -20.6685  -55.8973 C.3       21 UNK         0.1400 
    116 CB         2.7961  -20.7519  -55.6305 C.3       21 UNK        -0.1800 
    117 C          0.8366  -19.3244  -56.5185 C.2       21 UNK         0.5000 
    118 O         -0.2012  -19.2748  -57.1788 O.2       21 UNK        -0.5000 
    119 N          1.6472  -18.2709  -56.3357 N.am      22 UNK        -0.5000 
    120 CA         1.4966  -16.9339  -56.9493 C.3       22 UNK         0.1400 
    121 C          1.6798  -16.9080  -58.5011 C.2       22 UNK         0.5000 
    122 N          2.2902  -17.9158  -59.1133 N.am      22 UNK        -0.7600 
    123 O          1.2975  -15.9475  -59.1644 O.2       22 UNK        -0.5000 
    124 C124        0.2170  -16.1780  -56.4863 C.3       23 UNK        -0.0398 
    125 S125        0.2290  -15.7950  -54.7040 S.3       23 UNK        -0.2404 
    126 C126       -0.9017  -17.0616  -54.0594 C.3       23 UNK        -0.0205 
    127 H127        1.7107  -13.1455  -53.8251 H         1 UNK         0.0600 
    128 H128        0.2774  -12.1606  -54.1212 H         1 UNK         0.0600 
    129 H129        1.7055  -11.4384  -53.3702 H         1 UNK         0.0600 
    130 H130       -1.3195  -12.2301  -52.5553 H         1 UNK         0.3000 
    131 H131       -1.0013  -13.8148  -50.1919 H         1 UNK         0.0600 
    132 H132       -3.4118  -12.0133  -50.7452 H         1 UNK         0.0800 
    133 H133       -3.1564  -13.4531  -51.6816 H         1 UNK         0.0800 
    134 H134       -4.6210  -15.4801  -51.0767 H         1 UNK         0.0800 
    135 H135       -4.3752  -16.3028  -49.5565 H         1 UNK         0.0800 
    136 H136       -3.1246  -16.0650  -52.8329 H         1 UNK         0.1150 
    137 H137        0.7919  -17.5957  -51.9987 H         1 UNK         0.1150 
    138 H138       -1.8055  -16.4571  -48.7862 H         1 UNK         0.1150 
    139 H139        1.6627  -16.9886  -49.6414 H         1 UNK         0.0800 
    140 H140        0.5304  -16.9230  -48.3197 H         1 UNK         0.0800 
    141 H141       -0.9787  -18.7927  -47.6117 H         1 UNK         0.0800 
    142 H142       -1.4055  -19.7395  -49.0126 H         1 UNK         0.0800 
    143 H143       -0.2325  -21.7115  -48.0691 H         1 UNK         0.0600 
    144 H144        0.1443  -20.2278  -45.4888 H         1 UNK         0.3000 
    145 H145        2.8630  -22.4089  -44.7558 H         1 UNK         0.0600 
    146 H146        3.9891  -20.3540  -44.0542 H         1 UNK         0.0600 
    147 H147        3.9031  -20.3621  -45.8065 H         1 UNK         0.0600 
    148 H148        2.7944  -19.3558  -44.8829 H         1 UNK         0.0600 
    149 H149        1.8355  -20.7110  -42.9347 H         1 UNK         0.3000 
    150 H150       -0.8028  -21.1466  -41.9075 H         1 UNK         0.0600 
    151 H151       -1.7520  -23.4288  -42.0331 H         1 UNK         0.0600 
    152 H152       -1.3242  -23.0561  -40.3733 H         1 UNK         0.0600 
    153 H153       -0.2915  -24.1134  -41.3348 H         1 UNK         0.0600 
    154 H154        0.7084  -20.7212  -40.3897 H         1 UNK         0.3000 
    155 H155        2.7317  -21.9019  -38.5562 H         1 UNK         0.0600 
    156 H156        5.1080  -21.3035  -39.1201 H         1 UNK         0.0600 
    157 H157        4.7543  -21.5408  -40.8311 H         1 UNK         0.0600 
    158 H158        4.6628  -22.8940  -39.7135 H         1 UNK         0.0600 
    159 H159        2.4017  -19.7197  -38.6049 H         1 UNK         0.3000 
    160 H160        2.1236  -17.6624  -39.1641 H         1 UNK         0.0600 
    161 H161        3.6252  -16.7812  -41.6871 H         1 UNK         0.0600 
    162 H162        4.2757  -16.8297  -40.0566 H         1 UNK         0.0600 
    163 H163        2.9847  -15.7030  -40.4463 H         1 UNK         0.0600 
    164 H164        1.1106  -16.8869  -41.7255 H         1 UNK         0.3000 
    165 H165       -1.8273  -18.7617  -41.8245 H         1 UNK         0.0600 
    166 H166       -1.7571  -15.9334  -40.6458 H         1 UNK         0.0600 
    167 H167       -3.1242  -16.6679  -41.4830 H         1 UNK         0.0600 
    168 H168       -2.5827  -17.3207  -39.9446 H         1 UNK         0.0600 
    169 H169       -0.7825  -16.2076  -42.8720 H         1 UNK         0.3000 
    170 H170        0.3245  -17.6406  -45.9218 H         1 UNK         0.0600 
    171 H171       -2.1536  -17.3932  -46.2662 H         1 UNK         0.0600 
    172 H172       -2.1646  -15.9587  -45.2559 H         1 UNK         0.0600 
    173 H173       -1.3142  -15.9303  -46.7864 H         1 UNK         0.0600 
    174 H174        0.1069  -14.9480  -45.1063 H         1 UNK         0.3000 
    175 H175        2.7343  -14.6293  -42.8456 H         1 UNK         0.0600 
    176 H176        3.1112  -13.9114  -45.8042 H         1 UNK         0.0600 
    177 H177        3.9571  -13.1732  -44.4428 H         1 UNK         0.0600 
    178 H178        4.2337  -14.8614  -44.8376 H         1 UNK         0.0600 
    179 H179        1.5117  -12.6331  -44.4203 H         1 UNK         0.3000 
    180 H180       -1.7464  -12.5957  -43.2455 H         1 UNK         0.0600 
    181 H181       -0.6969  -11.5278  -41.2396 H         1 UNK         0.0600 
    182 H182        0.4195  -10.6512  -42.2794 H         1 UNK         0.0600 
    183 H183       -1.3122  -10.3220  -42.3575 H         1 UNK         0.0600 
    184 H184       -0.3578  -10.5978  -44.6536 H         1 UNK         0.3000 
    185 H185       -1.1002  -10.5128  -47.0611 H         1 UNK         0.0600 
    186 H186        1.3160  -10.3809  -46.3297 H         1 UNK         0.0600 
    187 H187        1.6706  -11.8661  -47.2057 H         1 UNK         0.0600 
    188 H188        1.2132  -10.4064  -48.0777 H         1 UNK         0.0600 
    189 H189       -0.9817  -13.1929  -48.0110 H         1 UNK         0.3000 
    190 H190       -1.6298  -20.5844  -45.0126 H         1 UNK         0.3000 
    191 H191       -4.3304  -21.0596  -45.5897 H         1 UNK         0.0600 
    192 H192       -4.5965  -21.1961  -43.1290 H         1 UNK         0.0600 
    193 H193       -3.5126  -19.8816  -43.5593 H         1 UNK         0.0600 
    194 H194       -2.8631  -21.3933  -42.9267 H         1 UNK         0.0600 
    195 H195       -1.7797  -23.4046  -44.7016 H         1 UNK         0.3000 
    196 H196       -3.5316  -25.6680  -44.3911 H         1 UNK         0.0600 
    197 H197       -1.4031  -26.9543  -44.4678 H         1 UNK         0.0600 
    198 H198       -1.2560  -25.5750  -43.3909 H         1 UNK         0.0600 
    199 H199       -0.5317  -25.5206  -44.9976 H         1 UNK         0.0600 
    200 H200       -2.3570  -23.9927  -47.2148 H         1 UNK         0.3000 
    201 H201       -2.6709  -26.2746  -49.0538 H         1 UNK         0.0600 
    202 H202       -0.7898  -24.6086  -49.3319 H         1 UNK         0.0600 
    203 H203       -1.9797  -23.3551  -49.6739 H         1 UNK         0.0600 
    204 H204       -1.8291  -24.7393  -50.7381 H         1 UNK         0.0600 
    205 H205       -4.9195  -26.1676  -47.8398 H         1 UNK         0.3000 
    206 H206       -7.1409  -26.0292  -47.9271 H         1 UNK         0.0600 
    207 H207       -6.7644  -27.1738  -50.1019 H         1 UNK         0.0600 
    208 H208       -8.1892  -26.1513  -50.1843 H         1 UNK         0.0600 
    209 H209       -6.6879  -25.6242  -50.9347 H         1 UNK         0.0600 
    210 H210       -6.2051  -23.7620  -46.8715 H         1 UNK         0.3000 
    211 H211       -6.5708  -21.6409  -46.3685 H         1 UNK         0.0600 
    212 H212       -9.2308  -21.8659  -47.8680 H         1 UNK         0.0600 
    213 H213       -8.8062  -20.6686  -46.6544 H         1 UNK         0.0600 
    214 H214       -8.9613  -22.3564  -46.1959 H         1 UNK         0.0600 
    215 H215       -4.9180  -22.1322  -48.4808 H         1 UNK         0.3000 
    216 H216       -3.6784  -21.2493  -50.0055 H         1 UNK         0.0600 
    217 H217       -5.1650  -18.5968  -49.7090 H         1 UNK         0.0600 
    218 H218       -3.5587  -18.8455  -50.3778 H         1 UNK         0.0600 
    219 H219       -3.8426  -19.1254  -48.6672 H         1 UNK         0.0600 
    220 H220       -6.5453  -22.3109  -50.7086 H         1 UNK         0.3000 
    221 H221       -7.0134  -21.2490  -53.3633 H         1 UNK         0.0600 
    222 H222       -7.9434  -23.8925  -52.1329 H         1 UNK         0.0600 
    223 H223       -8.8013  -22.3573  -51.9952 H         1 UNK         0.0600 
    224 H224       -8.5967  -23.1168  -53.5671 H         1 UNK         0.0600 
    225 H225       -4.8818  -23.7101  -52.0074 H         1 UNK         0.3000 
    226 H226       -4.0679  -24.6500  -54.7259 H         1 UNK         0.0600 
    227 H227       -4.8576  -26.3890  -53.0928 H         1 UNK         0.0600 
    228 H228       -3.1770  -26.6060  -53.5505 H         1 UNK         0.0600 
    229 H229       -3.5736  -25.9164  -51.9844 H         1 UNK         0.0600 
    230 H230       -3.2709  -22.0939  -53.0242 H         1 UNK         0.3000 
    231 H231       -0.3956  -22.3876  -52.6721 H         1 UNK         0.0600 
    232 H232       -2.1472  -19.8713  -52.7315 H         1 UNK         0.0600 
    233 H233       -1.7462  -20.8037  -51.2870 H         1 UNK         0.0600 
    234 H234       -0.4843  -19.9725  -52.1686 H         1 UNK         0.0600 
    235 H235        1.1111  -20.8939  -53.8074 H         1 UNK         0.3000 
    236 H236        1.0389  -21.4418  -56.6302 H         1 UNK         0.0600 
    237 H237        3.0819  -21.7612  -55.3332 H         1 UNK         0.0600 
    238 H238        3.3697  -20.5117  -56.5269 H         1 UNK         0.0600 
    239 H239        3.1136  -20.0747  -54.8367 H         1 UNK         0.0600 
    240 H240        2.4824  -18.4011  -55.7836 H         1 UNK         0.3000 
    241 H241        2.3481  -16.3587  -56.5842 H         1 UNK         0.0600 
    242 H242        2.4143  -17.8846  -60.1134 H         1 UNK         0.3800 
    243 H243        2.6324  -18.7058  -58.5913 H         1 UNK         0.3800 
    244 H244       -0.6856  -16.7290  -56.7517 H         1 UNK         0.0800 
    245 H245        0.1345  -15.2171  -56.9964 H         1 UNK         0.0800 
    246 H246       -0.4792  -18.0520  -54.2280 H         1 UNK         0.0800 
    247 H247       -1.8431  -17.0270  -54.6098 H         1 UNK         0.0800 
@<TRIPOS>BOND
     1    1    2 1    
     2    1  127 1    
     3    1  128 1    
     4    1  129 1    
     5    2    3 2    
     6    2    4 am   BACKBONE|DICT|INTERRES
     7    4    5 1    
     8    4  130 1    
     9    5    6 1    
    10    5   65 1    
    11    5  131 1    
    12    6    7 1    
    13    6  132 1    
    14    6  133 1    
    15    7    8 1    
    16    8    9 1    
    17    8  134 1    
    18    8  135 1    
    19    9   10 ar   
    20    9   14 ar   
    21   10   11 ar   
    22   10  136 1    
    23   11   12 ar   
    24   11  126 1    
    25   12   13 ar   
    26   12  137 1    
    27   13   14 ar   
    28   13   15 1    
    29   14  138 1    
    30   15   16 1    
    31   15  139 1    
    32   15  140 1    
    33   16   17 1    
    34   17   18 1    
    35   17  141 1    
    36   17  142 1    
    37   18   19 1    
    38   18   67 1    
    39   18  143 1    
    40   19   20 am   BACKBONE|DICT|INTERRES
    41   19  144 1    
    42   20   21 2    
    43   20   22 1    
    44   22   23 1    
    45   22   24 1    
    46   22  145 1    
    47   23  146 1    
    48   23  147 1    
    49   23  148 1    
    50   24   25 am   BACKBONE|DICT|INTERRES
    51   24  149 1    
    52   25   26 2    
    53   25   27 1    
    54   27   28 1    
    55   27   29 1    
    56   27  150 1    
    57   28  151 1    
    58   28  152 1    
    59   28  153 1    
    60   29   30 am   BACKBONE|DICT|INTERRES
    61   29  154 1    
    62   30   31 2    
    63   30   32 1    
    64   32   33 1    
    65   32   34 1    
    66   32  155 1    
    67   33  156 1    
    68   33  157 1    
    69   33  158 1    
    70   34   35 am   BACKBONE|DICT|INTERRES
    71   34  159 1    
    72   35   36 2    
    73   35   37 1    
    74   37   38 1    
    75   37   39 1    
    76   37  160 1    
    77   38  161 1    
    78   38  162 1    
    79   38  163 1    
    80   39   40 am   BACKBONE|DICT|INTERRES
    81   39  164 1    
    82   40   41 2    
    83   40   42 1    
    84   42   43 1    
    85   42   44 1    
    86   42  165 1    
    87   43  166 1    
    88   43  167 1    
    89   43  168 1    
    90   44   45 am   BACKBONE|DICT|INTERRES
    91   44  169 1    
    92   45   46 2    
    93   45   47 1    
    94   47   48 1    
    95   47   49 1    
    96   47  170 1    
    97   48  171 1    
    98   48  172 1    
    99   48  173 1    
   100   49   50 am   BACKBONE|DICT|INTERRES
   101   49  174 1    
   102   50   51 2    
   103   50   52 1    
   104   52   53 1    
   105   52   54 1    
   106   52  175 1    
   107   53  176 1    
   108   53  177 1    
   109   53  178 1    
   110   54   55 am   BACKBONE|DICT|INTERRES
   111   54  179 1    
   112   55   56 2    
   113   55   57 1    
   114   57   58 1    
   115   57   59 1    
   116   57  180 1    
   117   58  181 1    
   118   58  182 1    
   119   58  183 1    
   120   59   60 am   BACKBONE|DICT|INTERRES
   121   59  184 1    
   122   60   61 2    
   123   60   62 1    
   124   62   63 1    
   125   62   64 1    
   126   62  185 1    
   127   63  186 1    
   128   63  187 1    
   129   63  188 1    
   130   64   65 am   BACKBONE|DICT|INTERRES
   131   64  189 1    
   132   65   66 2    
   133   67   68 2    
   134   67   69 am   BACKBONE|DICT|INTERRES
   135   69   70 1    
   136   69  190 1    
   137   70   71 1    
   138   70   72 1    
   139   70  191 1    
   140   71  192 1    
   141   71  193 1    
   142   71  194 1    
   143   72   73 2    
   144   72   74 am   BACKBONE|DICT|INTERRES
   145   74   75 1    
   146   74  195 1    
   147   75   76 1    
   148   75   77 1    
   149   75  196 1    
   150   76  197 1    
   151   76  198 1    
   152   76  199 1    
   153   77   78 2    
   154   77   79 am   BACKBONE|DICT|INTERRES
   155   79   80 1    
   156   79  200 1    
   157   80   81 1    
   158   80   82 1    
   159   80  201 1    
   160   81  202 1    
   161   81  203 1    
   162   81  204 1    
   163   82   83 2    
   164   82   84 am   BACKBONE|DICT|INTERRES
   165   84   85 1    
   166   84  205 1    
   167   85   86 1    
   168   85   87 1    
   169   85  206 1    
   170   86  207 1    
   171   86  208 1    
   172   86  209 1    
   173   87   88 2    
   174   87   89 am   BACKBONE|DICT|INTERRES
   175   89   90 1    
   176   89  210 1    
   177   90   91 1    
   178   90   92 1    
   179   90  211 1    
   180   91  212 1    
   181   91  213 1    
   182   91  214 1    
   183   92   93 2    
   184   92   94 am   BACKBONE|DICT|INTERRES
   185   94   95 1    
   186   94  215 1    
   187   95   96 1    
   188   95   97 1    
   189   95  216 1    
   190   96  217 1    
   191   96  218 1    
   192   96  219 1    
   193   97   98 2    
   194   97   99 am   BACKBONE|DICT|INTERRES
   195   99  100 1    
   196   99  220 1    
   197  100  101 1    
   198  100  102 1    
   199  100  221 1    
   200  101  222 1    
   201  101  223 1    
   202  101  224 1    
   203  102  103 2    
   204  102  104 am   BACKBONE|DICT|INTERRES
   205  104  105 1    
   206  104  225 1    
   207  105  106 1    
   208  105  107 1    
   209  105  226 1    
   210  106  227 1    
   211  106  228 1    
   212  106  229 1    
   213  107  108 2    
   214  107  109 am   BACKBONE|DICT|INTERRES
   215  109  110 1    
   216  109  230 1    
   217  110  111 1    
   218  110  112 1    
   219  110  231 1    
   220  111  232 1    
   221  111  233 1    
   222  111  234 1    
   223  112  113 2    
   224  112  114 am   BACKBONE|DICT|INTERRES
   225  114  115 1    
   226  114  235 1    
   227  115  116 1    
   228  115  117 1    
   229  115  236 1    
   230  116  237 1    
   231  116  238 1    
   232  116  239 1    
   233  117  118 2    
   234  117  119 am   BACKBONE|DICT|INTERRES
   235  119  120 1    
   236  119  240 1    
   237  120  121 1    
   238  120  124 1    
   239  120  241 1    
   240  121  122 am   BACKBONE|DICT|INTERRES
   241  121  123 2    
   242  122  242 1    
   243  122  243 1    
   244  124  125 1    
   245  124  244 1    
   246  124  245 1    
   247  125  126 1    
   248  126  246 1    
   249  126  247 1    
@<TRIPOS>SUBSTRUCTURE
     1 UNK         1 GROUP             0       ****    0 ROOT    
