@<TRIPOS>MOLECULE
3R540
247   249    1
SMALL
USER_CHARGES


@<TRIPOS>ATOM
      1 CA          5.7413  -12.9185  -47.4979 C.3       0 UNK        -0.1800 
      2 C           4.5472  -12.6576  -46.5835 C.2       0 UNK         0.5000 
      3 O           4.4731  -11.5927  -45.9749 O.2       0 UNK        -0.5000 
      4 N           3.5919  -13.5875  -46.4515 N.am      1 UNK        -0.5000 
      5 CA          3.5700  -14.9267  -47.0583 C.3       1 UNK         0.1400 
      6 C6          2.1278  -15.4558  -47.2350 C.3       23 UNK        -0.0398 
      7 S7          1.1310  -14.3637  -48.3036 S.3       23 UNK        -0.2404 
      8 C8          1.4722  -15.0334  -49.9620 C.3       23 UNK        -0.0205 
      9 C9          0.7639  -16.3568  -50.2072 C.ar      23 UNK        -0.0193 
     10 C10        -0.5990  -16.3757  -50.5140 C.ar      23 UNK        -0.1150 
     11 C11        -1.2611  -17.5847  -50.7619 C.ar      23 UNK        -0.0193 
     12 C12        -0.5456  -18.7816  -50.6656 C.ar      23 UNK        -0.1150 
     13 C13         0.8169  -18.7777  -50.3527 C.ar      23 UNK        -0.0193 
     14 C14         1.4699  -17.5601  -50.1424 C.ar      23 UNK        -0.1150 
     15 C15         1.5737  -20.0931  -50.2212 C.3       23 UNK        -0.0205 
     16 S16         2.3472  -20.3112  -48.5815 S.3       23 UNK        -0.2404 
     17 C17         0.9541  -20.0143  -47.4390 C.3       23 UNK        -0.0398 
     18 CA          0.2888  -21.3050  -46.9126 C.3       11 UNK         0.1400 
     19 N          -0.5130  -21.0238  -45.7237 N.am      11 UNK        -0.5000 
     20 C          -1.1001  -21.9365  -44.9410 C.2       10 UNK         0.5000 
     21 O          -0.9881  -23.1514  -45.0971 O.2       10 UNK        -0.5000 
     22 CA         -2.0060  -21.3896  -43.8253 C.3       10 UNK         0.1400 
     23 CB         -1.1783  -20.9678  -42.6017 C.3       10 UNK        -0.1800 
     24 N          -2.8126  -20.2585  -44.2865 N.am      10 UNK        -0.5000 
     25 C          -3.8149  -20.3572  -45.1706 C.2       9 UNK         0.5000 
     26 O          -4.1875  -21.4213  -45.6649 O.2       9 UNK        -0.5000 
     27 CA         -4.4896  -19.0410  -45.5984 C.3       9 UNK         0.1400 
     28 CB         -5.5163  -18.5900  -44.5490 C.3       9 UNK        -0.1800 
     29 N          -3.5303  -17.9605  -45.8335 N.am      9 UNK        -0.5000 
     30 C          -2.6340  -17.9497  -46.8305 C.2       8 UNK         0.5000 
     31 O          -2.5196  -18.8529  -47.6560 O.2       8 UNK        -0.5000 
     32 CA         -1.6747  -16.7470  -46.8886 C.3       8 UNK         0.1400 
     33 CB         -2.3830  -15.5585  -47.5570 C.3       8 UNK        -0.1800 
     34 N          -1.1591  -16.3323  -45.5790 N.am      8 UNK        -0.5000 
     35 C          -0.5795  -17.1357  -44.6714 C.2       7 UNK         0.5000 
     36 O          -0.3842  -18.3354  -44.8600 O.2       7 UNK        -0.5000 
     37 CA         -0.1501  -16.5288  -43.3204 C.3       7 UNK         0.1400 
     38 CB          1.3690  -16.6435  -43.1373 C.3       7 UNK        -0.1800 
     39 N          -0.5497  -15.1341  -43.1395 N.am      7 UNK        -0.5000 
     40 C          -1.8044  -14.7158  -42.9141 C.2       6 UNK         0.5000 
     41 O          -2.7621  -15.4804  -42.7927 O.2       6 UNK        -0.5000 
     42 CA         -2.0388  -13.1919  -42.8454 C.3       6 UNK         0.1400 
     43 CB         -2.1957  -12.7400  -41.3855 C.3       6 UNK        -0.1800 
     44 N          -0.9770  -12.3989  -43.4711 N.am      6 UNK        -0.5000 
     45 C          -0.6374  -12.4314  -44.7684 C.2       5 UNK         0.5000 
     46 O          -1.2258  -13.1138  -45.6055 O.2       5 UNK        -0.5000 
     47 CA          0.5981  -11.6072  -45.1835 C.3       5 UNK         0.1400 
     48 CB          0.1714  -10.2592  -45.7815 C.3       5 UNK        -0.1800 
     49 N           1.5321  -11.3692  -44.0758 N.am      5 UNK        -0.5000 
     50 C           2.2421  -12.3212  -43.4568 C.2       4 UNK         0.5000 
     51 O           2.2285  -13.5094  -43.7963 O.2       4 UNK        -0.5000 
     52 CA          3.0665  -11.8779  -42.2398 C.3       4 UNK         0.1400 
     53 CB          2.1469  -11.4794  -41.0693 C.3       4 UNK        -0.1800 
     54 N           3.9323  -12.9776  -41.8308 N.am      4 UNK        -0.5000 
     55 C           5.0552  -12.8733  -41.1102 C.2       3 UNK         0.5000 
     56 O           5.4897  -11.8071  -40.6723 O.2       3 UNK        -0.5000 
     57 CA          5.8289  -14.1792  -40.8302 C.3       3 UNK         0.1400 
     58 CB          5.4581  -14.7349  -39.4464 C.3       3 UNK        -0.1800 
     59 N           5.5922  -15.2174  -41.8375 N.am      3 UNK        -0.5000 
     60 C           6.0500  -15.1717  -43.0952 C.2       2 UNK         0.5000 
     61 O           6.7790  -14.2758  -43.5231 O.2       2 UNK        -0.5000 
     62 CA          5.5709  -16.2638  -44.0613 C.3       2 UNK         0.1400 
     63 CB          4.9254  -17.4919  -43.3868 C.3       2 UNK        -0.1800 
     64 N           4.6258  -15.6147  -44.9585 N.am      2 UNK        -0.5000 
     65 C           4.4239  -15.9207  -46.2439 C.2       1 UNK         0.5000 
     66 O           4.9107  -16.9043  -46.8008 O.2       1 UNK        -0.5000 
     67 C          -0.5431  -22.0233  -47.9962 C.2       11 UNK         0.5000 
     68 O          -0.0996  -23.0451  -48.5178 O.2       11 UNK        -0.5000 
     69 N          -1.7529  -21.5148  -48.2745 N.am      12 UNK        -0.5000 
     70 CA         -2.7283  -22.1200  -49.1822 C.3       12 UNK         0.1400 
     71 CB         -3.9466  -21.1953  -49.3172 C.3       12 UNK        -0.1800 
     72 C          -3.1625  -23.5285  -48.7412 C.2       12 UNK         0.5000 
     73 O          -3.2126  -24.4326  -49.5752 O.2       12 UNK        -0.5000 
     74 N          -3.4318  -23.6993  -47.4382 N.am      13 UNK        -0.5000 
     75 CA         -3.7508  -24.9869  -46.8206 C.3       13 UNK         0.1400 
     76 CB         -4.1427  -24.7848  -45.3493 C.3       13 UNK        -0.1800 
     77 C          -2.6048  -26.0054  -46.9600 C.2       13 UNK         0.5000 
     78 O          -2.8457  -27.1282  -47.4078 O.2       13 UNK        -0.5000 
     79 N          -1.3799  -25.5748  -46.6225 N.am      14 UNK        -0.5000 
     80 CA         -0.1470  -26.3572  -46.7368 C.3       14 UNK         0.1400 
     81 CB          1.0188  -25.5731  -46.1162 C.3       14 UNK        -0.1800 
     82 C           0.1841  -26.7681  -48.1832 C.2       14 UNK         0.5000 
     83 O           0.6516  -27.8860  -48.4027 O.2       14 UNK        -0.5000 
     84 N          -0.1182  -25.8925  -49.1505 N.am      15 UNK        -0.5000 
     85 CA          0.0105  -26.1127  -50.5936 C.3       15 UNK         0.1400 
     86 CB          0.0824  -24.7439  -51.2956 C.3       15 UNK        -0.1800 
     87 C          -1.0994  -27.0186  -51.1801 C.2       15 UNK         0.5000 
     88 O          -1.5896  -26.7531  -52.2777 O.2       15 UNK        -0.5000 
     89 N          -1.4656  -28.0802  -50.4477 N.am      16 UNK        -0.5000 
     90 CA         -2.4669  -29.0989  -50.7774 C.3       16 UNK         0.1400 
     91 CB         -1.9855  -29.9674  -51.9589 C.3       16 UNK        -0.1800 
     92 C          -3.8814  -28.5175  -50.9870 C.2       16 UNK         0.5000 
     93 O          -4.5720  -28.9006  -51.9336 O.2       16 UNK        -0.5000 
     94 N          -4.2842  -27.6112  -50.0833 N.am      17 UNK        -0.5000 
     95 CA         -5.5814  -26.9263  -50.0436 C.3       17 UNK         0.1400 
     96 CB         -6.7133  -27.9175  -49.7018 C.3       17 UNK        -0.1800 
     97 C          -5.8678  -26.0877  -51.3069 C.2       17 UNK         0.5000 
     98 O          -6.9641  -26.1489  -51.8680 O.2       17 UNK        -0.5000 
     99 N          -4.8816  -25.2805  -51.7131 N.am      18 UNK        -0.5000 
    100 CA        -4.9491  -24.3257  -52.8204 C.3       18 UNK         0.1400 
    101 CB        -3.5212  -24.0804  -53.3375 C.3       18 UNK        -0.1800 
    102 C         -5.6573  -23.0238  -52.3874 C.2       18 UNK         0.5000 
    103 O         -5.0873  -21.9358  -52.4959 O.2       18 UNK        -0.5000 
    104 N         -6.8791  -23.1702  -51.8578 N.am      19 UNK        -0.5000 
    105 CA        -7.7081  -22.1212  -51.2668 C.3       19 UNK         0.1400 
    106 CB        -9.0271  -22.7418  -50.7801 C.3       19 UNK        -0.1800 
    107 C         -7.9638  -20.9510  -52.2336 C.2       19 UNK         0.5000 
    108 O         -8.6411  -21.1322  -53.2473 O.2       19 UNK        -0.5000 
    109 N         -7.3893  -19.7873  -51.8985 N.am      20 UNK        -0.5000 
    110 CA        -7.4444  -18.5186  -52.6335 C.3       20 UNK         0.1400 
    111 CB        -8.8861  -17.9696  -52.6717 C.3       20 UNK        -0.1800 
    112 C         -6.7908  -18.5570  -54.0331 C.2       20 UNK         0.5000 
    113 O         -7.0491  -17.6645  -54.8434 O.2       20 UNK        -0.5000 
    114 N         -5.9204  -19.5467  -54.2943 N.am      21 UNK        -0.5000 
    115 CA        -5.2091  -19.7140  -55.5693 C.3       21 UNK         0.1400 
    116 CB        -4.4732  -21.0601  -55.5682 C.3       21 UNK        -0.1800 
    117 C         -4.2285  -18.5676  -55.8885 C.2       21 UNK         0.5000 
    118 O         -3.9127  -18.3425  -57.0574 O.2       21 UNK        -0.5000 
    119 N         -3.7908  -17.8531  -54.8458 N.am      22 UNK        -0.5000 
    120 CA        -3.0241  -16.6044  -54.9271 C.3       22 UNK         0.1400 
    121 C         -3.8396  -15.3613  -55.4004 C.2       22 UNK         0.5000 
    122 N         -5.1608  -15.4266  -55.5286 N.am      22 UNK        -0.7600 
    123 O         -3.2558  -14.3160  -55.6738 O.2       22 UNK        -0.5000 
    124 C124       -2.2593  -16.3326  -53.6067 C.3       23 UNK        -0.0398 
    125 S125       -3.3341  -16.2255  -52.1260 S.3       23 UNK        -0.2404 
    126 C126       -2.7466  -17.6328  -51.1189 C.3       23 UNK        -0.0205 
    127 H127        6.2789  -13.8165  -47.1945 H         1 UNK         0.0600 
    128 H128        6.4420  -12.0844  -47.4574 H         1 UNK         0.0600 
    129 H129        5.4178  -13.0310  -48.5326 H         1 UNK         0.0600 
    130 H130        2.8316  -13.4015  -45.8101 H         1 UNK         0.3000 
    131 H131        4.0156  -14.8729  -48.0528 H         1 UNK         0.0600 
    132 H132        2.1253  -16.4666  -47.6447 H         1 UNK         0.0800 
    133 H133        1.6260  -15.5211  -46.2689 H         1 UNK         0.0800 
    134 H134        1.1394  -14.3078  -50.7055 H         1 UNK         0.0800 
    135 H135        2.5490  -15.1371  -50.1028 H         1 UNK         0.0800 
    136 H136       -1.1401  -15.4416  -50.5603 H         1 UNK         0.1150 
    137 H137       -1.0544  -19.7215  -50.8283 H         1 UNK         0.1150 
    138 H138        2.5245  -17.5547  -49.9048 H         1 UNK         0.1150 
    139 H139        0.9152  -20.9412  -50.4150 H         1 UNK         0.0800 
    140 H140        2.3514  -20.1307  -50.9849 H         1 UNK         0.0800 
    141 H141        0.2138  -19.3441  -47.8747 H         1 UNK         0.0800 
    142 H142        1.3767  -19.4606  -46.5994 H         1 UNK         0.0800 
    143 H143        1.0796  -21.9903  -46.5998 H         1 UNK         0.0600 
    144 H144       -0.6267  -20.0418  -45.4814 H         1 UNK         0.3000 
    145 H145       -2.6823  -22.1905  -43.5193 H         1 UNK         0.0600 
    146 H146       -1.8211  -20.6302  -41.7886 H         1 UNK         0.0600 
    147 H147       -0.5896  -21.8048  -42.2241 H         1 UNK         0.0600 
    148 H148       -0.4846  -20.1604  -42.8381 H         1 UNK         0.0600 
    149 H149       -2.5313  -19.3413  -43.9738 H         1 UNK         0.3000 
    150 H150       -5.0206  -19.2300  -46.5337 H         1 UNK         0.0600 
    151 H151       -6.2509  -19.3739  -44.3595 H         1 UNK         0.0600 
    152 H152       -6.0625  -17.7089  -44.8860 H         1 UNK         0.0600 
    153 H153       -5.0418  -18.3467  -43.5974 H         1 UNK         0.0600 
    154 H154       -3.5429  -17.1853  -45.1862 H         1 UNK         0.3000 
    155 H155       -0.8199  -17.0323  -47.5048 H         1 UNK         0.0600 
    156 H156       -1.6944  -14.7349  -47.7375 H         1 UNK         0.0600 
    157 H157       -3.1995  -15.1782  -46.9422 H         1 UNK         0.0600 
    158 H158       -2.8033  -15.8413  -48.5225 H         1 UNK         0.0600 
    159 H159       -1.2540  -15.3482  -45.3603 H         1 UNK         0.3000 
    160 H160       -0.6277  -17.1223  -42.5381 H         1 UNK         0.0600 
    161 H161        1.9108  -16.1279  -43.9292 H         1 UNK         0.0600 
    162 H162        1.6827  -17.6881  -43.1551 H         1 UNK         0.0600 
    163 H163        1.6873  -16.2245  -42.1826 H         1 UNK         0.0600 
    164 H164        0.1813  -14.4433  -43.2489 H         1 UNK         0.3000 
    165 H165       -2.9701  -12.9815  -43.3750 H         1 UNK         0.0600 
    166 H166       -1.2825  -12.9069  -40.8126 H         1 UNK         0.0600 
    167 H167       -2.4426  -11.6800  -41.3242 H         1 UNK         0.0600 
    168 H168       -2.9987  -13.2877  -40.8903 H         1 UNK         0.0600 
    169 H169       -0.4407  -11.8045  -42.8574 H         1 UNK         0.3000 
    170 H170        1.1209  -12.1711  -45.9579 H         1 UNK         0.0600 
    171 H171       -0.5046  -10.4037  -46.6255 H         1 UNK         0.0600 
    172 H172       -0.3451   -9.6379  -45.0489 H         1 UNK         0.0600 
    173 H173        1.0330   -9.7017  -46.1495 H         1 UNK         0.0600 
    174 H174        1.6084  -10.4150  -43.7538 H         1 UNK         0.3000 
    175 H175        3.6810  -11.0262  -42.5390 H         1 UNK         0.0600 
    176 H176        2.7250  -11.1635  -40.2008 H         1 UNK         0.0600 
    177 H177        1.4968  -10.6463  -41.3384 H         1 UNK         0.0600 
    178 H178        1.5098  -12.3092  -40.7602 H         1 UNK         0.0600 
    179 H179        3.6502  -13.8802  -42.1885 H         1 UNK         0.3000 
    180 H180        6.8940  -13.9381  -40.8274 H         1 UNK         0.0600 
    181 H181        4.4033  -15.0068  -39.3909 H         1 UNK         0.0600 
    182 H182        5.6483  -13.9972  -38.6657 H         1 UNK         0.0600 
    183 H183        6.0474  -15.6199  -39.2055 H         1 UNK         0.0600 
    184 H184        5.0026  -15.9896  -41.5627 H         1 UNK         0.3000 
    185 H185        6.4438  -16.5950  -44.6280 H         1 UNK         0.0600 
    186 H186        4.6075  -18.2234  -44.1301 H         1 UNK         0.0600 
    187 H187        5.6361  -17.9922  -42.7279 H         1 UNK         0.0600 
    188 H188        4.0522  -17.2267  -42.7933 H         1 UNK         0.0600 
    189 H189        4.2086  -14.7619  -44.6084 H         1 UNK         0.3000 
    190 H190       -2.0315  -20.6354  -47.8450 H         1 UNK         0.3000 
    191 H191       -2.2602  -22.2123  -50.1642 H         1 UNK         0.0600 
    192 H192       -3.6773  -20.2600  -49.8067 H         1 UNK         0.0600 
    193 H193       -4.7300  -21.6615  -49.9117 H         1 UNK         0.0600 
    194 H194       -4.3797  -20.9532  -48.3471 H         1 UNK         0.0600 
    195 H195       -3.4166  -22.8912  -46.8241 H         1 UNK         0.3000 
    196 H196       -4.6212  -25.3927  -47.3355 H         1 UNK         0.0600 
    197 H197       -4.4105  -25.7341  -44.8838 H         1 UNK         0.0600 
    198 H198       -5.0053  -24.1243  -45.2595 H         1 UNK         0.0600 
    199 H199       -3.3304  -24.3524  -44.7664 H         1 UNK         0.0600 
    200 H200       -1.2816  -24.6376  -46.2395 H         1 UNK         0.3000 
    201 H201       -0.2857  -27.2732  -46.1592 H         1 UNK         0.0600 
    202 H202        0.8316  -25.3552  -45.0647 H         1 UNK         0.0600 
    203 H203        1.1840  -24.6253  -46.6294 H         1 UNK         0.0600 
    204 H204        1.9472  -26.1430  -46.1702 H         1 UNK         0.0600 
    205 H205       -0.4594  -24.9770  -48.8735 H         1 UNK         0.3000 
    206 H206        0.9573  -26.6245  -50.7759 H         1 UNK         0.0600 
    207 H207        0.9036  -24.1429  -50.9046 H         1 UNK         0.0600 
    208 H208        0.2472  -24.8547  -52.3679 H         1 UNK         0.0600 
    209 H209       -0.8395  -24.1779  -51.1591 H         1 UNK         0.0600 
    210 H210       -0.9790  -28.2116  -49.5678 H         1 UNK         0.3000 
    211 H211       -2.5364  -29.7477  -49.9031 H         1 UNK         0.0600 
    212 H212       -1.9321  -29.3966  -52.8865 H         1 UNK         0.0600 
    213 H213       -2.6621  -30.8056  -52.1293 H         1 UNK         0.0600 
    214 H214       -0.9974  -30.3845  -51.7645 H         1 UNK         0.0600 
    215 H215       -3.6363  -27.3626  -49.3428 H         1 UNK         0.3000 
    216 H216       -5.5244  -26.2103  -49.2255 H         1 UNK         0.0600 
    217 H217       -6.4954  -28.4620  -48.7830 H         1 UNK         0.0600 
    218 H218       -6.8684  -28.6479  -50.4963 H         1 UNK         0.0600 
    219 H219       -7.6582  -27.3940  -49.5510 H         1 UNK         0.0600 
    220 H220       -4.0526  -25.2197  -51.1279 H         1 UNK         0.3000 
    221 H221       -5.5312  -24.7608  -53.6351 H         1 UNK         0.0600 
    222 H222       -2.8840  -23.6427  -52.5681 H         1 UNK         0.0600 
    223 H223       -3.0590  -25.0106  -53.6664 H         1 UNK         0.0600 
    224 H224       -3.5205  -23.4067  -54.1930 H         1 UNK         0.0600 
    225 H225       -7.2592  -24.1097  -51.8350 H         1 UNK         0.3000 
    226 H226       -7.1775  -21.7435  -50.3907 H         1 UNK         0.0600 
    227 H227       -8.8479  -23.5119  -50.0295 H         1 UNK         0.0600 
    228 H228       -9.6693  -21.9869  -50.3244 H         1 UNK         0.0600 
    229 H229       -9.5848  -23.1966  -51.5998 H         1 UNK         0.0600 
    230 H230       -6.8219  -19.7681  -51.0628 H         1 UNK         0.3000 
    231 H231       -6.8457  -17.8147  -52.0535 H         1 UNK         0.0600 
    232 H232       -8.9092  -16.9538  -53.0679 H         1 UNK         0.0600 
    233 H233       -9.3220  -17.9349  -51.6733 H         1 UNK         0.0600 
    234 H234       -9.5355  -18.5787  -53.3010 H         1 UNK         0.0600 
    235 H235       -5.7427  -20.2478  -53.5825 H         1 UNK         0.3000 
    236 H236       -5.9558  -19.7348  -56.3657 H         1 UNK         0.0600 
    237 H237       -3.9724  -21.2349  -56.5213 H         1 UNK         0.0600 
    238 H238       -3.7136  -21.0953  -54.7865 H         1 UNK         0.0600 
    239 H239       -5.1648  -21.8873  -55.4085 H         1 UNK         0.0600 
    240 H240       -4.1147  -18.1081  -53.9253 H         1 UNK         0.3000 
    241 H241       -2.2661  -16.7514  -55.6989 H         1 UNK         0.0600 
    242 H242       -5.6635  -14.6119  -55.8427 H         1 UNK         0.3800 
    243 H243       -5.6750  -16.2732  -55.3111 H         1 UNK         0.3800 
    244 H244       -1.5200  -17.1210  -53.4617 H         1 UNK         0.0800 
    245 H245       -1.6812  -15.4098  -53.6786 H         1 UNK         0.0800 
    246 H246       -3.3227  -17.6673  -50.1936 H         1 UNK         0.0800 
    247 H247       -2.9734  -18.5545  -51.6571 H         1 UNK         0.0800 
@<TRIPOS>BOND
     1    1    2 1    
     2    1  127 1    
     3    1  128 1    
     4    1  129 1    
     5    2    3 2    
     6    2    4 am   BACKBONE|DICT|INTERRES
     7    4    5 1    
     8    4  130 1    
     9    5    6 1    
    10    5   65 1    
    11    5  131 1    
    12    6    7 1    
    13    6  132 1    
    14    6  133 1    
    15    7    8 1    
    16    8    9 1    
    17    8  134 1    
    18    8  135 1    
    19    9   10 ar   
    20    9   14 ar   
    21   10   11 ar   
    22   10  136 1    
    23   11   12 ar   
    24   11  126 1    
    25   12   13 ar   
    26   12  137 1    
    27   13   14 ar   
    28   13   15 1    
    29   14  138 1    
    30   15   16 1    
    31   15  139 1    
    32   15  140 1    
    33   16   17 1    
    34   17   18 1    
    35   17  141 1    
    36   17  142 1    
    37   18   19 1    
    38   18   67 1    
    39   18  143 1    
    40   19   20 am   BACKBONE|DICT|INTERRES
    41   19  144 1    
    42   20   21 2    
    43   20   22 1    
    44   22   23 1    
    45   22   24 1    
    46   22  145 1    
    47   23  146 1    
    48   23  147 1    
    49   23  148 1    
    50   24   25 am   BACKBONE|DICT|INTERRES
    51   24  149 1    
    52   25   26 2    
    53   25   27 1    
    54   27   28 1    
    55   27   29 1    
    56   27  150 1    
    57   28  151 1    
    58   28  152 1    
    59   28  153 1    
    60   29   30 am   BACKBONE|DICT|INTERRES
    61   29  154 1    
    62   30   31 2    
    63   30   32 1    
    64   32   33 1    
    65   32   34 1    
    66   32  155 1    
    67   33  156 1    
    68   33  157 1    
    69   33  158 1    
    70   34   35 am   BACKBONE|DICT|INTERRES
    71   34  159 1    
    72   35   36 2    
    73   35   37 1    
    74   37   38 1    
    75   37   39 1    
    76   37  160 1    
    77   38  161 1    
    78   38  162 1    
    79   38  163 1    
    80   39   40 am   BACKBONE|DICT|INTERRES
    81   39  164 1    
    82   40   41 2    
    83   40   42 1    
    84   42   43 1    
    85   42   44 1    
    86   42  165 1    
    87   43  166 1    
    88   43  167 1    
    89   43  168 1    
    90   44   45 am   BACKBONE|DICT|INTERRES
    91   44  169 1    
    92   45   46 2    
    93   45   47 1    
    94   47   48 1    
    95   47   49 1    
    96   47  170 1    
    97   48  171 1    
    98   48  172 1    
    99   48  173 1    
   100   49   50 am   BACKBONE|DICT|INTERRES
   101   49  174 1    
   102   50   51 2    
   103   50   52 1    
   104   52   53 1    
   105   52   54 1    
   106   52  175 1    
   107   53  176 1    
   108   53  177 1    
   109   53  178 1    
   110   54   55 am   BACKBONE|DICT|INTERRES
   111   54  179 1    
   112   55   56 2    
   113   55   57 1    
   114   57   58 1    
   115   57   59 1    
   116   57  180 1    
   117   58  181 1    
   118   58  182 1    
   119   58  183 1    
   120   59   60 am   BACKBONE|DICT|INTERRES
   121   59  184 1    
   122   60   61 2    
   123   60   62 1    
   124   62   63 1    
   125   62   64 1    
   126   62  185 1    
   127   63  186 1    
   128   63  187 1    
   129   63  188 1    
   130   64   65 am   BACKBONE|DICT|INTERRES
   131   64  189 1    
   132   65   66 2    
   133   67   68 2    
   134   67   69 am   BACKBONE|DICT|INTERRES
   135   69   70 1    
   136   69  190 1    
   137   70   71 1    
   138   70   72 1    
   139   70  191 1    
   140   71  192 1    
   141   71  193 1    
   142   71  194 1    
   143   72   73 2    
   144   72   74 am   BACKBONE|DICT|INTERRES
   145   74   75 1    
   146   74  195 1    
   147   75   76 1    
   148   75   77 1    
   149   75  196 1    
   150   76  197 1    
   151   76  198 1    
   152   76  199 1    
   153   77   78 2    
   154   77   79 am   BACKBONE|DICT|INTERRES
   155   79   80 1    
   156   79  200 1    
   157   80   81 1    
   158   80   82 1    
   159   80  201 1    
   160   81  202 1    
   161   81  203 1    
   162   81  204 1    
   163   82   83 2    
   164   82   84 am   BACKBONE|DICT|INTERRES
   165   84   85 1    
   166   84  205 1    
   167   85   86 1    
   168   85   87 1    
   169   85  206 1    
   170   86  207 1    
   171   86  208 1    
   172   86  209 1    
   173   87   88 2    
   174   87   89 am   BACKBONE|DICT|INTERRES
   175   89   90 1    
   176   89  210 1    
   177   90   91 1    
   178   90   92 1    
   179   90  211 1    
   180   91  212 1    
   181   91  213 1    
   182   91  214 1    
   183   92   93 2    
   184   92   94 am   BACKBONE|DICT|INTERRES
   185   94   95 1    
   186   94  215 1    
   187   95   96 1    
   188   95   97 1    
   189   95  216 1    
   190   96  217 1    
   191   96  218 1    
   192   96  219 1    
   193   97   98 2    
   194   97   99 am   BACKBONE|DICT|INTERRES
   195   99  100 1    
   196   99  220 1    
   197  100  101 1    
   198  100  102 1    
   199  100  221 1    
   200  101  222 1    
   201  101  223 1    
   202  101  224 1    
   203  102  103 2    
   204  102  104 am   BACKBONE|DICT|INTERRES
   205  104  105 1    
   206  104  225 1    
   207  105  106 1    
   208  105  107 1    
   209  105  226 1    
   210  106  227 1    
   211  106  228 1    
   212  106  229 1    
   213  107  108 2    
   214  107  109 am   BACKBONE|DICT|INTERRES
   215  109  110 1    
   216  109  230 1    
   217  110  111 1    
   218  110  112 1    
   219  110  231 1    
   220  111  232 1    
   221  111  233 1    
   222  111  234 1    
   223  112  113 2    
   224  112  114 am   BACKBONE|DICT|INTERRES
   225  114  115 1    
   226  114  235 1    
   227  115  116 1    
   228  115  117 1    
   229  115  236 1    
   230  116  237 1    
   231  116  238 1    
   232  116  239 1    
   233  117  118 2    
   234  117  119 am   BACKBONE|DICT|INTERRES
   235  119  120 1    
   236  119  240 1    
   237  120  121 1    
   238  120  124 1    
   239  120  241 1    
   240  121  122 am   BACKBONE|DICT|INTERRES
   241  121  123 2    
   242  122  242 1    
   243  122  243 1    
   244  124  125 1    
   245  124  244 1    
   246  124  245 1    
   247  125  126 1    
   248  126  246 1    
   249  126  247 1    
@<TRIPOS>SUBSTRUCTURE
     1 UNK         1 GROUP             0       ****    0 ROOT    
