@<TRIPOS>MOLECULE
3R540
247   249    1
SMALL
USER_CHARGES


@<TRIPOS>ATOM
      1 CA         -0.9972   -9.4088  -43.6494 C.3       0 UNK        -0.1800 
      2 C          -1.7422  -10.3932  -44.5399 C.2       0 UNK         0.5000 
      3 O          -2.9514  -10.5649  -44.3872 O.2       0 UNK        -0.5000 
      4 N          -1.0275  -11.0379  -45.4667 N.am      1 UNK        -0.5000 
      5 CA         -1.5594  -12.0109  -46.4161 C.3       1 UNK         0.1400 
      6 C6         -1.8160  -13.3904  -45.7578 C.3       23 UNK        -0.0398 
      7 S7         -2.6591  -14.5977  -46.8406 S.3       23 UNK        -0.2404 
      8 C8         -1.4532  -15.9567  -46.7763 C.3       23 UNK        -0.0205 
      9 C9         -2.0018  -17.2602  -47.3318 C.ar      23 UNK        -0.0193 
     10 C10        -1.6174  -17.7124  -48.5957 C.ar      23 UNK        -0.1150 
     11 C11        -2.0302  -18.9640  -49.0593 C.ar      23 UNK        -0.0193 
     12 C12        -2.8456  -19.7619  -48.2538 C.ar      23 UNK        -0.1150 
     13 C13        -3.2623  -19.3086  -46.9998 C.ar      23 UNK        -0.0193 
     14 C14        -2.8411  -18.0547  -46.5468 C.ar      23 UNK        -0.1150 
     15 C15        -4.1332  -20.1863  -46.1167 C.3       23 UNK        -0.0205 
     16 S16        -3.1779  -20.7755  -44.6879 S.3       23 UNK        -0.2404 
     17 C17        -3.7299  -22.5057  -44.5318 C.3       23 UNK        -0.0398 
     18 CA         -3.0936  -23.4825  -45.5579 C.3       11 UNK         0.1400 
     19 N          -1.6713  -23.2148  -45.7963 N.am      11 UNK        -0.5000 
     20 C          -0.8831  -23.8595  -46.6657 C.2       10 UNK         0.5000 
     21 O          -1.2730  -24.7638  -47.4050 O.2       10 UNK        -0.5000 
     22 CA          0.6080  -23.4776  -46.6743 C.3       10 UNK         0.1400 
     23 CB          0.8832  -22.4634  -47.7909 C.3       10 UNK        -0.1800 
     24 N           1.1226  -22.9403  -45.4101 N.am      10 UNK        -0.5000 
     25 C           1.0339  -23.5022  -44.1947 C.2       9 UNK         0.5000 
     26 O           0.4242  -24.5496  -43.9680 O.2       9 UNK        -0.5000 
     27 CA          1.7450  -22.7767  -43.0362 C.3       9 UNK         0.1400 
     28 CB          3.0175  -23.5405  -42.6390 C.3       9 UNK        -0.1800 
     29 N           2.1007  -21.3860  -43.3420 N.am      9 UNK        -0.5000 
     30 C           1.2282  -20.3699  -43.3701 C.2       8 UNK         0.5000 
     31 O           0.0200  -20.5038  -43.1680 O.2       8 UNK        -0.5000 
     32 CA          1.8040  -18.9800  -43.7129 C.3       8 UNK         0.1400 
     33 CB          1.6595  -18.7023  -45.2194 C.3       8 UNK        -0.1800 
     34 N           1.1590  -17.9015  -42.9591 N.am      8 UNK        -0.5000 
     35 C           1.1576  -17.7916  -41.6216 C.2       7 UNK         0.5000 
     36 O           1.7918  -18.5437  -40.8781 O.2       7 UNK        -0.5000 
     37 CA          0.2990  -16.6549  -41.0207 C.3       7 UNK         0.1400 
     38 CB          0.5977  -16.3905  -39.5292 C.3       7 UNK        -0.1800 
     39 N           0.3553  -15.4075  -41.7918 N.am      7 UNK        -0.5000 
     40 C           1.4414  -14.6614  -42.0380 C.2       6 UNK         0.5000 
     41 O           2.5722  -14.9100  -41.6138 O.2       6 UNK        -0.5000 
     42 CA          1.2241  -13.4250  -42.9318 C.3       6 UNK         0.1400 
     43 CB          1.4651  -12.1254  -42.1487 C.3       6 UNK        -0.1800 
     44 N           2.0991  -13.4528  -44.1039 N.am      6 UNK        -0.5000 
     45 C           2.0696  -14.4037  -45.0452 C.2       5 UNK         0.5000 
     46 O           1.2613  -15.3371  -45.0512 O.2       5 UNK        -0.5000 
     47 CA          3.1229  -14.3046  -46.1555 C.3       5 UNK         0.1400 
     48 CB          4.4795  -14.8560  -45.6848 C.3       5 UNK        -0.1800 
     49 N           2.6439  -15.0798  -47.2898 N.am      5 UNK        -0.5000 
     50 C           2.9299  -14.8611  -48.5750 C.2       4 UNK         0.5000 
     51 O           3.7177  -14.0012  -48.9708 O.2       4 UNK        -0.5000 
     52 CA          2.1765  -15.7266  -49.5921 C.3       4 UNK         0.1400 
     53 CB          1.9090  -17.1608  -49.0936 C.3       4 UNK        -0.1800 
     54 N           0.9349  -15.0389  -49.9255 N.am      4 UNK        -0.5000 
     55 C           0.2093  -15.2205  -51.0373 C.2       3 UNK         0.5000 
     56 O           0.4214  -16.1141  -51.8618 O.2       3 UNK        -0.5000 
     57 CA         -0.9605  -14.2430  -51.2795 C.3       3 UNK         0.1400 
     58 CB         -2.2888  -14.8931  -50.8779 C.3       3 UNK        -0.1800 
     59 N          -0.8455  -12.9810  -50.5512 N.am      3 UNK        -0.5000 
     60 C           0.1057  -12.0520  -50.7122 C.2       2 UNK         0.5000 
     61 O           0.9624  -12.0992  -51.5951 O.2       2 UNK        -0.5000 
     62 CA          0.1147  -10.8832  -49.7023 C.3       2 UNK         0.1400 
     63 CB         -0.3052   -9.5741  -50.3892 C.3       2 UNK        -0.1800 
     64 N          -0.7323  -11.0850  -48.5178 N.am      2 UNK        -0.5000 
     65 C          -0.5729  -12.0429  -47.5935 C.2       1 UNK         0.5000 
     66 O           0.3216  -12.8880  -47.6363 O.2       1 UNK        -0.5000 
     67 C          -3.3609  -24.9373  -45.1132 C.2       11 UNK         0.5000 
     68 O          -4.4188  -25.4817  -45.4284 O.2       11 UNK        -0.5000 
     69 N          -2.3970  -25.5304  -44.3948 N.am      12 UNK        -0.5000 
     70 CA         -2.4307  -26.9113  -43.9210 C.3       12 UNK         0.1400 
     71 CB         -2.2288  -26.9230  -42.3977 C.3       12 UNK        -0.1800 
     72 C          -1.3522  -27.7619  -44.6098 C.2       12 UNK         0.5000 
     73 O          -1.6264  -28.9104  -44.9573 O.2       12 UNK        -0.5000 
     74 N          -0.1499  -27.1964  -44.7969 N.am      13 UNK        -0.5000 
     75 CA          1.0210  -27.9009  -45.3246 C.3       13 UNK         0.1400 
     76 CB          2.2815  -27.0619  -45.0627 C.3       13 UNK        -0.1800 
     77 C           0.9103  -28.2573  -46.8176 C.2       13 UNK         0.5000 
     78 O           1.3972  -29.3149  -47.2195 O.2       13 UNK        -0.5000 
     79 N           0.2759  -27.3788  -47.6041 N.am      14 UNK        -0.5000 
     80 CA          0.0533  -27.5560  -49.0416 C.3       14 UNK         0.1400 
     81 CB          0.6887  -26.3675  -49.7847 C.3       14 UNK        -0.1800 
     82 C          -1.4434  -27.6731  -49.3859 C.2       14 UNK         0.5000 
     83 O          -1.7692  -27.9478  -50.5413 O.2       14 UNK        -0.5000 
     84 N          -2.3202  -27.4405  -48.3950 N.am      15 UNK        -0.5000 
     85 CA         -3.7786  -27.3123  -48.5060 C.3       15 UNK         0.1400 
     86 CB         -4.4239  -28.6616  -48.8846 C.3       15 UNK        -0.1800 
     87 C          -4.2011  -26.1513  -49.4357 C.2       15 UNK         0.5000 
     88 O          -5.2081  -26.2531  -50.1398 O.2       15 UNK        -0.5000 
     89 N          -3.3976  -25.0797  -49.4437 N.am      16 UNK        -0.5000 
     90 CA         -3.5674  -23.9091  -50.2993 C.3       16 UNK         0.1400 
     91 CB         -2.2072  -23.2055  -50.4208 C.3       16 UNK        -0.1800 
     92 C          -4.6435  -22.9454  -49.7645 C.2       16 UNK         0.5000 
     93 O          -5.0764  -23.0668  -48.6163 O.2       16 UNK        -0.5000 
     94 N          -5.0304  -21.9776  -50.6018 N.am      17 UNK        -0.5000 
     95 CA         -5.9702  -20.9119  -50.2705 C.3       17 UNK         0.1400 
     96 CB         -7.3267  -21.2049  -50.9308 C.3       17 UNK        -0.1800 
     97 C          -5.4055  -19.5813  -50.7775 C.2       17 UNK         0.5000 
     98 O          -4.7927  -19.5439  -51.8484 O.2       17 UNK        -0.5000 
     99 N          -5.6523  -18.5028  -50.0246 N.am      18 UNK        -0.5000 
    100 CA        -5.1824  -17.1512  -50.3403 C.3       18 UNK         0.1400 
    101 CB        -5.4287  -16.2336  -49.1343 C.3       18 UNK        -0.1800 
    102 C         -5.8146  -16.5635  -51.6178 C.2       18 UNK         0.5000 
    103 O         -5.1910  -15.7325  -52.2758 O.2       18 UNK        -0.5000 
    104 N         -7.0214  -17.0325  -51.9660 N.am      19 UNK        -0.5000 
    105 CA        -7.7214  -16.6934  -53.2061 C.3       19 UNK         0.1400 
    106 CB        -9.1757  -17.1792  -53.1092 C.3       19 UNK        -0.1800 
    107 C         -7.0400  -17.2758  -54.4607 C.2       19 UNK         0.5000 
    108 O         -7.1065  -16.6587  -55.5245 O.2       19 UNK        -0.5000 
    109 N         -6.3964  -18.4431  -54.3156 N.am      20 UNK        -0.5000 
    110 CA        -5.6102  -19.0869  -55.3690 C.3       20 UNK         0.1400 
    111 CB        -5.5771  -20.6034  -55.1195 C.3       20 UNK        -0.1800 
    112 C         -4.1813  -18.5172  -55.4438 C.2       20 UNK         0.5000 
    113 O         -3.6284  -18.4253  -56.5405 O.2       20 UNK        -0.5000 
    114 N         -3.6371  -18.1425  -54.2757 N.am      21 UNK        -0.5000 
    115 CA        -2.2762  -17.6720  -53.9982 C.3       21 UNK         0.1400 
    116 CB        -1.8783  -16.4660  -54.8706 C.3       21 UNK        -0.1800 
    117 C         -1.2355  -18.8052  -54.0530 C.2       21 UNK         0.5000 
    118 O         -1.4492  -19.8270  -54.7101 O.2       21 UNK        -0.5000 
    119 N         -0.1363  -18.6259  -53.3129 N.am      22 UNK        -0.5000 
    120 CA         0.8589  -19.6817  -53.0726 C.3       22 UNK         0.1400 
    121 C          2.2935  -19.1745  -52.7520 C.2       22 UNK         0.5000 
    122 N          2.5290  -17.8819  -52.5628 N.am      22 UNK        -0.7600 
    123 O          3.2280  -19.9705  -52.7147 O.2       22 UNK        -0.5000 
    124 C124        0.3416  -20.7557  -52.0725 C.3       23 UNK        -0.0398 
    125 S125        0.0852  -20.1625  -50.3627 S.3       23 UNK        -0.2404 
    126 C126       -1.5872  -19.4499  -50.4270 C.3       23 UNK        -0.0205 
    127 H127       -1.0219   -9.7476  -42.6137 H         1 UNK         0.0600 
    128 H128       -1.4675   -8.4267  -43.6995 H         1 UNK         0.0600 
    129 H129        0.0457   -9.3002  -43.9481 H         1 UNK         0.0600 
    130 H130       -0.0401  -10.8432  -45.5664 H         1 UNK         0.3000 
    131 H131       -2.5133  -11.6384  -46.7967 H         1 UNK         0.0600 
    132 H132       -2.4475  -13.2661  -44.8777 H         1 UNK         0.0800 
    133 H133       -0.8800  -13.8062  -45.3882 H         1 UNK         0.0800 
    134 H134       -1.1571  -16.1268  -45.7404 H         1 UNK         0.0800 
    135 H135       -0.5498  -15.6574  -47.3091 H         1 UNK         0.0800 
    136 H136       -0.9695  -17.1072  -49.2098 H         1 UNK         0.1150 
    137 H137       -3.1510  -20.7374  -48.6003 H         1 UNK         0.1150 
    138 H138       -3.1381  -17.7130  -45.5652 H         1 UNK         0.1150 
    139 H139       -4.5239  -21.0307  -46.6863 H         1 UNK         0.0800 
    140 H140       -4.9971  -19.6195  -45.7675 H         1 UNK         0.0800 
    141 H141       -3.4842  -22.8093  -43.5121 H         1 UNK         0.0800 
    142 H142       -4.8187  -22.5393  -44.6006 H         1 UNK         0.0800 
    143 H143       -3.5958  -23.3425  -46.5150 H         1 UNK         0.0600 
    144 H144       -1.2672  -22.4756  -45.2380 H         1 UNK         0.3000 
    145 H145        1.1709  -24.3857  -46.8948 H         1 UNK         0.0600 
    146 H146        0.5499  -22.8442  -48.7573 H         1 UNK         0.0600 
    147 H147        1.9479  -22.2480  -47.8808 H         1 UNK         0.0600 
    148 H148        0.3632  -21.5210  -47.6117 H         1 UNK         0.0600 
    149 H149        1.6385  -22.0763  -45.4778 H         1 UNK         0.3000 
    150 H150        1.0637  -22.7828  -42.1827 H         1 UNK         0.0600 
    151 H151        3.7429  -23.5668  -43.4531 H         1 UNK         0.0600 
    152 H152        2.7871  -24.5730  -42.3723 H         1 UNK         0.0600 
    153 H153        3.4982  -23.0836  -41.7738 H         1 UNK         0.0600 
    154 H154        3.0784  -21.2014  -43.5167 H         1 UNK         0.3000 
    155 H155        2.8660  -18.9710  -43.4593 H         1 UNK         0.0600 
    156 H156        2.1789  -17.7874  -45.5025 H         1 UNK         0.0600 
    157 H157        0.6133  -18.6007  -45.5128 H         1 UNK         0.0600 
    158 H158        2.0892  -19.5091  -45.8143 H         1 UNK         0.0600 
    159 H159        0.6511  -17.2178  -43.5029 H         1 UNK         0.3000 
    160 H160       -0.7333  -17.0018  -41.0854 H         1 UNK         0.0600 
    161 H161        1.6350  -16.0956  -39.3683 H         1 UNK         0.0600 
    162 H162        0.4161  -17.2835  -38.9300 H         1 UNK         0.0600 
    163 H163       -0.0408  -15.6011  -39.1329 H         1 UNK         0.0600 
    164 H164       -0.5208  -15.1217  -42.2058 H         1 UNK         0.3000 
    165 H165        0.1912  -13.4166  -43.2846 H         1 UNK         0.0600 
    166 H166        1.2804  -11.2494  -42.7699 H         1 UNK         0.0600 
    167 H167        0.7984  -12.0602  -41.2880 H         1 UNK         0.0600 
    168 H168        2.4886  -12.0627  -41.7769 H         1 UNK         0.0600 
    169 H169        2.8163  -12.7438  -44.1446 H         1 UNK         0.3000 
    170 H170        3.2232  -13.2563  -46.4450 H         1 UNK         0.0600 
    171 H171        5.2292  -14.7875  -46.4732 H         1 UNK         0.0600 
    172 H172        4.4033  -15.9021  -45.3849 H         1 UNK         0.0600 
    173 H173        4.8563  -14.2949  -44.8290 H         1 UNK         0.0600 
    174 H174        1.9325  -15.7549  -47.0406 H         1 UNK         0.3000 
    175 H175        2.7977  -15.7826  -50.4881 H         1 UNK         0.0600 
    176 H176        2.8361  -17.6503  -48.7935 H         1 UNK         0.0600 
    177 H177        1.2287  -17.1906  -48.2431 H         1 UNK         0.0600 
    178 H178        1.4736  -17.7638  -49.8862 H         1 UNK         0.0600 
    179 H179        0.6907  -14.2725  -49.3066 H         1 UNK         0.3000 
    180 H180       -0.9874  -14.0213  -52.3482 H         1 UNK         0.0600 
    181 H181       -2.3429  -15.0740  -49.8047 H         1 UNK         0.0600 
    182 H182       -2.4218  -15.8502  -51.3743 H         1 UNK         0.0600 
    183 H183       -3.1350  -14.2640  -51.1543 H         1 UNK         0.0600 
    184 H184       -1.5076  -12.8396  -49.8034 H         1 UNK         0.3000 
    185 H185        1.1443  -10.7726  -49.3559 H         1 UNK         0.0600 
    186 H186       -1.3374   -9.6175  -50.7389 H         1 UNK         0.0600 
    187 H187       -0.2143   -8.7250  -49.7115 H         1 UNK         0.0600 
    188 H188        0.3256   -9.3644  -51.2542 H         1 UNK         0.0600 
    189 H189       -1.4801  -10.4170  -48.3939 H         1 UNK         0.3000 
    190 H190       -1.5474  -25.0098  -44.2043 H         1 UNK         0.3000 
    191 H191       -3.3979  -27.3700  -44.1368 H         1 UNK         0.0600 
    192 H192       -3.0239  -26.3741  -41.8929 H         1 UNK         0.0600 
    193 H193       -2.2397  -27.9421  -42.0090 H         1 UNK         0.0600 
    194 H194       -1.2777  -26.4710  -42.1125 H         1 UNK         0.0600 
    195 H195        0.0132  -26.2496  -44.4626 H         1 UNK         0.3000 
    196 H196        1.1228  -28.8372  -44.7715 H         1 UNK         0.0600 
    197 H197        3.1772  -27.5901  -45.3921 H         1 UNK         0.0600 
    198 H198        2.4016  -26.8507  -43.9999 H         1 UNK         0.0600 
    199 H199        2.2510  -26.1093  -45.5912 H         1 UNK         0.0600 
    200 H200       -0.0989  -26.5304  -47.1992 H         1 UNK         0.3000 
    201 H201        0.5298  -28.4709  -49.3990 H         1 UNK         0.0600 
    202 H202        0.5799  -26.4764  -50.8644 H         1 UNK         0.0600 
    203 H203        1.7554  -26.2960  -49.5724 H         1 UNK         0.0600 
    204 H204        0.2282  -25.4203  -49.5046 H         1 UNK         0.0600 
    205 H205       -1.9372  -27.2159  -47.4894 H         1 UNK         0.3000 
    206 H206       -4.1381  -27.0499  -47.5117 H         1 UNK         0.0600 
    207 H207       -4.1036  -29.4542  -48.2084 H         1 UNK         0.0600 
    208 H208       -5.5113  -28.6043  -48.8238 H         1 UNK         0.0600 
    209 H209       -4.1699  -28.9634  -49.9009 H         1 UNK         0.0600 
    210 H210       -2.6192  -25.0527  -48.7923 H         1 UNK         0.3000 
    211 H211       -3.8722  -24.2468  -51.2921 H         1 UNK         0.0600 
    212 H212       -1.9065  -22.7377  -49.4826 H         1 UNK         0.0600 
    213 H213       -2.2413  -22.4313  -51.1853 H         1 UNK         0.0600 
    214 H214       -1.4226  -23.9037  -50.7128 H         1 UNK         0.0600 
    215 H215       -4.5923  -21.8869  -51.5088 H         1 UNK         0.3000 
    216 H216       -6.1045  -20.8395  -49.1890 H         1 UNK         0.0600 
    217 H217       -7.2414  -21.2698  -52.0166 H         1 UNK         0.0600 
    218 H218       -7.7411  -22.1473  -50.5722 H         1 UNK         0.0600 
    219 H219       -8.0526  -20.4235  -50.7027 H         1 UNK         0.0600 
    220 H220       -6.1673  -18.6072  -49.1624 H         1 UNK         0.3000 
    221 H221       -4.1058  -17.2115  -50.5051 H         1 UNK         0.0600 
    222 H222       -6.4903  -16.1524  -48.8984 H         1 UNK         0.0600 
    223 H223       -4.9129  -16.6027  -48.2477 H         1 UNK         0.0600 
    224 H224       -5.0553  -15.2268  -49.3264 H         1 UNK         0.0600 
    225 H225       -7.4698  -17.7005  -51.3571 H         1 UNK         0.3000 
    226 H226       -7.7293  -15.6060  -53.3071 H         1 UNK         0.0600 
    227 H227       -9.7338  -16.9219  -54.0105 H         1 UNK         0.0600 
    228 H228       -9.2321  -18.2616  -52.9861 H         1 UNK         0.0600 
    229 H229       -9.6909  -16.7173  -52.2668 H         1 UNK         0.0600 
    230 H230       -6.3560  -18.8677  -53.3999 H         1 UNK         0.3000 
    231 H231       -6.0927  -18.9159  -56.3338 H         1 UNK         0.0600 
    232 H232       -5.0879  -20.8499  -54.1768 H         1 UNK         0.0600 
    233 H233       -5.0308  -21.1148  -55.9131 H         1 UNK         0.0600 
    234 H234       -6.5834  -21.0217  -55.0952 H         1 UNK         0.0600 
    235 H235       -4.1799  -18.3529  -53.4464 H         1 UNK         0.3000 
    236 H236       -2.3112  -17.3317  -52.9665 H         1 UNK         0.0600 
    237 H237       -1.7313  -16.7449  -55.9139 H         1 UNK         0.0600 
    238 H238       -2.6375  -15.6847  -54.8315 H         1 UNK         0.0600 
    239 H239       -0.9435  -16.0272  -54.5198 H         1 UNK         0.0600 
    240 H240        0.0011  -17.7590  -52.8024 H         1 UNK         0.3000 
    241 H241        0.9962  -20.1931  -54.0274 H         1 UNK         0.0600 
    242 H242        1.7775  -17.2021  -52.5034 H         1 UNK         0.3800 
    243 H243        3.4760  -17.5872  -52.3909 H         1 UNK         0.3800 
    244 H244        1.0459  -21.5879  -52.0292 H         1 UNK         0.0800 
    245 H245       -0.5886  -21.1908  -52.4376 H         1 UNK         0.0800 
    246 H246       -2.2938  -20.1782  -50.8222 H         1 UNK         0.0800 
    247 H247       -1.6008  -18.6038  -51.1096 H         1 UNK         0.0800 
@<TRIPOS>BOND
     1    1    2 1    
     2    1  127 1    
     3    1  128 1    
     4    1  129 1    
     5    2    3 2    
     6    2    4 am   BACKBONE|DICT|INTERRES
     7    4    5 1    
     8    4  130 1    
     9    5    6 1    
    10    5   65 1    
    11    5  131 1    
    12    6    7 1    
    13    6  132 1    
    14    6  133 1    
    15    7    8 1    
    16    8    9 1    
    17    8  134 1    
    18    8  135 1    
    19    9   10 ar   
    20    9   14 ar   
    21   10   11 ar   
    22   10  136 1    
    23   11   12 ar   
    24   11  126 1    
    25   12   13 ar   
    26   12  137 1    
    27   13   14 ar   
    28   13   15 1    
    29   14  138 1    
    30   15   16 1    
    31   15  139 1    
    32   15  140 1    
    33   16   17 1    
    34   17   18 1    
    35   17  141 1    
    36   17  142 1    
    37   18   19 1    
    38   18   67 1    
    39   18  143 1    
    40   19   20 am   BACKBONE|DICT|INTERRES
    41   19  144 1    
    42   20   21 2    
    43   20   22 1    
    44   22   23 1    
    45   22   24 1    
    46   22  145 1    
    47   23  146 1    
    48   23  147 1    
    49   23  148 1    
    50   24   25 am   BACKBONE|DICT|INTERRES
    51   24  149 1    
    52   25   26 2    
    53   25   27 1    
    54   27   28 1    
    55   27   29 1    
    56   27  150 1    
    57   28  151 1    
    58   28  152 1    
    59   28  153 1    
    60   29   30 am   BACKBONE|DICT|INTERRES
    61   29  154 1    
    62   30   31 2    
    63   30   32 1    
    64   32   33 1    
    65   32   34 1    
    66   32  155 1    
    67   33  156 1    
    68   33  157 1    
    69   33  158 1    
    70   34   35 am   BACKBONE|DICT|INTERRES
    71   34  159 1    
    72   35   36 2    
    73   35   37 1    
    74   37   38 1    
    75   37   39 1    
    76   37  160 1    
    77   38  161 1    
    78   38  162 1    
    79   38  163 1    
    80   39   40 am   BACKBONE|DICT|INTERRES
    81   39  164 1    
    82   40   41 2    
    83   40   42 1    
    84   42   43 1    
    85   42   44 1    
    86   42  165 1    
    87   43  166 1    
    88   43  167 1    
    89   43  168 1    
    90   44   45 am   BACKBONE|DICT|INTERRES
    91   44  169 1    
    92   45   46 2    
    93   45   47 1    
    94   47   48 1    
    95   47   49 1    
    96   47  170 1    
    97   48  171 1    
    98   48  172 1    
    99   48  173 1    
   100   49   50 am   BACKBONE|DICT|INTERRES
   101   49  174 1    
   102   50   51 2    
   103   50   52 1    
   104   52   53 1    
   105   52   54 1    
   106   52  175 1    
   107   53  176 1    
   108   53  177 1    
   109   53  178 1    
   110   54   55 am   BACKBONE|DICT|INTERRES
   111   54  179 1    
   112   55   56 2    
   113   55   57 1    
   114   57   58 1    
   115   57   59 1    
   116   57  180 1    
   117   58  181 1    
   118   58  182 1    
   119   58  183 1    
   120   59   60 am   BACKBONE|DICT|INTERRES
   121   59  184 1    
   122   60   61 2    
   123   60   62 1    
   124   62   63 1    
   125   62   64 1    
   126   62  185 1    
   127   63  186 1    
   128   63  187 1    
   129   63  188 1    
   130   64   65 am   BACKBONE|DICT|INTERRES
   131   64  189 1    
   132   65   66 2    
   133   67   68 2    
   134   67   69 am   BACKBONE|DICT|INTERRES
   135   69   70 1    
   136   69  190 1    
   137   70   71 1    
   138   70   72 1    
   139   70  191 1    
   140   71  192 1    
   141   71  193 1    
   142   71  194 1    
   143   72   73 2    
   144   72   74 am   BACKBONE|DICT|INTERRES
   145   74   75 1    
   146   74  195 1    
   147   75   76 1    
   148   75   77 1    
   149   75  196 1    
   150   76  197 1    
   151   76  198 1    
   152   76  199 1    
   153   77   78 2    
   154   77   79 am   BACKBONE|DICT|INTERRES
   155   79   80 1    
   156   79  200 1    
   157   80   81 1    
   158   80   82 1    
   159   80  201 1    
   160   81  202 1    
   161   81  203 1    
   162   81  204 1    
   163   82   83 2    
   164   82   84 am   BACKBONE|DICT|INTERRES
   165   84   85 1    
   166   84  205 1    
   167   85   86 1    
   168   85   87 1    
   169   85  206 1    
   170   86  207 1    
   171   86  208 1    
   172   86  209 1    
   173   87   88 2    
   174   87   89 am   BACKBONE|DICT|INTERRES
   175   89   90 1    
   176   89  210 1    
   177   90   91 1    
   178   90   92 1    
   179   90  211 1    
   180   91  212 1    
   181   91  213 1    
   182   91  214 1    
   183   92   93 2    
   184   92   94 am   BACKBONE|DICT|INTERRES
   185   94   95 1    
   186   94  215 1    
   187   95   96 1    
   188   95   97 1    
   189   95  216 1    
   190   96  217 1    
   191   96  218 1    
   192   96  219 1    
   193   97   98 2    
   194   97   99 am   BACKBONE|DICT|INTERRES
   195   99  100 1    
   196   99  220 1    
   197  100  101 1    
   198  100  102 1    
   199  100  221 1    
   200  101  222 1    
   201  101  223 1    
   202  101  224 1    
   203  102  103 2    
   204  102  104 am   BACKBONE|DICT|INTERRES
   205  104  105 1    
   206  104  225 1    
   207  105  106 1    
   208  105  107 1    
   209  105  226 1    
   210  106  227 1    
   211  106  228 1    
   212  106  229 1    
   213  107  108 2    
   214  107  109 am   BACKBONE|DICT|INTERRES
   215  109  110 1    
   216  109  230 1    
   217  110  111 1    
   218  110  112 1    
   219  110  231 1    
   220  111  232 1    
   221  111  233 1    
   222  111  234 1    
   223  112  113 2    
   224  112  114 am   BACKBONE|DICT|INTERRES
   225  114  115 1    
   226  114  235 1    
   227  115  116 1    
   228  115  117 1    
   229  115  236 1    
   230  116  237 1    
   231  116  238 1    
   232  116  239 1    
   233  117  118 2    
   234  117  119 am   BACKBONE|DICT|INTERRES
   235  119  120 1    
   236  119  240 1    
   237  120  121 1    
   238  120  124 1    
   239  120  241 1    
   240  121  122 am   BACKBONE|DICT|INTERRES
   241  121  123 2    
   242  122  242 1    
   243  122  243 1    
   244  124  125 1    
   245  124  244 1    
   246  124  245 1    
   247  125  126 1    
   248  126  246 1    
   249  126  247 1    
@<TRIPOS>SUBSTRUCTURE
     1 UNK         1 GROUP             0       ****    0 ROOT    
