@<TRIPOS>MOLECULE
3R540
247   249    1
SMALL
USER_CHARGES


@<TRIPOS>ATOM
      1 CA          3.7080  -11.6545  -48.1595 C.3       0 UNK        -0.1800 
      2 C           2.1927  -11.5933  -48.0306 C.2       0 UNK         0.5000 
      3 O           1.5786  -10.6322  -48.4932 O.2       0 UNK        -0.5000 
      4 N           1.5975  -12.6113  -47.3927 N.am      1 UNK        -0.5000 
      5 CA          0.1510  -12.7838  -47.1682 C.3       1 UNK         0.1400 
      6 C6         -0.6826  -12.9031  -48.4760 C.3       23 UNK        -0.0398 
      7 S7         -0.0851  -14.2096  -49.6056 S.3       23 UNK        -0.2404 
      8 C8         -1.1489  -15.6001  -49.1155 C.3       23 UNK        -0.0205 
      9 C9         -0.9803  -16.7954  -50.0425 C.ar      23 UNK        -0.0193 
     10 C10        -1.9436  -17.0676  -51.0178 C.ar      23 UNK        -0.1150 
     11 C11        -1.8059  -18.1686  -51.8681 C.ar      23 UNK        -0.0193 
     12 C12        -0.6894  -18.9991  -51.7399 C.ar      23 UNK        -0.1150 
     13 C13         0.2915  -18.7294  -50.7802 C.ar      23 UNK        -0.0193 
     14 C14         0.1342  -17.6315  -49.9273 C.ar      23 UNK        -0.1150 
     15 C15         1.5491  -19.5861  -50.7094 C.3       23 UNK        -0.0205 
     16 S16         1.2566  -21.2266  -49.9771 S.3       23 UNK        -0.2404 
     17 C17         0.9502  -20.7996  -48.2305 C.3       23 UNK        -0.0398 
     18 CA         -0.2657  -21.5298  -47.6147 C.3       11 UNK         0.1400 
     19 N          -0.3193  -21.3464  -46.1620 N.am      11 UNK        -0.5000 
     20 C          -1.1592  -21.9849  -45.3354 C.2       10 UNK         0.5000 
     21 O          -1.9478  -22.8552  -45.7012 O.2       10 UNK        -0.5000 
     22 CA         -1.1554  -21.5407  -43.8612 C.3       10 UNK         0.1400 
     23 CB         -0.0022  -22.2020  -43.0924 C.3       10 UNK        -0.1800 
     24 N          -1.0782  -20.0861  -43.7170 N.am      10 UNK        -0.5000 
     25 C          -2.0234  -19.2320  -44.1363 C.2       9 UNK         0.5000 
     26 O          -3.0972  -19.5896  -44.6204 O.2       9 UNK        -0.5000 
     27 CA         -1.6888  -17.7295  -44.0586 C.3       9 UNK         0.1400 
     28 CB         -1.9140  -17.1832  -42.6414 C.3       9 UNK        -0.1800 
     29 N          -0.3193  -17.4395  -44.4873 N.am      9 UNK        -0.5000 
     30 C           0.1489  -17.6647  -45.7223 C.2       8 UNK         0.5000 
     31 O          -0.5457  -18.0808  -46.6458 O.2       8 UNK        -0.5000 
     32 CA          1.6525  -17.4465  -45.9547 C.3       8 UNK         0.1400 
     33 CB          1.9594  -15.9767  -46.2697 C.3       8 UNK        -0.1800 
     34 N           2.4429  -17.8906  -44.8082 N.am      8 UNK        -0.5000 
     35 C           2.6442  -19.1779  -44.4940 C.2       7 UNK         0.5000 
     36 O           2.2137  -20.1169  -45.1635 O.2       7 UNK        -0.5000 
     37 CA          3.4215  -19.4616  -43.1952 C.3       7 UNK         0.1400 
     38 CB          4.9354  -19.3973  -43.4455 C.3       7 UNK        -0.1800 
     39 N           3.0681  -18.5394  -42.1145 N.am      7 UNK        -0.5000 
     40 C           1.8675  -18.4998  -41.5201 C.2       6 UNK         0.5000 
     41 O           0.9455  -19.2665  -41.7956 O.2       6 UNK        -0.5000 
     42 CA          1.6412  -17.3872  -40.4785 C.3       6 UNK         0.1400 
     43 CB          2.0982  -17.8501  -39.0875 C.3       6 UNK        -0.1800 
     44 N           2.2946  -16.1150  -40.8034 N.am      6 UNK        -0.5000 
     45 C           2.1088  -15.4100  -41.9267 C.2       5 UNK         0.5000 
     46 O           1.3893  -15.7836  -42.8538 O.2       5 UNK        -0.5000 
     47 CA          2.8277  -14.0515  -42.0046 C.3       5 UNK         0.1400 
     48 CB          2.9802  -13.5518  -43.4533 C.3       5 UNK        -0.1800 
     49 N           2.0875  -13.0509  -41.2421 N.am      5 UNK        -0.5000 
     50 C           2.1245  -12.9061  -39.9075 C.2       4 UNK         0.5000 
     51 O           2.8340  -13.5952  -39.1731 O.2       4 UNK        -0.5000 
     52 CA          1.2215  -11.8260  -39.2840 C.3       4 UNK         0.1400 
     53 CB          2.0340  -10.5375  -39.0464 C.3       4 UNK        -0.1800 
     54 N           0.0680  -11.5661  -40.1430 N.am      4 UNK        -0.5000 
     55 C          -0.9896  -10.7891  -39.9024 C.2       3 UNK         0.5000 
     56 O          -1.1703  -10.1808  -38.8460 O.2       3 UNK        -0.5000 
     57 CA         -1.9983  -10.6681  -41.0698 C.3       3 UNK         0.1400 
     58 CB         -3.1826   -9.7425  -40.7371 C.3       3 UNK        -0.1800 
     59 N          -1.3705  -10.1996  -42.3131 N.am      3 UNK        -0.5000 
     60 C          -0.5576  -10.9121  -43.1047 C.2       2 UNK         0.5000 
     61 O          -0.2237  -12.0770  -42.8674 O.2       2 UNK        -0.5000 
     62 CA          0.0464  -10.1775  -44.3139 C.3       2 UNK         0.1400 
     63 CB          1.3024   -9.4023  -43.8855 C.3       2 UNK        -0.1800 
     64 N           0.4191  -11.1126  -45.3736 N.am      2 UNK        -0.5000 
     65 C          -0.4414  -11.7433  -46.1845 C.2       1 UNK         0.5000 
     66 O          -1.6568  -11.5399  -46.1634 O.2       1 UNK        -0.5000 
     67 C          -1.6005  -21.1471  -48.2919 C.2       11 UNK         0.5000 
     68 O          -2.1002  -21.9199  -49.1065 O.2       11 UNK        -0.5000 
     69 N          -2.1876  -20.0078  -47.8998 N.am      12 UNK        -0.5000 
     70 CA         -3.4936  -19.5430  -48.3709 C.3       12 UNK         0.1400 
     71 CB         -3.7625  -18.1301  -47.8328 C.3       12 UNK        -0.1800 
     72 C          -4.6465  -20.4870  -47.9814 C.2       12 UNK         0.5000 
     73 O          -5.5496  -20.7046  -48.7884 O.2       12 UNK        -0.5000 
     74 N          -4.5921  -21.0352  -46.7588 N.am      13 UNK        -0.5000 
     75 CA         -5.5530  -22.0121  -46.2461 C.3       13 UNK         0.1400 
     76 CB         -5.3636  -22.1730  -44.7299 C.3       13 UNK        -0.1800 
     77 C          -5.4534  -23.3724  -46.9619 C.2       13 UNK         0.5000 
     78 O          -6.4842  -23.9665  -47.2807 O.2       13 UNK        -0.5000 
     79 N          -4.2200  -23.8340  -47.2094 N.am      14 UNK        -0.5000 
     80 CA         -3.9187  -25.0538  -47.9600 C.3       14 UNK         0.1400 
     81 CB         -2.4403  -25.4118  -47.7551 C.3       14 UNK        -0.1800 
     82 C          -4.2455  -24.9275  -49.4599 C.2       14 UNK         0.5000 
     83 O          -4.7073  -25.8973  -50.0640 O.2       14 UNK        -0.5000 
     84 N          -4.0048  -23.7349  -50.0228 N.am      15 UNK        -0.5000 
     85 CA         -4.2426  -23.3261  -51.4054 C.3       15 UNK         0.1400 
     86 CB         -5.7558  -23.1526  -51.6557 C.3       15 UNK        -0.1800 
     87 C          -3.5389  -24.2737  -52.3938 C.2       15 UNK         0.5000 
     88 O          -2.3086  -24.3339  -52.3922 O.2       15 UNK        -0.5000 
     89 N          -4.3215  -25.0305  -53.1761 N.am      16 UNK        -0.5000 
     90 CA         -3.8696  -25.9860  -54.1907 C.3       16 UNK         0.1400 
     91 CB         -5.1048  -26.6081  -54.8599 C.3       16 UNK        -0.1800 
     92 C          -2.9413  -27.0980  -53.6605 C.2       16 UNK         0.5000 
     93 O          -2.1678  -27.6594  -54.4368 O.2       16 UNK        -0.5000 
     94 N          -3.0276  -27.3979  -52.3568 N.am      17 UNK        -0.5000 
     95 CA         -2.1652  -28.3627  -51.6768 C.3       17 UNK         0.1400 
     96 CB         -2.8623  -28.8357  -50.3917 C.3       17 UNK        -0.1800 
     97 C          -0.7566  -27.8151  -51.3650 C.2       17 UNK         0.5000 
     98 O           0.1347  -28.6171  -51.0819 O.2       17 UNK        -0.5000 
     99 N          -0.5729  -26.4870  -51.4047 N.am      18 UNK        -0.5000 
    100 CA         0.6899  -25.8150  -51.0933 C.3       18 UNK         0.1400 
    101 CB         0.4775  -24.8578  -49.9109 C.3       18 UNK        -0.1800 
    102 C          1.2637  -25.0601  -52.3025 C.2       18 UNK         0.5000 
    103 O          2.4712  -25.1363  -52.5357 O.2       18 UNK        -0.5000 
    104 N          0.4112  -24.3476  -53.0475 N.am      19 UNK        -0.5000 
    105 CA         0.7905  -23.5061  -54.1784 C.3       19 UNK         0.1400 
    106 CB         1.4017  -22.1806  -53.6714 C.3       19 UNK        -0.1800 
    107 C         -0.4210  -23.3333  -55.1120 C.2       19 UNK         0.5000 
    108 O         -1.0041  -24.3350  -55.5296 O.2       19 UNK        -0.5000 
    109 N         -0.7641  -22.0842  -55.4538 N.am      20 UNK        -0.5000 
    110 CA        -1.8971  -21.7287  -56.3070 C.3       20 UNK         0.1400 
    111 CB        -1.7589  -20.2593  -56.7342 C.3       20 UNK        -0.1800 
    112 C         -3.2455  -21.9609  -55.6028 C.2       20 UNK         0.5000 
    113 O         -3.3521  -21.7668  -54.3901 O.2       20 UNK        -0.5000 
    114 N         -4.2632  -22.3337  -56.3869 N.am      21 UNK        -0.5000 
    115 CA        -5.6222  -22.6481  -55.9423 C.3       21 UNK         0.1400 
    116 CB        -6.2931  -23.5198  -57.0198 C.3       21 UNK        -0.1800 
    117 C         -6.4520  -21.3910  -55.5953 C.2       21 UNK         0.5000 
    118 O         -7.5129  -21.1688  -56.1814 O.2       21 UNK        -0.5000 
    119 N         -5.9524  -20.5837  -54.6533 N.am      22 UNK        -0.5000 
    120 CA        -6.5878  -19.3472  -54.1667 C.3       22 UNK         0.1400 
    121 C         -7.7567  -19.5399  -53.1529 C.2       22 UNK         0.5000 
    122 N         -8.1155  -20.7570  -52.7649 N.am      22 UNK        -0.7600 
    123 O         -8.3709  -18.5643  -52.7290 O.2       22 UNK        -0.5000 
    124 C124       -5.5394  -18.3143  -53.6805 C.3       23 UNK        -0.0398 
    125 S125       -4.4611  -18.8849  -52.3159 S.3       23 UNK        -0.2404 
    126 C126       -2.8279  -18.4119  -52.9682 C.3       23 UNK        -0.0205 
    127 H127        4.1194  -12.5524  -47.6975 H         1 UNK         0.0600 
    128 H128        4.1608  -10.7871  -47.6792 H         1 UNK         0.0600 
    129 H129        3.9946  -11.6520  -49.2111 H         1 UNK         0.0600 
    130 H130        2.1753  -13.3634  -47.0470 H         1 UNK         0.3000 
    131 H131        0.0488  -13.7350  -46.6452 H         1 UNK         0.0600 
    132 H132       -1.7318  -13.0971  -48.2479 H         1 UNK         0.0800 
    133 H133       -0.6719  -11.9582  -49.0208 H         1 UNK         0.0800 
    134 H134       -0.9148  -15.8899  -48.0915 H         1 UNK         0.0800 
    135 H135       -2.1906  -15.2757  -49.1128 H         1 UNK         0.0800 
    136 H136       -2.8023  -16.4193  -51.1222 H         1 UNK         0.1150 
    137 H137       -0.5710  -19.8416  -52.4046 H         1 UNK         0.1150 
    138 H138        0.8862  -17.4124  -49.1831 H         1 UNK         0.1150 
    139 H139        1.9422  -19.7211  -51.7179 H         1 UNK         0.0800 
    140 H140        2.3336  -19.0766  -50.1477 H         1 UNK         0.0800 
    141 H141        1.8534  -21.0596  -47.6774 H         1 UNK         0.0800 
    142 H142        0.8371  -19.7224  -48.1265 H         1 UNK         0.0800 
    143 H143       -0.1208  -22.5992  -47.7823 H         1 UNK         0.0600 
    144 H144        0.3346  -20.6793  -45.7674 H         1 UNK         0.3000 
    145 H145       -2.0944  -21.8712  -43.4127 H         1 UNK         0.0600 
    146 H146       -0.0430  -21.9530  -42.0319 H         1 UNK         0.0600 
    147 H147       -0.0509  -23.2885  -43.1740 H         1 UNK         0.0600 
    148 H148        0.9700  -21.8867  -43.4715 H         1 UNK         0.0600 
    149 H149       -0.2479  -19.7161  -43.2635 H         1 UNK         0.3000 
    150 H150       -2.3648  -17.2032  -44.7357 H         1 UNK         0.0600 
    151 H151       -2.9518  -17.3169  -42.3343 H         1 UNK         0.0600 
    152 H152       -1.6917  -16.1170  -42.5887 H         1 UNK         0.0600 
    153 H153       -1.2884  -17.6923  -41.9090 H         1 UNK         0.0600 
    154 H154        0.3075  -17.0347  -43.7970 H         1 UNK         0.3000 
    155 H155        1.9500  -18.0390  -46.8219 H         1 UNK         0.0600 
    156 H156        3.0297  -15.8139  -46.3966 H         1 UNK         0.0600 
    157 H157        1.6067  -15.3126  -45.4813 H         1 UNK         0.0600 
    158 H158        1.4738  -15.6770  -47.1986 H         1 UNK         0.0600 
    159 H159        2.7548  -17.1757  -44.1670 H         1 UNK         0.3000 
    160 H160        3.1715  -20.4748  -42.8733 H         1 UNK         0.0600 
    161 H161        5.2535  -18.3987  -43.7474 H         1 UNK         0.0600 
    162 H162        5.2292  -20.0888  -44.2365 H         1 UNK         0.0600 
    163 H163        5.4947  -19.6723  -42.5511 H         1 UNK         0.0600 
    164 H164        3.7704  -17.8734  -41.8283 H         1 UNK         0.3000 
    165 H165        0.5677  -17.1958  -40.4346 H         1 UNK         0.0600 
    166 H166        3.1752  -18.0190  -39.0530 H         1 UNK         0.0600 
    167 H167        1.8495  -17.1119  -38.3248 H         1 UNK         0.0600 
    168 H168        1.6095  -18.7839  -38.8060 H         1 UNK         0.0600 
    169 H169        2.8530  -15.6944  -40.0713 H         1 UNK         0.3000 
    170 H170        3.8280  -14.1667  -41.5819 H         1 UNK         0.0600 
    171 H171        3.5320  -14.2720  -44.0585 H         1 UNK         0.0600 
    172 H172        2.0128  -13.3909  -43.9306 H         1 UNK         0.0600 
    173 H173        3.5290  -12.6106  -43.4887 H         1 UNK         0.0600 
    174 H174        1.4564  -12.4838  -41.7929 H         1 UNK         0.3000 
    175 H175        0.8596  -12.2053  -38.3266 H         1 UNK         0.0600 
    176 H176        1.4601   -9.7947  -38.4930 H         1 UNK         0.0600 
    177 H177        2.9325  -10.7435  -38.4631 H         1 UNK         0.0600 
    178 H178        2.3493  -10.0848  -39.9873 H         1 UNK         0.0600 
    179 H179        0.0689  -12.0350  -41.0440 H         1 UNK         0.3000 
    180 H180       -2.4015  -11.6677  -41.2458 H         1 UNK         0.0600 
    181 H181       -3.9084   -9.7230  -41.5503 H         1 UNK         0.0600 
    182 H182       -3.7086  -10.0840  -39.8446 H         1 UNK         0.0600 
    183 H183       -2.8546   -8.7183  -40.5548 H         1 UNK         0.0600 
    184 H184       -1.5516   -9.2359  -42.5549 H         1 UNK         0.3000 
    185 H185       -0.6905   -9.4737  -44.7067 H         1 UNK         0.0600 
    186 H186        1.7372   -8.8609  -44.7261 H         1 UNK         0.0600 
    187 H187        1.0674   -8.6673  -43.1145 H         1 UNK         0.0600 
    188 H188        2.0684  -10.0664  -43.4820 H         1 UNK         0.0600 
    189 H189        1.3965  -11.3514  -45.4424 H         1 UNK         0.3000 
    190 H190       -1.6842  -19.3887  -47.2685 H         1 UNK         0.3000 
    191 H191       -3.4497  -19.4934  -49.4607 H         1 UNK         0.0600 
    192 H192       -4.6824  -17.7228  -48.2535 H         1 UNK         0.0600 
    193 H193       -2.9558  -17.4492  -48.0924 H         1 UNK         0.0600 
    194 H194       -3.8640  -18.1220  -46.7476 H         1 UNK         0.0600 
    195 H195       -3.8483  -20.7495  -46.1305 H         1 UNK         0.3000 
    196 H196       -6.5566  -21.6184  -46.4194 H         1 UNK         0.0600 
    197 H197       -5.4977  -21.2224  -44.2133 H         1 UNK         0.0600 
    198 H198       -4.3705  -22.5489  -44.4838 H         1 UNK         0.0600 
    199 H199       -6.0912  -22.8734  -44.3181 H         1 UNK         0.0600 
    200 H200       -3.4234  -23.3120  -46.8540 H         1 UNK         0.3000 
    201 H201       -4.5263  -25.8659  -47.5557 H         1 UNK         0.0600 
    202 H202       -2.2322  -25.6380  -46.7092 H         1 UNK         0.0600 
    203 H203       -1.7923  -24.5867  -48.0501 H         1 UNK         0.0600 
    204 H204       -2.1540  -26.2845  -48.3419 H         1 UNK         0.0600 
    205 H205       -3.5053  -23.0433  -49.4675 H         1 UNK         0.3000 
    206 H206       -3.7707  -22.3496  -51.5278 H         1 UNK         0.0600 
    207 H207       -6.1707  -22.3997  -50.9850 H         1 UNK         0.0600 
    208 H208       -5.9457  -22.8121  -52.6725 H         1 UNK         0.0600 
    209 H209       -6.3132  -24.0761  -51.4960 H         1 UNK         0.0600 
    210 H210       -5.3196  -24.9596  -53.0473 H         1 UNK         0.3000 
    211 H211       -3.3177  -25.4236  -54.9448 H         1 UNK         0.0600 
    212 H212       -5.6884  -27.1989  -54.1526 H         1 UNK         0.0600 
    213 H213       -4.8143  -27.2685  -55.6780 H         1 UNK         0.0600 
    214 H214       -5.7608  -25.8455  -55.2770 H         1 UNK         0.0600 
    215 H215       -3.6868  -26.8886  -51.7791 H         1 UNK         0.3000 
    216 H216       -2.0378  -29.2325  -52.3248 H         1 UNK         0.0600 
    217 H217       -2.2660  -29.5904  -49.8773 H         1 UNK         0.0600 
    218 H218       -3.8318  -29.2831  -50.6111 H         1 UNK         0.0600 
    219 H219       -3.0238  -28.0149  -49.6941 H         1 UNK         0.0600 
    220 H220       -1.3403  -25.8895  -51.6954 H         1 UNK         0.3000 
    221 H221        1.4469  -26.5410  -50.7900 H         1 UNK         0.0600 
    222 H222       -0.3184  -24.1380  -50.1091 H         1 UNK         0.0600 
    223 H223        0.2217  -25.4096  -49.0073 H         1 UNK         0.0600 
    224 H224        1.3861  -24.2946  -49.6949 H         1 UNK         0.0600 
    225 H225       -0.5835  -24.3486  -52.8222 H         1 UNK         0.3000 
    226 H226        1.5483  -24.0292  -54.7650 H         1 UNK         0.0600 
    227 H227        2.2860  -22.3612  -53.0601 H         1 UNK         0.0600 
    228 H228        1.7168  -21.5404  -54.4961 H         1 UNK         0.0600 
    229 H229        0.6918  -21.6261  -53.0591 H         1 UNK         0.0600 
    230 H230       -0.2529  -21.3169  -55.0449 H         1 UNK         0.3000 
    231 H231       -1.8579  -22.3541  -57.2015 H         1 UNK         0.0600 
    232 H232       -2.5844  -19.9594  -57.3811 H         1 UNK         0.0600 
    233 H233       -0.8362  -20.0966  -57.2915 H         1 UNK         0.0600 
    234 H234       -1.7544  -19.5866  -55.8765 H         1 UNK         0.0600 
    235 H235       -4.0993  -22.4191  -57.3796 H         1 UNK         0.3000 
    236 H236       -5.5541  -23.2467  -55.0333 H         1 UNK         0.0600 
    237 H237       -6.4189  -22.9760  -57.9570 H         1 UNK         0.0600 
    238 H238       -5.7048  -24.4127  -57.2312 H         1 UNK         0.0600 
    239 H239       -7.2805  -23.8519  -56.6964 H         1 UNK         0.0600 
    240 H240       -5.0571  -20.8254  -54.2377 H         1 UNK         0.3000 
    241 H241       -7.0691  -18.8865  -55.0315 H         1 UNK         0.0600 
    242 H242       -8.8785  -20.8629  -52.1153 H         1 UNK         0.3800 
    243 H243       -7.6418  -21.5684  -53.1214 H         1 UNK         0.3800 
    244 H244       -4.9210  -18.0340  -54.5338 H         1 UNK         0.0800 
    245 H245       -6.0260  -17.3894  -53.3664 H         1 UNK         0.0800 
    246 H246       -2.4871  -19.1912  -53.6502 H         1 UNK         0.0800 
    247 H247       -2.9099  -17.4969  -53.5564 H         1 UNK         0.0800 
@<TRIPOS>BOND
     1    1    2 1    
     2    1  127 1    
     3    1  128 1    
     4    1  129 1    
     5    2    3 2    
     6    2    4 am   BACKBONE|DICT|INTERRES
     7    4    5 1    
     8    4  130 1    
     9    5    6 1    
    10    5   65 1    
    11    5  131 1    
    12    6    7 1    
    13    6  132 1    
    14    6  133 1    
    15    7    8 1    
    16    8    9 1    
    17    8  134 1    
    18    8  135 1    
    19    9   10 ar   
    20    9   14 ar   
    21   10   11 ar   
    22   10  136 1    
    23   11   12 ar   
    24   11  126 1    
    25   12   13 ar   
    26   12  137 1    
    27   13   14 ar   
    28   13   15 1    
    29   14  138 1    
    30   15   16 1    
    31   15  139 1    
    32   15  140 1    
    33   16   17 1    
    34   17   18 1    
    35   17  141 1    
    36   17  142 1    
    37   18   19 1    
    38   18   67 1    
    39   18  143 1    
    40   19   20 am   BACKBONE|DICT|INTERRES
    41   19  144 1    
    42   20   21 2    
    43   20   22 1    
    44   22   23 1    
    45   22   24 1    
    46   22  145 1    
    47   23  146 1    
    48   23  147 1    
    49   23  148 1    
    50   24   25 am   BACKBONE|DICT|INTERRES
    51   24  149 1    
    52   25   26 2    
    53   25   27 1    
    54   27   28 1    
    55   27   29 1    
    56   27  150 1    
    57   28  151 1    
    58   28  152 1    
    59   28  153 1    
    60   29   30 am   BACKBONE|DICT|INTERRES
    61   29  154 1    
    62   30   31 2    
    63   30   32 1    
    64   32   33 1    
    65   32   34 1    
    66   32  155 1    
    67   33  156 1    
    68   33  157 1    
    69   33  158 1    
    70   34   35 am   BACKBONE|DICT|INTERRES
    71   34  159 1    
    72   35   36 2    
    73   35   37 1    
    74   37   38 1    
    75   37   39 1    
    76   37  160 1    
    77   38  161 1    
    78   38  162 1    
    79   38  163 1    
    80   39   40 am   BACKBONE|DICT|INTERRES
    81   39  164 1    
    82   40   41 2    
    83   40   42 1    
    84   42   43 1    
    85   42   44 1    
    86   42  165 1    
    87   43  166 1    
    88   43  167 1    
    89   43  168 1    
    90   44   45 am   BACKBONE|DICT|INTERRES
    91   44  169 1    
    92   45   46 2    
    93   45   47 1    
    94   47   48 1    
    95   47   49 1    
    96   47  170 1    
    97   48  171 1    
    98   48  172 1    
    99   48  173 1    
   100   49   50 am   BACKBONE|DICT|INTERRES
   101   49  174 1    
   102   50   51 2    
   103   50   52 1    
   104   52   53 1    
   105   52   54 1    
   106   52  175 1    
   107   53  176 1    
   108   53  177 1    
   109   53  178 1    
   110   54   55 am   BACKBONE|DICT|INTERRES
   111   54  179 1    
   112   55   56 2    
   113   55   57 1    
   114   57   58 1    
   115   57   59 1    
   116   57  180 1    
   117   58  181 1    
   118   58  182 1    
   119   58  183 1    
   120   59   60 am   BACKBONE|DICT|INTERRES
   121   59  184 1    
   122   60   61 2    
   123   60   62 1    
   124   62   63 1    
   125   62   64 1    
   126   62  185 1    
   127   63  186 1    
   128   63  187 1    
   129   63  188 1    
   130   64   65 am   BACKBONE|DICT|INTERRES
   131   64  189 1    
   132   65   66 2    
   133   67   68 2    
   134   67   69 am   BACKBONE|DICT|INTERRES
   135   69   70 1    
   136   69  190 1    
   137   70   71 1    
   138   70   72 1    
   139   70  191 1    
   140   71  192 1    
   141   71  193 1    
   142   71  194 1    
   143   72   73 2    
   144   72   74 am   BACKBONE|DICT|INTERRES
   145   74   75 1    
   146   74  195 1    
   147   75   76 1    
   148   75   77 1    
   149   75  196 1    
   150   76  197 1    
   151   76  198 1    
   152   76  199 1    
   153   77   78 2    
   154   77   79 am   BACKBONE|DICT|INTERRES
   155   79   80 1    
   156   79  200 1    
   157   80   81 1    
   158   80   82 1    
   159   80  201 1    
   160   81  202 1    
   161   81  203 1    
   162   81  204 1    
   163   82   83 2    
   164   82   84 am   BACKBONE|DICT|INTERRES
   165   84   85 1    
   166   84  205 1    
   167   85   86 1    
   168   85   87 1    
   169   85  206 1    
   170   86  207 1    
   171   86  208 1    
   172   86  209 1    
   173   87   88 2    
   174   87   89 am   BACKBONE|DICT|INTERRES
   175   89   90 1    
   176   89  210 1    
   177   90   91 1    
   178   90   92 1    
   179   90  211 1    
   180   91  212 1    
   181   91  213 1    
   182   91  214 1    
   183   92   93 2    
   184   92   94 am   BACKBONE|DICT|INTERRES
   185   94   95 1    
   186   94  215 1    
   187   95   96 1    
   188   95   97 1    
   189   95  216 1    
   190   96  217 1    
   191   96  218 1    
   192   96  219 1    
   193   97   98 2    
   194   97   99 am   BACKBONE|DICT|INTERRES
   195   99  100 1    
   196   99  220 1    
   197  100  101 1    
   198  100  102 1    
   199  100  221 1    
   200  101  222 1    
   201  101  223 1    
   202  101  224 1    
   203  102  103 2    
   204  102  104 am   BACKBONE|DICT|INTERRES
   205  104  105 1    
   206  104  225 1    
   207  105  106 1    
   208  105  107 1    
   209  105  226 1    
   210  106  227 1    
   211  106  228 1    
   212  106  229 1    
   213  107  108 2    
   214  107  109 am   BACKBONE|DICT|INTERRES
   215  109  110 1    
   216  109  230 1    
   217  110  111 1    
   218  110  112 1    
   219  110  231 1    
   220  111  232 1    
   221  111  233 1    
   222  111  234 1    
   223  112  113 2    
   224  112  114 am   BACKBONE|DICT|INTERRES
   225  114  115 1    
   226  114  235 1    
   227  115  116 1    
   228  115  117 1    
   229  115  236 1    
   230  116  237 1    
   231  116  238 1    
   232  116  239 1    
   233  117  118 2    
   234  117  119 am   BACKBONE|DICT|INTERRES
   235  119  120 1    
   236  119  240 1    
   237  120  121 1    
   238  120  124 1    
   239  120  241 1    
   240  121  122 am   BACKBONE|DICT|INTERRES
   241  121  123 2    
   242  122  242 1    
   243  122  243 1    
   244  124  125 1    
   245  124  244 1    
   246  124  245 1    
   247  125  126 1    
   248  126  246 1    
   249  126  247 1    
@<TRIPOS>SUBSTRUCTURE
     1 UNK         1 GROUP             0       ****    0 ROOT    
