@<TRIPOS>MOLECULE
3R540
247   249    1
SMALL
USER_CHARGES


@<TRIPOS>ATOM
      1 CA          6.9722  -11.5274  -50.3054 C.3       0 UNK        -0.1800 
      2 C           6.0229  -11.5839  -49.1171 C.2       0 UNK         0.5000 
      3 O           5.9578  -10.6326  -48.3386 O.2       0 UNK        -0.5000 
      4 N           5.2838  -12.6922  -48.9775 N.am      1 UNK        -0.5000 
      5 CA          4.3100  -12.9291  -47.9022 C.3       1 UNK         0.1400 
      6 C6          4.1209  -14.4406  -47.6321 C.3       23 UNK        -0.0398 
      7 S7          3.5195  -15.4062  -49.0619 S.3       23 UNK        -0.2404 
      8 C8          2.0106  -16.1284  -48.3552 C.3       23 UNK        -0.0205 
      9 C9          1.4196  -17.1914  -49.2654 C.ar      23 UNK        -0.0193 
     10 C10         0.5704  -16.8278  -50.3131 C.ar      23 UNK        -0.1150 
     11 C11        -0.0645  -17.8030  -51.0864 C.ar      23 UNK        -0.0193 
     12 C12         0.2009  -19.1532  -50.8385 C.ar      23 UNK        -0.1150 
     13 C13         1.0893  -19.5301  -49.8258 C.ar      23 UNK        -0.0193 
     14 C14         1.6900  -18.5437  -49.0378 C.ar      23 UNK        -0.1150 
     15 C15         1.4266  -20.9985  -49.6115 C.3       23 UNK        -0.0205 
     16 S16         0.9649  -21.5963  -47.9567 S.3       23 UNK        -0.2404 
     17 C17         1.2786  -23.3821  -48.1883 C.3       23 UNK        -0.0398 
     18 CA          0.9546  -24.2590  -46.9549 C.3       11 UNK         0.1400 
     19 N           1.7202  -23.8453  -45.7776 N.am      11 UNK        -0.5000 
     20 C           1.8204  -24.5321  -44.6322 C.2       10 UNK         0.5000 
     21 O           1.3249  -25.6467  -44.4617 O.2       10 UNK        -0.5000 
     22 CA          2.5648  -23.8438  -43.4697 C.3       10 UNK         0.1400 
     23 CB          3.9966  -24.3886  -43.3555 C.3       10 UNK        -0.1800 
     24 N           2.6185  -22.3775  -43.5522 N.am      10 UNK        -0.5000 
     25 C           1.5550  -21.5620  -43.5775 C.2       9 UNK         0.5000 
     26 O           0.3914  -21.9631  -43.6366 O.2       9 UNK        -0.5000 
     27 CA          1.8541  -20.0503  -43.5798 C.3       9 UNK         0.1400 
     28 CB          2.0591  -19.5449  -45.0171 C.3       9 UNK        -0.1800 
     29 N           0.7877  -19.2624  -42.9655 N.am      9 UNK        -0.5000 
     30 C           0.3552  -19.3591  -41.7009 C.2       8 UNK         0.5000 
     31 O           0.8665  -20.0921  -40.8528 O.2       8 UNK        -0.5000 
     32 CA         -0.8499  -18.4828  -41.3157 C.3       8 UNK         0.1400 
     33 CB         -0.3761  -17.1192  -40.7868 C.3       8 UNK        -0.1800 
     34 N          -1.7482  -18.2685  -42.4521 N.am      8 UNK        -0.5000 
     35 C          -2.8348  -19.0071  -42.7187 C.2       7 UNK         0.5000 
     36 O          -3.2227  -19.9289  -42.0006 O.2       7 UNK        -0.5000 
     37 CA         -3.6447  -18.6538  -43.9840 C.3       7 UNK         0.1400 
     38 CB         -4.9362  -17.9109  -43.6091 C.3       7 UNK        -0.1800 
     39 N          -2.8894  -17.8286  -44.9266 N.am      7 UNK        -0.5000 
     40 C          -2.0690  -18.3113  -45.8683 C.2       6 UNK         0.5000 
     41 O          -1.9370  -19.5076  -46.1161 O.2       6 UNK        -0.5000 
     42 CA         -1.2613  -17.2854  -46.6833 C.3       6 UNK         0.1400 
     43 CB         -1.9453  -17.0514  -48.0334 C.3       6 UNK        -0.1800 
     44 N          -1.0482  -15.9943  -46.0135 N.am      6 UNK        -0.5000 
     45 C          -0.3420  -15.8397  -44.8824 C.2       5 UNK         0.5000 
     46 O           0.1028  -16.7946  -44.2478 O.2       5 UNK        -0.5000 
     47 CA         -0.0799  -14.4165  -44.3506 C.3       5 UNK         0.1400 
     48 CB          1.4277  -14.1555  -44.2187 C.3       5 UNK        -0.1800 
     49 N          -0.6600  -13.3685  -45.1877 N.am      5 UNK        -0.5000 
     50 C          -1.8905  -12.8624  -45.0366 C.2       4 UNK         0.5000 
     51 O          -2.6751  -13.2185  -44.1571 O.2       4 UNK        -0.5000 
     52 CA         -2.3257  -11.7984  -46.0634 C.3       4 UNK         0.1400 
     53 CB         -1.9591  -10.3910  -45.5695 C.3       4 UNK        -0.1800 
     54 N          -1.7468  -12.0008  -47.3941 N.am      4 UNK        -0.5000 
     55 C          -1.9362  -13.0753  -48.1683 C.2       3 UNK         0.5000 
     56 O          -2.6310  -14.0277  -47.8197 O.2       3 UNK        -0.5000 
     57 CA         -1.2098  -13.1390  -49.5292 C.3       3 UNK         0.1400 
     58 CB         -2.1544  -12.7396  -50.6762 C.3       3 UNK        -0.1800 
     59 N           0.0681  -12.4121  -49.6118 N.am      3 UNK        -0.5000 
     60 C           0.2913  -11.0925  -49.5276 C.2       2 UNK         0.5000 
     61 O          -0.5990  -10.2647  -49.3286 O.2       2 UNK        -0.5000 
     62 CA          1.7519  -10.6174  -49.6788 C.3       2 UNK         0.1400 
     63 CB          2.0127   -9.2870  -48.9412 C.3       2 UNK        -0.1800 
     64 N           2.7751  -11.6030  -49.3052 N.am      2 UNK        -0.5000 
     65 C           2.9721  -12.1749  -48.1054 C.2       1 UNK         0.5000 
     66 O           2.1691  -12.1066  -47.1731 O.2       1 UNK        -0.5000 
     67 C          -0.5671  -24.3651  -46.6963 C.2       11 UNK         0.5000 
     68 O          -1.2341  -25.1273  -47.3960 O.2       11 UNK        -0.5000 
     69 N          -1.0806  -23.6589  -45.6734 N.am      12 UNK        -0.5000 
     70 CA         -2.4869  -23.6516  -45.2513 C.3       12 UNK         0.1400 
     71 CB         -2.6972  -22.5322  -44.2218 C.3       12 UNK        -0.1800 
     72 C          -3.0006  -24.9950  -44.6928 C.2       12 UNK         0.5000 
     73 O          -4.2044  -25.1340  -44.4720 O.2       12 UNK        -0.5000 
     74 N          -2.1016  -25.9707  -44.4956 N.am      13 UNK        -0.5000 
     75 CA         -2.4312  -27.3730  -44.2322 C.3       13 UNK         0.1400 
     76 CB         -1.1424  -28.1190  -43.8553 C.3       13 UNK        -0.1800 
     77 C          -3.1298  -28.0664  -45.4245 C.2       13 UNK         0.5000 
     78 O          -3.7812  -29.0932  -45.2277 O.2       13 UNK        -0.5000 
     79 N          -2.9940  -27.4931  -46.6263 N.am      14 UNK        -0.5000 
     80 CA         -3.6784  -27.8855  -47.8515 C.3       14 UNK         0.1400 
     81 CB         -2.7436  -28.7921  -48.6786 C.3       14 UNK        -0.1800 
     82 C          -4.1170  -26.6096  -48.5988 C.2       14 UNK         0.5000 
     83 O          -4.2876  -25.5595  -47.9763 O.2       14 UNK        -0.5000 
     84 N          -4.2833  -26.7163  -49.9215 N.am      15 UNK        -0.5000 
     85 CA         -4.5321  -25.5980  -50.8371 C.3       15 UNK         0.1400 
     86 CB         -5.8025  -25.8960  -51.6528 C.3       15 UNK        -0.1800 
     87 C          -3.3111  -25.3542  -51.7492 C.2       15 UNK         0.5000 
     88 O          -3.4529  -24.7446  -52.8111 O.2       15 UNK        -0.5000 
     89 N          -2.1369  -25.8552  -51.3344 N.am      16 UNK        -0.5000 
     90 CA         -0.8610  -25.7910  -52.0482 C.3       16 UNK         0.1400 
     91 CB          0.2198  -26.4700  -51.1926 C.3       16 UNK        -0.1800 
     92 C          -0.4590  -24.3456  -52.3837 C.2       16 UNK         0.5000 
     93 O          -0.4506  -23.5016  -51.4893 O.2       16 UNK        -0.5000 
     94 N          -0.1821  -24.0819  -53.6679 N.am      17 UNK        -0.5000 
     95 CA          0.1343  -22.7649  -54.2394 C.3       17 UNK         0.1400 
     96 CB          1.5080  -22.2715  -53.7370 C.3       17 UNK        -0.1800 
     97 C          -0.9831  -21.7122  -54.0425 C.2       17 UNK         0.5000 
     98 O          -0.6939  -20.5161  -54.0265 O.2       17 UNK        -0.5000 
     99 N          -2.2341  -22.1800  -53.9037 N.am      18 UNK        -0.5000 
    100 CA        -3.4478  -21.4107  -53.6160 C.3       18 UNK         0.1400 
    101 CB        -3.7637  -20.4028  -54.7429 C.3       18 UNK        -0.1800 
    102 C         -3.4363  -20.7696  -52.2132 C.2       18 UNK         0.5000 
    103 O         -3.9152  -19.6466  -52.0556 O.2       18 UNK        -0.5000 
    104 N         -2.9126  -21.5019  -51.2162 N.am      19 UNK        -0.5000 
    105 CA        -2.8920  -21.1307  -49.7966 C.3       19 UNK         0.1400 
    106 CB        -2.3935  -22.3181  -48.9668 C.3       19 UNK        -0.1800 
    107 C         -4.2702  -20.6881  -49.2736 C.2       19 UNK         0.5000 
    108 O         -5.2593  -21.3912  -49.4956 O.2       19 UNK        -0.5000 
    109 N         -4.3073  -19.5103  -48.6375 N.am      20 UNK        -0.5000 
    110 CA        -5.4726  -18.7556  -48.1555 C.3       20 UNK         0.1400 
    111 CB        -6.2685  -19.5514  -47.1045 C.3       20 UNK        -0.1800 
    112 C         -6.3894  -18.2226  -49.2781 C.2       20 UNK         0.5000 
    113 O         -6.8225  -17.0719  -49.2045 O.2       20 UNK        -0.5000 
    114 N         -6.6438  -19.0417  -50.3068 N.am      21 UNK        -0.5000 
    115 CA        -7.4565  -18.7417  -51.4876 C.3       21 UNK         0.1400 
    116 CB        -7.5422  -19.9984  -52.3676 C.3       21 UNK        -0.1800 
    117 C         -6.9542  -17.5372  -52.3073 C.2       21 UNK         0.5000 
    118 O         -7.7715  -16.8315  -52.9002 O.2       21 UNK        -0.5000 
    119 N         -5.6355  -17.3049  -52.3032 N.am      22 UNK        -0.5000 
    120 CA        -4.9890  -16.1105  -52.8664 C.3       22 UNK         0.1400 
    121 C         -5.3070  -14.7698  -52.1349 C.2       22 UNK         0.5000 
    122 N         -5.8967  -14.7724  -50.9440 N.am      22 UNK        -0.7600 
    123 O         -5.0296  -13.7015  -52.6732 O.2       22 UNK        -0.5000 
    124 C124       -3.4644  -16.3185  -53.0620 C.3       23 UNK        -0.0398 
    125 S125       -2.5434  -16.6362  -51.5163 S.3       23 UNK        -0.2404 
    126 C126       -1.0300  -17.3926  -52.1888 C.3       23 UNK        -0.0205 
    127 H127        7.9986  -11.4035  -49.9599 H         1 UNK         0.0600 
    128 H128        6.7222  -10.6812  -50.9455 H         1 UNK         0.0600 
    129 H129        6.9233  -12.4353  -50.9071 H         1 UNK         0.0600 
    130 H130        5.3797  -13.4447  -49.6458 H         1 UNK         0.3000 
    131 H131        4.7346  -12.5103  -46.9871 H         1 UNK         0.0600 
    132 H132        5.0772  -14.8704  -47.3307 H         1 UNK         0.0800 
    133 H133        3.4645  -14.5896  -46.7760 H         1 UNK         0.0800 
    134 H134        2.2351  -16.5652  -47.3804 H         1 UNK         0.0800 
    135 H135        1.2775  -15.3402  -48.1763 H         1 UNK         0.0800 
    136 H136        0.3740  -15.7847  -50.5082 H         1 UNK         0.1150 
    137 H137       -0.2752  -19.9115  -51.4443 H         1 UNK         0.1150 
    138 H138        2.3620  -18.8326  -48.2419 H         1 UNK         0.1150 
    139 H139        0.9208  -21.6103  -50.3580 H         1 UNK         0.0800 
    140 H140        2.4966  -21.1453  -49.7631 H         1 UNK         0.0800 
    141 H141        0.7183  -23.7324  -49.0565 H         1 UNK         0.0800 
    142 H142        2.3300  -23.5066  -48.4506 H         1 UNK         0.0800 
    143 H143        1.2833  -25.2725  -47.1950 H         1 UNK         0.0600 
    144 H144        2.1347  -22.9260  -45.8217 H         1 UNK         0.3000 
    145 H145        2.0284  -24.0987  -42.5535 H         1 UNK         0.0600 
    146 H146        4.5023  -23.9908  -42.4754 H         1 UNK         0.0600 
    147 H147        3.9958  -25.4757  -43.2629 H         1 UNK         0.0600 
    148 H148        4.5942  -24.1344  -44.2318 H         1 UNK         0.0600 
    149 H149        3.5416  -21.9684  -43.5288 H         1 UNK         0.3000 
    150 H150        2.7680  -19.8756  -43.0090 H         1 UNK         0.0600 
    151 H151        2.8450  -20.1028  -45.5275 H         1 UNK         0.0600 
    152 H152        2.3470  -18.4933  -45.0290 H         1 UNK         0.0600 
    153 H153        1.1472  -19.6451  -45.6076 H         1 UNK         0.0600 
    154 H154        0.3519  -18.5688  -43.5635 H         1 UNK         0.3000 
    155 H155       -1.3852  -18.9875  -40.5086 H         1 UNK         0.0600 
    156 H156        0.2672  -17.2428  -39.9148 H         1 UNK         0.0600 
    157 H157       -1.2201  -16.5000  -40.4827 H         1 UNK         0.0600 
    158 H158        0.1919  -16.5672  -41.5363 H         1 UNK         0.0600 
    159 H159       -1.4553  -17.5711  -43.1238 H         1 UNK         0.3000 
    160 H160       -3.9246  -19.5925  -44.4665 H         1 UNK         0.0600 
    161 H161       -4.7262  -16.9613  -43.1151 H         1 UNK         0.0600 
    162 H162       -5.5471  -18.5069  -42.9299 H         1 UNK         0.0600 
    163 H163       -5.5419  -17.7042  -44.4917 H         1 UNK         0.0600 
    164 H164       -2.9569  -16.8273  -44.8149 H         1 UNK         0.3000 
    165 H165       -0.2784  -17.7225  -46.8697 H         1 UNK         0.0600 
    166 H166       -2.9808  -16.7314  -47.9172 H         1 UNK         0.0600 
    167 H167       -1.4312  -16.2824  -48.6043 H         1 UNK         0.0600 
    168 H168       -1.9331  -17.9574  -48.6387 H         1 UNK         0.0600 
    169 H169       -1.4470  -15.1805  -46.4668 H         1 UNK         0.3000 
    170 H170       -0.5134  -14.3677  -43.3495 H         1 UNK         0.0600 
    171 H171        1.9070  -14.9010  -43.5826 H         1 UNK         0.0600 
    172 H172        1.9201  -14.1823  -45.1889 H         1 UNK         0.0600 
    173 H173        1.6205  -13.1790  -43.7741 H         1 UNK         0.0600 
    174 H174       -0.0794  -13.0089  -45.9337 H         1 UNK         0.3000 
    175 H175       -3.4116  -11.8583  -46.1605 H         1 UNK         0.0600 
    176 H176       -0.8789  -10.2636  -45.4861 H         1 UNK         0.0600 
    177 H177       -2.3353   -9.6249  -46.2478 H         1 UNK         0.0600 
    178 H178       -2.3911  -10.1958  -44.5871 H         1 UNK         0.0600 
    179 H179       -1.2083  -11.2360  -47.7885 H         1 UNK         0.3000 
    180 H180       -0.9583  -14.1878  -49.6778 H         1 UNK         0.0600 
    181 H181       -2.4669  -11.6976  -50.6079 H         1 UNK         0.0600 
    182 H182       -3.0574  -13.3505  -50.6590 H         1 UNK         0.0600 
    183 H183       -1.6830  -12.8894  -51.6475 H         1 UNK         0.0600 
    184 H184        0.8841  -12.9930  -49.7410 H         1 UNK         0.3000 
    185 H185        1.8905  -10.4312  -50.7447 H         1 UNK         0.0600 
    186 H186        1.8301   -9.3784  -47.8699 H         1 UNK         0.0600 
    187 H187        3.0424   -8.9558  -49.0778 H         1 UNK         0.0600 
    188 H188        1.3671   -8.4926  -49.3175 H         1 UNK         0.0600 
    189 H189        3.4893  -11.7636  -50.0014 H         1 UNK         0.3000 
    190 H190       -0.4584  -23.0717  -45.1261 H         1 UNK         0.3000 
    191 H191       -3.0921  -23.4240  -46.1306 H         1 UNK         0.0600 
    192 H192       -2.1837  -22.7467  -43.2839 H         1 UNK         0.0600 
    193 H193       -3.7552  -22.3997  -43.9933 H         1 UNK         0.0600 
    194 H194       -2.3232  -21.5794  -44.5927 H         1 UNK         0.0600 
    195 H195       -1.1275  -25.7637  -44.6718 H         1 UNK         0.3000 
    196 H196       -3.1143  -27.4095  -43.3813 H         1 UNK         0.0600 
    197 H197       -1.3488  -29.1637  -43.6192 H         1 UNK         0.0600 
    198 H198       -0.6708  -27.6746  -42.9786 H         1 UNK         0.0600 
    199 H199       -0.4167  -28.1022  -44.6697 H         1 UNK         0.0600 
    200 H200       -2.4795  -26.6197  -46.6973 H         1 UNK         0.3000 
    201 H201       -4.5883  -28.4377  -47.6086 H         1 UNK         0.0600 
    202 H202       -2.4064  -29.6451  -48.0891 H         1 UNK         0.0600 
    203 H203       -1.8568  -28.2539  -49.0158 H         1 UNK         0.0600 
    204 H204       -3.2470  -29.1969  -49.5569 H         1 UNK         0.0600 
    205 H205       -4.1348  -27.6163  -50.3566 H         1 UNK         0.3000 
    206 H206       -4.6977  -24.6716  -50.2833 H         1 UNK         0.0600 
    207 H207       -6.6574  -26.0674  -50.9986 H         1 UNK         0.0600 
    208 H208       -6.0583  -25.0589  -52.3036 H         1 UNK         0.0600 
    209 H209       -5.6790  -26.7781  -52.2823 H         1 UNK         0.0600 
    210 H210       -2.1109  -26.2867  -50.4235 H         1 UNK         0.3000 
    211 H211       -0.9730  -26.3546  -52.9764 H         1 UNK         0.0600 
    212 H212        1.1900  -26.4385  -51.6900 H         1 UNK         0.0600 
    213 H213       -0.0192  -27.5184  -51.0131 H         1 UNK         0.0600 
    214 H214        0.3309  -25.9813  -50.2235 H         1 UNK         0.0600 
    215 H215       -0.2368  -24.8389  -54.3354 H         1 UNK         0.3000 
    216 H216        0.2147  -22.9138  -55.3170 H         1 UNK         0.0600 
    217 H217        1.8226  -21.3747  -54.2720 H         1 UNK         0.0600 
    218 H218        2.2793  -23.0260  -53.8910 H         1 UNK         0.0600 
    219 H219        1.4867  -22.0252  -52.6757 H         1 UNK         0.0600 
    220 H220       -2.3627  -23.1852  -53.8895 H         1 UNK         0.3000 
    221 H221       -4.2618  -22.1366  -53.5992 H         1 UNK         0.0600 
    222 H222       -4.7464  -19.9525  -54.5982 H         1 UNK         0.0600 
    223 H223       -3.7708  -20.8894  -55.7180 H         1 UNK         0.0600 
    224 H224       -3.0392  -19.5890  -54.7771 H         1 UNK         0.0600 
    225 H225       -2.4791  -22.3856  -51.4482 H         1 UNK         0.3000 
    226 H226       -2.1831  -20.3087  -49.6859 H         1 UNK         0.0600 
    227 H227       -3.0750  -23.1681  -49.0144 H         1 UNK         0.0600 
    228 H228       -1.4182  -22.6566  -49.3046 H         1 UNK         0.0600 
    229 H229       -2.2888  -22.0337  -47.9194 H         1 UNK         0.0600 
    230 H230       -3.4294  -19.0234  -48.5353 H         1 UNK         0.3000 
    231 H231       -5.0644  -17.8802  -47.6489 H         1 UNK         0.0600 
    232 H232       -7.0456  -18.9310  -46.6568 H         1 UNK         0.0600 
    233 H233       -5.6212  -19.8951  -46.2978 H         1 UNK         0.0600 
    234 H234       -6.7590  -20.4242  -47.5358 H         1 UNK         0.0600 
    235 H235       -6.2277  -19.9679  -50.2656 H         1 UNK         0.3000 
    236 H236       -8.4616  -18.5002  -51.1366 H         1 UNK         0.0600 
    237 H237       -6.5589  -20.3078  -52.7224 H         1 UNK         0.0600 
    238 H238       -7.9788  -20.8343  -51.8207 H         1 UNK         0.0600 
    239 H239       -8.1670  -19.8209  -53.2438 H         1 UNK         0.0600 
    240 H240       -5.0180  -17.9811  -51.8632 H         1 UNK         0.3000 
    241 H241       -5.4086  -15.9870  -53.8665 H         1 UNK         0.0600 
    242 H242       -6.1011  -13.8950  -50.4946 H         1 UNK         0.3800 
    243 H243       -6.1482  -15.6394  -50.4828 H         1 UNK         0.3800 
    244 H244       -3.3079  -17.1626  -53.7351 H         1 UNK         0.0800 
    245 H245       -3.0196  -15.4555  -53.5602 H         1 UNK         0.0800 
    246 H246       -1.3074  -18.2567  -52.7935 H         1 UNK         0.0800 
    247 H247       -0.5363  -16.6870  -52.8582 H         1 UNK         0.0800 
@<TRIPOS>BOND
     1    1    2 1    
     2    1  127 1    
     3    1  128 1    
     4    1  129 1    
     5    2    3 2    
     6    2    4 am   BACKBONE|DICT|INTERRES
     7    4    5 1    
     8    4  130 1    
     9    5    6 1    
    10    5   65 1    
    11    5  131 1    
    12    6    7 1    
    13    6  132 1    
    14    6  133 1    
    15    7    8 1    
    16    8    9 1    
    17    8  134 1    
    18    8  135 1    
    19    9   10 ar   
    20    9   14 ar   
    21   10   11 ar   
    22   10  136 1    
    23   11   12 ar   
    24   11  126 1    
    25   12   13 ar   
    26   12  137 1    
    27   13   14 ar   
    28   13   15 1    
    29   14  138 1    
    30   15   16 1    
    31   15  139 1    
    32   15  140 1    
    33   16   17 1    
    34   17   18 1    
    35   17  141 1    
    36   17  142 1    
    37   18   19 1    
    38   18   67 1    
    39   18  143 1    
    40   19   20 am   BACKBONE|DICT|INTERRES
    41   19  144 1    
    42   20   21 2    
    43   20   22 1    
    44   22   23 1    
    45   22   24 1    
    46   22  145 1    
    47   23  146 1    
    48   23  147 1    
    49   23  148 1    
    50   24   25 am   BACKBONE|DICT|INTERRES
    51   24  149 1    
    52   25   26 2    
    53   25   27 1    
    54   27   28 1    
    55   27   29 1    
    56   27  150 1    
    57   28  151 1    
    58   28  152 1    
    59   28  153 1    
    60   29   30 am   BACKBONE|DICT|INTERRES
    61   29  154 1    
    62   30   31 2    
    63   30   32 1    
    64   32   33 1    
    65   32   34 1    
    66   32  155 1    
    67   33  156 1    
    68   33  157 1    
    69   33  158 1    
    70   34   35 am   BACKBONE|DICT|INTERRES
    71   34  159 1    
    72   35   36 2    
    73   35   37 1    
    74   37   38 1    
    75   37   39 1    
    76   37  160 1    
    77   38  161 1    
    78   38  162 1    
    79   38  163 1    
    80   39   40 am   BACKBONE|DICT|INTERRES
    81   39  164 1    
    82   40   41 2    
    83   40   42 1    
    84   42   43 1    
    85   42   44 1    
    86   42  165 1    
    87   43  166 1    
    88   43  167 1    
    89   43  168 1    
    90   44   45 am   BACKBONE|DICT|INTERRES
    91   44  169 1    
    92   45   46 2    
    93   45   47 1    
    94   47   48 1    
    95   47   49 1    
    96   47  170 1    
    97   48  171 1    
    98   48  172 1    
    99   48  173 1    
   100   49   50 am   BACKBONE|DICT|INTERRES
   101   49  174 1    
   102   50   51 2    
   103   50   52 1    
   104   52   53 1    
   105   52   54 1    
   106   52  175 1    
   107   53  176 1    
   108   53  177 1    
   109   53  178 1    
   110   54   55 am   BACKBONE|DICT|INTERRES
   111   54  179 1    
   112   55   56 2    
   113   55   57 1    
   114   57   58 1    
   115   57   59 1    
   116   57  180 1    
   117   58  181 1    
   118   58  182 1    
   119   58  183 1    
   120   59   60 am   BACKBONE|DICT|INTERRES
   121   59  184 1    
   122   60   61 2    
   123   60   62 1    
   124   62   63 1    
   125   62   64 1    
   126   62  185 1    
   127   63  186 1    
   128   63  187 1    
   129   63  188 1    
   130   64   65 am   BACKBONE|DICT|INTERRES
   131   64  189 1    
   132   65   66 2    
   133   67   68 2    
   134   67   69 am   BACKBONE|DICT|INTERRES
   135   69   70 1    
   136   69  190 1    
   137   70   71 1    
   138   70   72 1    
   139   70  191 1    
   140   71  192 1    
   141   71  193 1    
   142   71  194 1    
   143   72   73 2    
   144   72   74 am   BACKBONE|DICT|INTERRES
   145   74   75 1    
   146   74  195 1    
   147   75   76 1    
   148   75   77 1    
   149   75  196 1    
   150   76  197 1    
   151   76  198 1    
   152   76  199 1    
   153   77   78 2    
   154   77   79 am   BACKBONE|DICT|INTERRES
   155   79   80 1    
   156   79  200 1    
   157   80   81 1    
   158   80   82 1    
   159   80  201 1    
   160   81  202 1    
   161   81  203 1    
   162   81  204 1    
   163   82   83 2    
   164   82   84 am   BACKBONE|DICT|INTERRES
   165   84   85 1    
   166   84  205 1    
   167   85   86 1    
   168   85   87 1    
   169   85  206 1    
   170   86  207 1    
   171   86  208 1    
   172   86  209 1    
   173   87   88 2    
   174   87   89 am   BACKBONE|DICT|INTERRES
   175   89   90 1    
   176   89  210 1    
   177   90   91 1    
   178   90   92 1    
   179   90  211 1    
   180   91  212 1    
   181   91  213 1    
   182   91  214 1    
   183   92   93 2    
   184   92   94 am   BACKBONE|DICT|INTERRES
   185   94   95 1    
   186   94  215 1    
   187   95   96 1    
   188   95   97 1    
   189   95  216 1    
   190   96  217 1    
   191   96  218 1    
   192   96  219 1    
   193   97   98 2    
   194   97   99 am   BACKBONE|DICT|INTERRES
   195   99  100 1    
   196   99  220 1    
   197  100  101 1    
   198  100  102 1    
   199  100  221 1    
   200  101  222 1    
   201  101  223 1    
   202  101  224 1    
   203  102  103 2    
   204  102  104 am   BACKBONE|DICT|INTERRES
   205  104  105 1    
   206  104  225 1    
   207  105  106 1    
   208  105  107 1    
   209  105  226 1    
   210  106  227 1    
   211  106  228 1    
   212  106  229 1    
   213  107  108 2    
   214  107  109 am   BACKBONE|DICT|INTERRES
   215  109  110 1    
   216  109  230 1    
   217  110  111 1    
   218  110  112 1    
   219  110  231 1    
   220  111  232 1    
   221  111  233 1    
   222  111  234 1    
   223  112  113 2    
   224  112  114 am   BACKBONE|DICT|INTERRES
   225  114  115 1    
   226  114  235 1    
   227  115  116 1    
   228  115  117 1    
   229  115  236 1    
   230  116  237 1    
   231  116  238 1    
   232  116  239 1    
   233  117  118 2    
   234  117  119 am   BACKBONE|DICT|INTERRES
   235  119  120 1    
   236  119  240 1    
   237  120  121 1    
   238  120  124 1    
   239  120  241 1    
   240  121  122 am   BACKBONE|DICT|INTERRES
   241  121  123 2    
   242  122  242 1    
   243  122  243 1    
   244  124  125 1    
   245  124  244 1    
   246  124  245 1    
   247  125  126 1    
   248  126  246 1    
   249  126  247 1    
@<TRIPOS>SUBSTRUCTURE
     1 UNK         1 GROUP             0       ****    0 ROOT    
