@<TRIPOS>MOLECULE
3R540
247   249    1
SMALL
USER_CHARGES


@<TRIPOS>ATOM
      1 CA          1.6114  -14.4012  -51.3551 C.3       0 UNK        -0.1800 
      2 C           2.3128  -15.7444  -51.4807 C.2       0 UNK         0.5000 
      3 O           3.5133  -15.8348  -51.2243 O.2       0 UNK        -0.5000 
      4 N           1.5666  -16.7921  -51.8566 N.am      1 UNK        -0.5000 
      5 CA          2.0657  -18.1726  -51.9649 C.3       1 UNK         0.1400 
      6 C6          1.1338  -19.0771  -52.8084 C.3       23 UNK        -0.0398 
      7 S7          0.9715  -18.4963  -54.5323 S.3       23 UNK        -0.2404 
      8 C8         -0.8090  -18.1372  -54.6547 C.3       23 UNK        -0.0205 
      9 C9         -1.2086  -16.9421  -53.8040 C.ar      23 UNK        -0.0193 
     10 C10        -0.9193  -15.6441  -54.2338 C.ar      23 UNK        -0.1150 
     11 C11        -1.2595  -14.5432  -53.4435 C.ar      23 UNK        -0.0193 
     12 C12        -1.8900  -14.7495  -52.2137 C.ar      23 UNK        -0.1150 
     13 C13        -2.1951  -16.0398  -51.7774 C.ar      23 UNK        -0.0193 
     14 C14        -1.8597  -17.1326  -52.5828 C.ar      23 UNK        -0.1150 
     15 C15        -2.9082  -16.2408  -50.4493 C.3       23 UNK        -0.0205 
     16 S16        -2.0315  -17.4099  -49.3625 S.3       23 UNK        -0.2404 
     17 C17        -3.4009  -18.5107  -48.8761 C.3       23 UNK        -0.0398 
     18 CA         -3.1785  -19.1378  -47.4824 C.3       11 UNK         0.1400 
     19 N          -3.1747  -18.1341  -46.4171 N.am      11 UNK        -0.5000 
     20 C          -2.7001  -18.3550  -45.1869 C.2       10 UNK         0.5000 
     21 O          -2.0859  -19.3753  -44.8614 O.2       10 UNK        -0.5000 
     22 CA         -2.9845  -17.2657  -44.1439 C.3       10 UNK         0.1400 
     23 CB         -4.4598  -17.3033  -43.7014 C.3       10 UNK        -0.1800 
     24 N          -2.1128  -17.5026  -43.0044 N.am      10 UNK        -0.5000 
     25 C          -1.8324  -16.6576  -42.0091 C.2       9 UNK         0.5000 
     26 O          -2.3031  -15.5216  -41.9312 O.2       9 UNK        -0.5000 
     27 CA         -0.8365  -17.1524  -40.9359 C.3       9 UNK         0.1400 
     28 CB         -1.1756  -16.6282  -39.5258 C.3       9 UNK        -0.1800 
     29 N          -0.6370  -18.6076  -40.9213 N.am      9 UNK        -0.5000 
     30 C          -1.5398  -19.5654  -40.6499 C.2       8 UNK         0.5000 
     31 O          -2.7081  -19.3369  -40.3362 O.2       8 UNK        -0.5000 
     32 CA         -1.0737  -21.0324  -40.7741 C.3       8 UNK         0.1400 
     33 CB         -1.6398  -21.6644  -42.0564 C.3       8 UNK        -0.1800 
     34 N           0.3828  -21.1796  -40.7866 N.am      8 UNK        -0.5000 
     35 C           1.1790  -21.0391  -39.7176 C.2       7 UNK         0.5000 
     36 O           0.7612  -20.8636  -38.5727 O.2       7 UNK        -0.5000 
     37 CA          2.7001  -21.0716  -39.9761 C.3       7 UNK         0.1400 
     38 CB          3.2641  -22.4703  -39.6832 C.3       7 UNK        -0.1800 
     39 N           3.0879  -20.6754  -41.3362 N.am      7 UNK        -0.5000 
     40 C           2.8764  -19.4673  -41.8763 C.2       6 UNK         0.5000 
     41 O           2.2832  -18.5559  -41.2963 O.2       6 UNK        -0.5000 
     42 CA          3.3503  -19.2786  -43.3267 C.3       6 UNK         0.1400 
     43 CB          2.3110  -19.8404  -44.3060 C.3       6 UNK        -0.1800 
     44 N           3.5811  -17.8688  -43.6355 N.am      6 UNK        -0.5000 
     45 C           4.6747  -17.1879  -43.2662 C.2       5 UNK         0.5000 
     46 O           5.6327  -17.7035  -42.6877 O.2       5 UNK        -0.5000 
     47 CA          4.7235  -15.6834  -43.5975 C.3       5 UNK         0.1400 
     48 CB          5.5365  -15.4374  -44.8778 C.3       5 UNK        -0.1800 
     49 N           3.3984  -15.0843  -43.7528 N.am      5 UNK        -0.5000 
     50 C           2.5759  -14.7811  -42.7386 C.2       4 UNK         0.5000 
     51 O           2.8720  -14.9327  -41.5532 O.2       4 UNK        -0.5000 
     52 CA          1.1930  -14.1976  -43.0983 C.3       4 UNK         0.1400 
     53 CB          1.1598  -12.6861  -42.8245 C.3       4 UNK        -0.1800 
     54 N           0.7787  -14.4328  -44.4845 N.am      4 UNK        -0.5000 
     55 C           0.5123  -15.6320  -45.0172 C.2       3 UNK         0.5000 
     56 O           0.5985  -16.6843  -44.3818 O.2       3 UNK        -0.5000 
     57 CA          0.0797  -15.6617  -46.5017 C.3       3 UNK         0.1400 
     58 CB          0.5325  -14.4259  -47.3110 C.3       3 UNK        -0.1800 
     59 N           0.4962  -16.8830  -47.1947 N.am      3 UNK        -0.5000 
     60 C           1.7400  -17.3763  -47.2900 C.2       2 UNK         0.5000 
     61 O           2.7389  -16.8550  -46.7931 O.2       2 UNK        -0.5000 
     62 CA          1.8875  -18.6413  -48.1402 C.3       2 UNK         0.1400 
     63 CB          0.8766  -19.7359  -47.7591 C.3       2 UNK        -0.1800 
     64 N           1.7049  -18.2635  -49.5347 N.am      2 UNK        -0.5000 
     65 C           2.3303  -18.8112  -50.5821 C.2       1 UNK         0.5000 
     66 O           3.0978  -19.7703  -50.4953 O.2       1 UNK        -0.5000 
     67 C          -4.2484  -20.2040  -47.1804 C.2       11 UNK         0.5000 
     68 O          -5.4070  -19.8541  -46.9434 O.2       11 UNK        -0.5000 
     69 N          -3.8365  -21.4731  -47.1856 N.am      12 UNK        -0.5000 
     70 CA         -4.6612  -22.6414  -46.9153 C.3       12 UNK         0.1400 
     71 CB         -4.8698  -22.7921  -45.3964 C.3       12 UNK        -0.1800 
     72 C          -3.9433  -23.8696  -47.4842 C.2       12 UNK         0.5000 
     73 O          -2.7356  -23.8116  -47.7397 O.2       12 UNK        -0.5000 
     74 N          -4.6762  -24.9805  -47.6282 N.am      13 UNK        -0.5000 
     75 CA         -4.1453  -26.2706  -48.0823 C.3       13 UNK         0.1400 
     76 CB         -5.3020  -27.2667  -48.2482 C.3       13 UNK        -0.1800 
     77 C          -3.0612  -26.8448  -47.1489 C.2       13 UNK         0.5000 
     78 O          -2.1152  -27.4683  -47.6289 O.2       13 UNK        -0.5000 
     79 N          -3.1782  -26.5581  -45.8441 N.am      14 UNK        -0.5000 
     80 CA         -2.1907  -26.8874  -44.8120 C.3       14 UNK         0.1400 
     81 CB         -2.7947  -26.5794  -43.4332 C.3       14 UNK        -0.1800 
     82 C          -0.8464  -26.1487  -44.9837 C.2       14 UNK         0.5000 
     83 O           0.1810  -26.6521  -44.5291 O.2       14 UNK        -0.5000 
     84 N          -0.8756  -24.9859  -45.6488 N.am      15 UNK        -0.5000 
     85 CA          0.2940  -24.1813  -46.0036 C.3       15 UNK         0.1400 
     86 CB         -0.0418  -22.7009  -45.7571 C.3       15 UNK        -0.1800 
     87 C           0.7348  -24.4126  -47.4648 C.2       15 UNK         0.5000 
     88 O           1.6370  -23.7184  -47.9332 O.2       15 UNK        -0.5000 
     89 N           0.0888  -25.3642  -48.1597 N.am      16 UNK        -0.5000 
     90 CA          0.2625  -25.7161  -49.5733 C.3       16 UNK         0.1400 
     91 CB          1.6703  -26.2927  -49.8321 C.3       16 UNK        -0.1800 
     92 C          -0.1117  -24.5696  -50.5386 C.2       16 UNK         0.5000 
     93 O           0.4684  -24.4602  -51.6203 O.2       16 UNK        -0.5000 
     94 N          -1.0888  -23.7469  -50.1389 N.am      17 UNK        -0.5000 
     95 CA         -1.5933  -22.6005  -50.8883 C.3       17 UNK         0.1400 
     96 CB         -1.0286  -21.3070  -50.2769 C.3       17 UNK        -0.1800 
     97 C          -3.1281  -22.6415  -50.8904 C.2       17 UNK         0.5000 
     98 O          -3.7771  -21.6781  -50.4838 O.2       17 UNK        -0.5000 
     99 N          -3.6877  -23.7800  -51.3257 N.am      18 UNK        -0.5000 
    100 CA        -5.1333  -24.0023  -51.4430 C.3       18 UNK         0.1400 
    101 CB        -5.3923  -25.4683  -51.8226 C.3       18 UNK        -0.1800 
    102 C         -5.8009  -23.0568  -52.4614 C.2       18 UNK         0.5000 
    103 O         -6.9308  -22.6178  -52.2444 O.2       18 UNK        -0.5000 
    104 N         -5.0688  -22.7375  -53.5362 N.am      19 UNK        -0.5000 
    105 CA        -5.4167  -21.7164  -54.5159 C.3       19 UNK         0.1400 
    106 CB        -4.7889  -22.0900  -55.8703 C.3       19 UNK        -0.1800 
    107 C         -4.9288  -20.3495  -54.0068 C.2       19 UNK         0.5000 
    108 O         -3.8222  -19.9236  -54.3431 O.2       19 UNK        -0.5000 
    109 N         -5.7500  -19.6936  -53.1788 N.am      20 UNK        -0.5000 
    110 CA        -5.5096  -18.3585  -52.6281 C.3       20 UNK         0.1400 
    111 CB        -6.3966  -18.1729  -51.3842 C.3       20 UNK        -0.1800 
    112 C         -5.7423  -17.2694  -53.6979 C.2       20 UNK         0.5000 
    113 O         -6.7229  -16.5267  -53.6245 O.2       20 UNK        -0.5000 
    114 N         -4.8591  -17.2430  -54.7049 N.am      21 UNK        -0.5000 
    115 CA        -4.9911  -16.5154  -55.9708 C.3       21 UNK         0.1400 
    116 CB        -3.7341  -16.7582  -56.8193 C.3       21 UNK        -0.1800 
    117 C         -5.2710  -15.0064  -55.8499 C.2       21 UNK         0.5000 
    118 O         -6.0339  -14.4736  -56.6575 O.2       21 UNK        -0.5000 
    119 N         -4.6689  -14.3529  -54.8496 N.am      22 UNK        -0.5000 
    120 CA        -4.8808  -12.9244  -54.5570 C.3       22 UNK         0.1400 
    121 C         -6.1232  -12.6371  -53.6608 C.2       22 UNK         0.5000 
    122 N         -6.8856  -13.6311  -53.2191 N.am      22 UNK        -0.7600 
    123 O         -6.4128  -11.4804  -53.3669 O.2       22 UNK        -0.5000 
    124 C124       -3.6091  -12.2355  -53.9977 C.3       23 UNK        -0.0398 
    125 S125       -2.1433  -12.4630  -55.0668 S.3       23 UNK        -0.2404 
    126 C126       -0.9158  -13.1339  -53.9016 C.3       23 UNK        -0.0205 
    127 H127        0.5928  -14.5248  -50.9898 H         1 UNK         0.0600 
    128 H128        1.5808  -13.8991  -52.3216 H         1 UNK         0.0600 
    129 H129        2.1397  -13.7580  -50.6512 H         1 UNK         0.0600 
    130 H130        0.5955  -16.6528  -52.1028 H         1 UNK         0.3000 
    131 H131        3.0311  -18.1343  -52.4744 H         1 UNK         0.0600 
    132 H132        0.1514  -19.1595  -52.3430 H         1 UNK         0.0800 
    133 H133        1.5290  -20.0939  -52.8509 H         1 UNK         0.0800 
    134 H134       -1.3733  -19.0256  -54.3698 H         1 UNK         0.0800 
    135 H135       -1.0576  -17.9402  -55.6980 H         1 UNK         0.0800 
    136 H136       -0.4181  -15.4918  -55.1795 H         1 UNK         0.1150 
    137 H137       -2.1385  -13.9026  -51.5900 H         1 UNK         0.1150 
    138 H138       -2.0934  -18.1345  -52.2507 H         1 UNK         0.1150 
    139 H139       -3.0143  -15.2948  -49.9162 H         1 UNK         0.0800 
    140 H140       -3.9194  -16.5848  -50.6587 H         1 UNK         0.0800 
    141 H141       -3.4873  -19.2806  -49.6427 H         1 UNK         0.0800 
    142 H142       -4.3431  -17.9602  -48.8874 H         1 UNK         0.0800 
    143 H143       -2.2072  -19.6322  -47.4842 H         1 UNK         0.0600 
    144 H144       -3.6997  -17.2922  -46.6015 H         1 UNK         0.3000 
    145 H145       -2.7476  -16.2927  -44.5782 H         1 UNK         0.0600 
    146 H146       -4.6807  -16.5178  -42.9789 H         1 UNK         0.0600 
    147 H147       -5.1311  -17.1577  -44.5485 H         1 UNK         0.0600 
    148 H148       -4.7134  -18.2598  -43.2421 H         1 UNK         0.0600 
    149 H149       -1.6429  -18.3990  -43.0377 H         1 UNK         0.3000 
    150 H150        0.1304  -16.7319  -41.2149 H         1 UNK         0.0600 
    151 H151       -1.1601  -15.5381  -39.4990 H         1 UNK         0.0600 
    152 H152       -0.4508  -16.9790  -38.7910 H         1 UNK         0.0600 
    153 H153       -2.1660  -16.9482  -39.2015 H         1 UNK         0.0600 
    154 H154        0.3122  -18.8923  -41.1394 H         1 UNK         0.3000 
    155 H155       -1.4719  -21.5789  -39.9167 H         1 UNK         0.0600 
    156 H156       -1.2716  -21.1566  -42.9481 H         1 UNK         0.0600 
    157 H157       -2.7289  -21.6066  -42.0756 H         1 UNK         0.0600 
    158 H158       -1.3702  -22.7180  -42.1330 H         1 UNK         0.0600 
    159 H159        0.8151  -21.3361  -41.6846 H         1 UNK         0.3000 
    160 H160        3.1606  -20.3652  -39.2822 H         1 UNK         0.0600 
    161 H161        2.8599  -23.2183  -40.3665 H         1 UNK         0.0600 
    162 H162        3.0188  -22.7865  -38.6684 H         1 UNK         0.0600 
    163 H163        4.3506  -22.4849  -39.7718 H         1 UNK         0.0600 
    164 H164        3.5696  -21.3759  -41.8816 H         1 UNK         0.3000 
    165 H165        4.2839  -19.8289  -43.4619 H         1 UNK         0.0600 
    166 H166        2.6746  -19.7684  -45.3303 H         1 UNK         0.0600 
    167 H167        2.1100  -20.8938  -44.1089 H         1 UNK         0.0600 
    168 H168        1.3618  -19.3063  -44.2427 H         1 UNK         0.0600 
    169 H169        2.8115  -17.3663  -44.0598 H         1 UNK         0.3000 
    170 H170        5.2350  -15.1827  -42.7726 H         1 UNK         0.0600 
    171 H171        6.5457  -15.8403  -44.7829 H         1 UNK         0.0600 
    172 H172        5.0753  -15.9107  -45.7452 H         1 UNK         0.0600 
    173 H173        5.6312  -14.3717  -45.0870 H         1 UNK         0.0600 
    174 H174        3.0703  -14.9509  -44.6985 H         1 UNK         0.3000 
    175 H175        0.4610  -14.6737  -42.4448 H         1 UNK         0.0600 
    176 H176        1.8578  -12.1459  -43.4654 H         1 UNK         0.0600 
    177 H177        0.1631  -12.2766  -42.9903 H         1 UNK         0.0600 
    178 H178        1.4291  -12.4693  -41.7899 H         1 UNK         0.0600 
    179 H179        0.6958  -13.6148  -45.0706 H         1 UNK         0.3000 
    180 H180       -1.0109  -15.6740  -46.4979 H         1 UNK         0.0600 
    181 H181        1.6163  -14.3035  -47.2933 H         1 UNK         0.0600 
    182 H182        0.0836  -13.5083  -46.9299 H         1 UNK         0.0600 
    183 H183        0.2283  -14.5130  -48.3544 H         1 UNK         0.0600 
    184 H184       -0.2532  -17.4001  -47.6333 H         1 UNK         0.3000 
    185 H185        2.8983  -19.0227  -47.9794 H         1 UNK         0.0600 
    186 H186        1.1938  -20.7088  -48.1352 H         1 UNK         0.0600 
    187 H187        0.7555  -19.8213  -46.6801 H         1 UNK         0.0600 
    188 H188       -0.1033  -19.5226  -48.1773 H         1 UNK         0.0600 
    189 H189        1.1283  -17.4502  -49.6993 H         1 UNK         0.3000 
    190 H190       -2.8829  -21.7043  -47.4319 H         1 UNK         0.3000 
    191 H191       -5.6227  -22.5335  -47.4216 H         1 UNK         0.0600 
    192 H192       -5.4753  -23.6687  -45.1637 H         1 UNK         0.0600 
    193 H193       -5.3855  -21.9273  -44.9788 H         1 UNK         0.0600 
    194 H194       -3.9199  -22.8971  -44.8697 H         1 UNK         0.0600 
    195 H195       -5.6576  -24.9578  -47.3902 H         1 UNK         0.3000 
    196 H196       -3.6818  -26.1133  -49.0582 H         1 UNK         0.0600 
    197 H197       -4.9414  -28.2234  -48.6286 H         1 UNK         0.0600 
    198 H198       -6.0454  -26.8969  -48.9546 H         1 UNK         0.0600 
    199 H199       -5.8069  -27.4591  -47.3008 H         1 UNK         0.0600 
    200 H200       -3.9912  -26.0430  -45.5408 H         1 UNK         0.3000 
    201 H201       -1.9874  -27.9588  -44.8687 H         1 UNK         0.0600 
    202 H202       -3.7069  -27.1521  -43.2646 H         1 UNK         0.0600 
    203 H203       -3.0367  -25.5210  -43.3271 H         1 UNK         0.0600 
    204 H204       -2.0983  -26.8383  -42.6345 H         1 UNK         0.0600 
    205 H205       -1.7554  -24.6632  -46.0306 H         1 UNK         0.3000 
    206 H206        1.1392  -24.4455  -45.3651 H         1 UNK         0.0600 
    207 H207       -0.3775  -22.5370  -44.7339 H         1 UNK         0.0600 
    208 H208        0.8377  -22.0768  -45.9110 H         1 UNK         0.0600 
    209 H209       -0.8224  -22.3420  -46.4283 H         1 UNK         0.0600 
    210 H210       -0.6293  -25.8907  -47.6785 H         1 UNK         0.3000 
    211 H211       -0.4548  -26.5138  -49.7709 H         1 UNK         0.0600 
    212 H212        2.4458  -25.5333  -49.7300 H         1 UNK         0.0600 
    213 H213        1.7460  -26.7016  -50.8402 H         1 UNK         0.0600 
    214 H214        1.8984  -27.1016  -49.1380 H         1 UNK         0.0600 
    215 H215       -1.5379  -23.9108  -49.2411 H         1 UNK         0.3000 
    216 H216       -1.2791  -22.6507  -51.9327 H         1 UNK         0.0600 
    217 H217       -1.3959  -20.4250  -50.8028 H         1 UNK         0.0600 
    218 H218        0.0600  -21.2897  -50.3311 H         1 UNK         0.0600 
    219 H219       -1.3153  -21.2140  -49.2301 H         1 UNK         0.0600 
    220 H220       -3.0843  -24.5336  -51.6211 H         1 UNK         0.3000 
    221 H221       -5.5830  -23.8137  -50.4658 H         1 UNK         0.0600 
    222 H222       -4.9752  -25.7110  -52.8007 H         1 UNK         0.0600 
    223 H223       -4.9560  -26.1526  -51.0966 H         1 UNK         0.0600 
    224 H224       -6.4622  -25.6767  -51.8615 H         1 UNK         0.0600 
    225 H225       -4.1404  -23.1258  -53.6095 H         1 UNK         0.3000 
    226 H226       -6.5001  -21.6747  -54.6477 H         1 UNK         0.0600 
    227 H227       -3.7041  -22.1843  -55.8052 H         1 UNK         0.0600 
    228 H228       -5.1844  -23.0368  -56.2382 H         1 UNK         0.0600 
    229 H229       -5.0079  -21.3315  -56.6230 H         1 UNK         0.0600 
    230 H230       -6.6270  -20.1294  -52.9289 H         1 UNK         0.3000 
    231 H231       -4.4699  -18.2962  -52.3059 H         1 UNK         0.0600 
    232 H232       -7.4553  -18.2783  -51.6244 H         1 UNK         0.0600 
    233 H233       -6.2583  -17.1845  -50.9448 H         1 UNK         0.0600 
    234 H234       -6.1536  -18.9078  -50.6162 H         1 UNK         0.0600 
    235 H235       -4.1238  -17.9413  -54.6752 H         1 UNK         0.3000 
    236 H236       -5.8404  -16.9572  -56.4954 H         1 UNK         0.0600 
    237 H237       -3.5549  -17.8230  -56.9698 H         1 UNK         0.0600 
    238 H238       -3.8347  -16.3026  -57.8052 H         1 UNK         0.0600 
    239 H239       -2.8480  -16.3291  -56.3513 H         1 UNK         0.0600 
    240 H240       -4.0509  -14.8588  -54.2322 H         1 UNK         0.3000 
    241 H241       -5.0998  -12.4218  -55.5010 H         1 UNK         0.0600 
    242 H242       -7.6866  -13.4168  -52.6471 H         1 UNK         0.3800 
    243 H243       -6.6971  -14.5984  -53.4654 H         1 UNK         0.3800 
    244 H244       -3.7742  -11.1606  -53.9067 H         1 UNK         0.0800 
    245 H245       -3.4028  -12.5858  -52.9880 H         1 UNK         0.0800 
    246 H246       -0.8206  -12.4632  -53.0461 H         1 UNK         0.0800 
    247 H247        0.0603  -13.1408  -54.3887 H         1 UNK         0.0800 
@<TRIPOS>BOND
     1    1    2 1    
     2    1  127 1    
     3    1  128 1    
     4    1  129 1    
     5    2    3 2    
     6    2    4 am   BACKBONE|DICT|INTERRES
     7    4    5 1    
     8    4  130 1    
     9    5    6 1    
    10    5   65 1    
    11    5  131 1    
    12    6    7 1    
    13    6  132 1    
    14    6  133 1    
    15    7    8 1    
    16    8    9 1    
    17    8  134 1    
    18    8  135 1    
    19    9   10 ar   
    20    9   14 ar   
    21   10   11 ar   
    22   10  136 1    
    23   11   12 ar   
    24   11  126 1    
    25   12   13 ar   
    26   12  137 1    
    27   13   14 ar   
    28   13   15 1    
    29   14  138 1    
    30   15   16 1    
    31   15  139 1    
    32   15  140 1    
    33   16   17 1    
    34   17   18 1    
    35   17  141 1    
    36   17  142 1    
    37   18   19 1    
    38   18   67 1    
    39   18  143 1    
    40   19   20 am   BACKBONE|DICT|INTERRES
    41   19  144 1    
    42   20   21 2    
    43   20   22 1    
    44   22   23 1    
    45   22   24 1    
    46   22  145 1    
    47   23  146 1    
    48   23  147 1    
    49   23  148 1    
    50   24   25 am   BACKBONE|DICT|INTERRES
    51   24  149 1    
    52   25   26 2    
    53   25   27 1    
    54   27   28 1    
    55   27   29 1    
    56   27  150 1    
    57   28  151 1    
    58   28  152 1    
    59   28  153 1    
    60   29   30 am   BACKBONE|DICT|INTERRES
    61   29  154 1    
    62   30   31 2    
    63   30   32 1    
    64   32   33 1    
    65   32   34 1    
    66   32  155 1    
    67   33  156 1    
    68   33  157 1    
    69   33  158 1    
    70   34   35 am   BACKBONE|DICT|INTERRES
    71   34  159 1    
    72   35   36 2    
    73   35   37 1    
    74   37   38 1    
    75   37   39 1    
    76   37  160 1    
    77   38  161 1    
    78   38  162 1    
    79   38  163 1    
    80   39   40 am   BACKBONE|DICT|INTERRES
    81   39  164 1    
    82   40   41 2    
    83   40   42 1    
    84   42   43 1    
    85   42   44 1    
    86   42  165 1    
    87   43  166 1    
    88   43  167 1    
    89   43  168 1    
    90   44   45 am   BACKBONE|DICT|INTERRES
    91   44  169 1    
    92   45   46 2    
    93   45   47 1    
    94   47   48 1    
    95   47   49 1    
    96   47  170 1    
    97   48  171 1    
    98   48  172 1    
    99   48  173 1    
   100   49   50 am   BACKBONE|DICT|INTERRES
   101   49  174 1    
   102   50   51 2    
   103   50   52 1    
   104   52   53 1    
   105   52   54 1    
   106   52  175 1    
   107   53  176 1    
   108   53  177 1    
   109   53  178 1    
   110   54   55 am   BACKBONE|DICT|INTERRES
   111   54  179 1    
   112   55   56 2    
   113   55   57 1    
   114   57   58 1    
   115   57   59 1    
   116   57  180 1    
   117   58  181 1    
   118   58  182 1    
   119   58  183 1    
   120   59   60 am   BACKBONE|DICT|INTERRES
   121   59  184 1    
   122   60   61 2    
   123   60   62 1    
   124   62   63 1    
   125   62   64 1    
   126   62  185 1    
   127   63  186 1    
   128   63  187 1    
   129   63  188 1    
   130   64   65 am   BACKBONE|DICT|INTERRES
   131   64  189 1    
   132   65   66 2    
   133   67   68 2    
   134   67   69 am   BACKBONE|DICT|INTERRES
   135   69   70 1    
   136   69  190 1    
   137   70   71 1    
   138   70   72 1    
   139   70  191 1    
   140   71  192 1    
   141   71  193 1    
   142   71  194 1    
   143   72   73 2    
   144   72   74 am   BACKBONE|DICT|INTERRES
   145   74   75 1    
   146   74  195 1    
   147   75   76 1    
   148   75   77 1    
   149   75  196 1    
   150   76  197 1    
   151   76  198 1    
   152   76  199 1    
   153   77   78 2    
   154   77   79 am   BACKBONE|DICT|INTERRES
   155   79   80 1    
   156   79  200 1    
   157   80   81 1    
   158   80   82 1    
   159   80  201 1    
   160   81  202 1    
   161   81  203 1    
   162   81  204 1    
   163   82   83 2    
   164   82   84 am   BACKBONE|DICT|INTERRES
   165   84   85 1    
   166   84  205 1    
   167   85   86 1    
   168   85   87 1    
   169   85  206 1    
   170   86  207 1    
   171   86  208 1    
   172   86  209 1    
   173   87   88 2    
   174   87   89 am   BACKBONE|DICT|INTERRES
   175   89   90 1    
   176   89  210 1    
   177   90   91 1    
   178   90   92 1    
   179   90  211 1    
   180   91  212 1    
   181   91  213 1    
   182   91  214 1    
   183   92   93 2    
   184   92   94 am   BACKBONE|DICT|INTERRES
   185   94   95 1    
   186   94  215 1    
   187   95   96 1    
   188   95   97 1    
   189   95  216 1    
   190   96  217 1    
   191   96  218 1    
   192   96  219 1    
   193   97   98 2    
   194   97   99 am   BACKBONE|DICT|INTERRES
   195   99  100 1    
   196   99  220 1    
   197  100  101 1    
   198  100  102 1    
   199  100  221 1    
   200  101  222 1    
   201  101  223 1    
   202  101  224 1    
   203  102  103 2    
   204  102  104 am   BACKBONE|DICT|INTERRES
   205  104  105 1    
   206  104  225 1    
   207  105  106 1    
   208  105  107 1    
   209  105  226 1    
   210  106  227 1    
   211  106  228 1    
   212  106  229 1    
   213  107  108 2    
   214  107  109 am   BACKBONE|DICT|INTERRES
   215  109  110 1    
   216  109  230 1    
   217  110  111 1    
   218  110  112 1    
   219  110  231 1    
   220  111  232 1    
   221  111  233 1    
   222  111  234 1    
   223  112  113 2    
   224  112  114 am   BACKBONE|DICT|INTERRES
   225  114  115 1    
   226  114  235 1    
   227  115  116 1    
   228  115  117 1    
   229  115  236 1    
   230  116  237 1    
   231  116  238 1    
   232  116  239 1    
   233  117  118 2    
   234  117  119 am   BACKBONE|DICT|INTERRES
   235  119  120 1    
   236  119  240 1    
   237  120  121 1    
   238  120  124 1    
   239  120  241 1    
   240  121  122 am   BACKBONE|DICT|INTERRES
   241  121  123 2    
   242  122  242 1    
   243  122  243 1    
   244  124  125 1    
   245  124  244 1    
   246  124  245 1    
   247  125  126 1    
   248  126  246 1    
   249  126  247 1    
@<TRIPOS>SUBSTRUCTURE
     1 UNK         1 GROUP             0       ****    0 ROOT    
