@<TRIPOS>MOLECULE
3R540
247   249    1
SMALL
USER_CHARGES


@<TRIPOS>ATOM
      1 CA          6.8006  -16.0247  -49.0372 C.3       0 UNK        -0.1800 
      2 C           5.4424  -15.9154  -49.7145 C.2       0 UNK         0.5000 
      3 O           5.3156  -15.2183  -50.7212 O.2       0 UNK        -0.5000 
      4 N           4.4279  -16.5836  -49.1502 N.am      1 UNK        -0.5000 
      5 CA          3.0231  -16.6589  -49.5841 C.3       1 UNK         0.1400 
      6 C6          2.8162  -17.2479  -51.0072 C.3       23 UNK        -0.0398 
      7 S7          3.3936  -18.9751  -51.1458 S.3       23 UNK        -0.2404 
      8 C8          1.8378  -19.8988  -50.9248 C.3       23 UNK        -0.0205 
      9 C9          1.2593  -19.6882  -49.5368 C.ar      23 UNK        -0.0193 
     10 C10         0.2117  -18.7841  -49.3444 C.ar      23 UNK        -0.1150 
     11 C11        -0.2848  -18.5340  -48.0642 C.ar      23 UNK        -0.0193 
     12 C12         0.2799  -19.1982  -46.9708 C.ar      23 UNK        -0.1150 
     13 C13         1.3045  -20.1334  -47.1532 C.ar      23 UNK        -0.0193 
     14 C14         1.7938  -20.3687  -48.4406 C.ar      23 UNK        -0.1150 
     15 C15         1.9125  -20.8660  -45.9648 C.3       23 UNK        -0.0205 
     16 S16         0.6666  -21.6008  -44.8591 S.3       23 UNK        -0.2404 
     17 C17         0.0164  -23.0087  -45.8288 C.3       23 UNK        -0.0398 
     18 CA         -1.3718  -22.7913  -46.5084 C.3       11 UNK         0.1400 
     19 N          -2.2940  -21.9570  -45.7360 N.am      11 UNK        -0.5000 
     20 C          -3.0225  -22.3893  -44.7039 C.2       10 UNK         0.5000 
     21 O          -3.0119  -23.5525  -44.2949 O.2       10 UNK        -0.5000 
     22 CA         -3.8812  -21.3380  -43.9822 C.3       10 UNK         0.1400 
     23 CB         -5.2580  -21.8972  -43.5819 C.3       10 UNK        -0.1800 
     24 N          -3.1791  -20.8953  -42.7808 N.am      10 UNK        -0.5000 
     25 C          -2.2605  -19.9235  -42.7634 C.2       9 UNK         0.5000 
     26 O          -1.9816  -19.2342  -43.7446 O.2       9 UNK        -0.5000 
     27 CA         -1.5285  -19.7011  -41.4304 C.3       9 UNK         0.1400 
     28 CB         -0.3237  -20.6466  -41.3085 C.3       9 UNK        -0.1800 
     29 N          -1.0460  -18.3260  -41.3676 N.am      9 UNK        -0.5000 
     30 C          -1.4969  -17.3834  -40.5305 C.2       8 UNK         0.5000 
     31 O          -2.3083  -17.6014  -39.6294 O.2       8 UNK        -0.5000 
     32 CA         -0.9627  -15.9480  -40.7252 C.3       8 UNK         0.1400 
     33 CB          0.1682  -15.6616  -39.7247 C.3       8 UNK        -0.1800 
     34 N          -0.4786  -15.6841  -42.0809 N.am      8 UNK        -0.5000 
     35 C          -1.2369  -15.6829  -43.1855 C.2       7 UNK         0.5000 
     36 O          -2.4668  -15.7462  -43.1609 O.2       7 UNK        -0.5000 
     37 CA         -0.5143  -15.6210  -44.5468 C.3       7 UNK         0.1400 
     38 CB         -0.7885  -14.2883  -45.2602 C.3       7 UNK        -0.1800 
     39 N           0.9343  -15.8409  -44.5022 N.am      7 UNK        -0.5000 
     40 C           1.5393  -16.9855  -44.1526 C.2       6 UNK         0.5000 
     41 O           0.9508  -17.9686  -43.7075 O.2       6 UNK        -0.5000 
     42 CA          3.0699  -17.0075  -44.2712 C.3       6 UNK         0.1400 
     43 CB          3.5193  -17.0023  -45.7430 C.3       6 UNK        -0.1800 
     44 N           3.6467  -15.8624  -43.5709 N.am      6 UNK        -0.5000 
     45 C           3.8680  -15.8230  -42.2490 C.2       5 UNK         0.5000 
     46 O           3.6917  -16.7814  -41.4968 O.2       5 UNK        -0.5000 
     47 CA          4.3579  -14.4855  -41.6597 C.3       5 UNK         0.1400 
     48 CB          5.8930  -14.4472  -41.6171 C.3       5 UNK        -0.1800 
     49 N           3.8725  -13.3183  -42.3969 N.am      5 UNK        -0.5000 
     50 C           2.5913  -12.9278  -42.4528 C.2       4 UNK         0.5000 
     51 O           1.6798  -13.4850  -41.8447 O.2       4 UNK        -0.5000 
     52 CA          2.2694  -11.7412  -43.3807 C.3       4 UNK         0.1400 
     53 CB          2.3345  -10.4175  -42.6047 C.3       4 UNK        -0.1800 
     54 N           3.1483  -11.6598  -44.5519 N.am      4 UNK        -0.5000 
     55 C           3.2426  -12.6011  -45.4996 C.2       3 UNK         0.5000 
     56 O           2.6234  -13.6676  -45.4701 O.2       3 UNK        -0.5000 
     57 CA          4.2501  -12.3373  -46.6305 C.3       3 UNK         0.1400 
     58 CB          5.5631  -13.0863  -46.3524 C.3       3 UNK        -0.1800 
     59 N           3.7303  -12.7705  -47.9234 N.am      3 UNK        -0.5000 
     60 C           2.6950  -12.2180  -48.5707 C.2       2 UNK         0.5000 
     61 O           2.0997  -11.2138  -48.1776 O.2       2 UNK        -0.5000 
     62 CA          2.2619  -12.8889  -49.8894 C.3       2 UNK         0.1400 
     63 CB          2.7412  -12.0665  -51.0956 C.3       2 UNK        -0.1800 
     64 N           2.7748  -14.2536  -50.0192 N.am      2 UNK        -0.5000 
     65 C           2.2606  -15.3288  -49.4121 C.2       1 UNK         0.5000 
     66 O           1.2413  -15.2962  -48.7237 O.2       1 UNK        -0.5000 
     67 C          -1.3142  -22.3811  -47.9942 C.2       11 UNK         0.5000 
     68 O          -0.3915  -22.7940  -48.6972 O.2       11 UNK        -0.5000 
     69 N          -2.3350  -21.6611  -48.4931 N.am      12 UNK        -0.5000 
     70 CA         -2.4453  -21.2270  -49.8958 C.3       12 UNK         0.1400 
     71 CB         -3.6469  -20.2853  -50.0581 C.3       12 UNK        -0.1800 
     72 C          -2.5221  -22.3821  -50.9146 C.2       12 UNK         0.5000 
     73 O          -2.1972  -22.1901  -52.0876 O.2       12 UNK        -0.5000 
     74 N          -2.8849  -23.5817  -50.4407 N.am      13 UNK        -0.5000 
     75 CA         -2.8538  -24.8393  -51.1859 C.3       13 UNK         0.1400 
     76 CB         -3.4365  -25.9522  -50.3030 C.3       13 UNK        -0.1800 
     77 C          -1.4468  -25.2216  -51.6946 C.2       13 UNK         0.5000 
     78 O          -1.3485  -25.9439  -52.6860 O.2       13 UNK        -0.5000 
     79 N          -0.3855  -24.6890  -51.0657 N.am      14 UNK        -0.5000 
     80 CA          1.0032  -24.8132  -51.5191 C.3       14 UNK         0.1400 
     81 CB          1.9420  -24.2735  -50.4294 C.3       14 UNK        -0.1800 
     82 C           1.2763  -24.1083  -52.8655 C.2       14 UNK         0.5000 
     83 O           2.1978  -24.5102  -53.5762 O.2       14 UNK        -0.5000 
     84 N           0.4590  -23.1015  -53.2077 N.am      15 UNK        -0.5000 
     85 CA          0.4558  -22.4178  -54.5036 C.3       15 UNK         0.1400 
     86 CB          0.3400  -20.9024  -54.2686 C.3       15 UNK        -0.1800 
     87 C          -0.6632  -22.9398  -55.4304 C.2       15 UNK         0.5000 
     88 O          -0.9355  -22.3161  -56.4570 O.2       15 UNK        -0.5000 
     89 N          -1.2884  -24.0694  -55.0616 N.am      16 UNK        -0.5000 
     90 CA         -2.3737  -24.7601  -55.7644 C.3       16 UNK         0.1400 
     91 CB         -1.8958  -25.2953  -57.1311 C.3       16 UNK        -0.1800 
     92 C          -3.6753  -23.9355  -55.8543 C.2       16 UNK         0.5000 
     93 O          -4.4117  -24.0544  -56.8362 O.2       16 UNK        -0.5000 
     94 N          -3.9506  -23.1248  -54.8217 N.am      17 UNK        -0.5000 
     95 CA         -5.2084  -22.3929  -54.6619 C.3       17 UNK         0.1400 
     96 CB         -5.0564  -21.3825  -53.5162 C.3       17 UNK        -0.1800 
     97 C          -6.3983  -23.3383  -54.3956 C.2       17 UNK         0.5000 
     98 O          -6.2066  -24.4577  -53.9126 O.2       17 UNK        -0.5000 
     99 N          -7.6114  -22.8571  -54.6995 N.am      18 UNK        -0.5000 
    100 CA        -8.8720  -23.5991  -54.5706 C.3       18 UNK         0.1400 
    101 CB        -9.9886  -22.8018  -55.2627 C.3       18 UNK        -0.1800 
    102 C         -9.2718  -23.9337  -53.1182 C.2       18 UNK         0.5000 
    103 O        -10.0493  -24.8648  -52.9035 O.2       18 UNK        -0.5000 
    104 N         -8.7319  -23.1823  -52.1549 N.am      19 UNK        -0.5000 
    105 CA        -8.8439  -23.4134  -50.7216 C.3       19 UNK         0.1400 
    106 CB        -9.9945  -22.5683  -50.1498 C.3       19 UNK        -0.1800 
    107 C         -7.5043  -23.0280  -50.0826 C.2       19 UNK         0.5000 
    108 O         -6.7647  -22.2246  -50.6557 O.2       19 UNK        -0.5000 
    109 N         -7.2171  -23.5931  -48.9041 N.am      20 UNK        -0.5000 
    110 CA        -5.9904  -23.3196  -48.1525 C.3       20 UNK         0.1400 
    111 CB        -5.7599  -24.4374  -47.1250 C.3       20 UNK        -0.1800 
    112 C         -5.9876  -21.9442  -47.4614 C.2       20 UNK         0.5000 
    113 O         -4.9097  -21.4315  -47.1646 O.2       20 UNK        -0.5000 
    114 N         -7.1754  -21.3811  -47.2030 N.am      21 UNK        -0.5000 
    115 CA        -7.3606  -20.0760  -46.5719 C.3       21 UNK         0.1400 
    116 CB        -8.8557  -19.8602  -46.2918 C.3       21 UNK        -0.1800 
    117 C         -6.7908  -18.9331  -47.4333 C.2       21 UNK         0.5000 
    118 O         -7.1466  -18.8158  -48.6078 O.2       21 UNK        -0.5000 
    119 N         -5.9277  -18.1148  -46.8239 N.am      22 UNK        -0.5000 
    120 CA        -5.2298  -16.9909  -47.4712 C.3       22 UNK         0.1400 
    121 C         -6.0749  -15.6881  -47.5891 C.2       22 UNK         0.5000 
    122 N         -7.2673  -15.6079  -47.0108 N.am      22 UNK        -0.7600 
    123 O         -5.6439  -14.7319  -48.2274 O.2       22 UNK        -0.5000 
    124 C124       -3.8677  -16.7099  -46.7866 C.3       23 UNK        -0.0398 
    125 S125       -2.7600  -18.1586  -46.8446 S.3       23 UNK        -0.2404 
    126 C126       -1.4013  -17.5177  -47.8731 C.3       23 UNK        -0.0205 
    127 H127        6.7577  -16.6377  -48.1366 H         1 UNK         0.0600 
    128 H128        7.1602  -15.0347  -48.7567 H         1 UNK         0.0600 
    129 H129        7.5240  -16.4712  -49.7192 H         1 UNK         0.0600 
    130 H130        4.6285  -17.1301  -48.3254 H         1 UNK         0.3000 
    131 H131        2.5624  -17.3451  -48.8738 H         1 UNK         0.0600 
    132 H132        1.7645  -17.2082  -51.2946 H         1 UNK         0.0800 
    133 H133        3.3436  -16.6529  -51.7535 H         1 UNK         0.0800 
    134 H134        2.0221  -20.9604  -51.0921 H         1 UNK         0.0800 
    135 H135        1.1185  -19.5872  -51.6820 H         1 UNK         0.0800 
    136 H136       -0.2048  -18.2580  -50.1916 H         1 UNK         0.1150 
    137 H137       -0.0912  -18.9990  -45.9746 H         1 UNK         0.1150 
    138 H138        2.6007  -21.0715  -48.5926 H         1 UNK         0.1150 
    139 H139        2.6015  -21.6455  -46.2932 H         1 UNK         0.0800 
    140 H140        2.5032  -20.1536  -45.3883 H         1 UNK         0.0800 
    141 H141       -0.0842  -23.8302  -45.1186 H         1 UNK         0.0800 
    142 H142        0.7752  -23.3487  -46.5350 H         1 UNK         0.0800 
    143 H143       -1.8275  -23.7818  -46.5728 H         1 UNK         0.0600 
    144 H144       -2.3109  -20.9734  -45.9741 H         1 UNK         0.3000 
    145 H145       -4.0476  -20.4927  -44.6544 H         1 UNK         0.0600 
    146 H146       -5.7908  -22.2822  -44.4516 H         1 UNK         0.0600 
    147 H147       -5.8813  -21.1223  -43.1356 H         1 UNK         0.0600 
    148 H148       -5.1733  -22.7135  -42.8636 H         1 UNK         0.0600 
    149 H149       -3.3281  -21.4483  -41.9493 H         1 UNK         0.3000 
    150 H150       -2.2234  -19.9103  -40.6147 H         1 UNK         0.0600 
    151 H151       -0.6270  -21.6896  -41.4074 H         1 UNK         0.0600 
    152 H152        0.1636  -20.5380  -40.3395 H         1 UNK         0.0600 
    153 H153        0.4210  -20.4451  -42.0795 H         1 UNK         0.0600 
    154 H154       -0.4388  -18.0551  -42.1359 H         1 UNK         0.3000 
    155 H155       -1.7860  -15.2608  -40.5204 H         1 UNK         0.0600 
    156 H156        1.0534  -16.2633  -39.9359 H         1 UNK         0.0600 
    157 H157       -0.1447  -15.8824  -38.7034 H         1 UNK         0.0600 
    158 H158        0.4607  -14.6122  -39.7501 H         1 UNK         0.0600 
    159 H159        0.5177  -15.5523  -42.1882 H         1 UNK         0.3000 
    160 H160       -0.9409  -16.4260  -45.1450 H         1 UNK         0.0600 
    161 H161       -0.3762  -13.4465  -44.7038 H         1 UNK         0.0600 
    162 H162       -1.8595  -14.1168  -45.3753 H         1 UNK         0.0600 
    163 H163       -0.3486  -14.2778  -46.2581 H         1 UNK         0.0600 
    164 H164        1.5107  -15.0758  -44.8441 H         1 UNK         0.3000 
    165 H165        3.4328  -17.9317  -43.8159 H         1 UNK         0.0600 
    166 H166        4.6052  -17.0539  -45.8211 H         1 UNK         0.0600 
    167 H167        3.1122  -17.8619  -46.2758 H         1 UNK         0.0600 
    168 H168        3.1879  -16.1085  -46.2717 H         1 UNK         0.0600 
    169 H169        3.7482  -15.0116  -44.1073 H         1 UNK         0.3000 
    170 H170        3.9841  -14.4190  -40.6357 H         1 UNK         0.0600 
    171 H171        6.2890  -15.2929  -41.0531 H         1 UNK         0.0600 
    172 H172        6.3250  -14.4888  -42.6178 H         1 UNK         0.0600 
    173 H173        6.2520  -13.5390  -41.1328 H         1 UNK         0.0600 
    174 H174        4.5560  -12.7950  -42.9234 H         1 UNK         0.3000 
    175 H175        1.2477  -11.8754  -43.7407 H         1 UNK         0.0600 
    176 H176        3.3424  -10.2117  -42.2422 H         1 UNK         0.0600 
    177 H177        2.0226   -9.5790  -43.2275 H         1 UNK         0.0600 
    178 H178        1.6723  -10.4403  -41.7380 H         1 UNK         0.0600 
    179 H179        3.6991  -10.8179  -44.6402 H         1 UNK         0.3000 
    180 H180        4.4579  -11.2667  -46.6858 H         1 UNK         0.0600 
    181 H181        5.4102  -14.1657  -46.3058 H         1 UNK         0.0600 
    182 H182        5.9989  -12.7752  -45.4021 H         1 UNK         0.0600 
    183 H183        6.3030  -12.8867  -47.1278 H         1 UNK         0.0600 
    184 H184        4.1313  -13.6089  -48.3131 H         1 UNK         0.3000 
    185 H185        1.1703  -12.9168  -49.9040 H         1 UNK         0.0600 
    186 H186        2.3599  -11.0455  -51.0501 H         1 UNK         0.0600 
    187 H187        3.8298  -12.0101  -51.1364 H         1 UNK         0.0600 
    188 H188        2.3923  -12.5013  -52.0324 H         1 UNK         0.0600 
    189 H189        3.6465  -14.3757  -50.5294 H         1 UNK         0.3000 
    190 H190       -3.1130  -21.4161  -47.8858 H         1 UNK         0.3000 
    191 H191       -1.5429  -20.6664  -50.1366 H         1 UNK         0.0600 
    192 H192       -3.6980  -19.8897  -51.0730 H         1 UNK         0.0600 
    193 H193       -3.5795  -19.4336  -49.3829 H         1 UNK         0.0600 
    194 H194       -4.5894  -20.7947  -49.8606 H         1 UNK         0.0600 
    195 H195       -3.1007  -23.6463  -49.4586 H         1 UNK         0.3000 
    196 H196       -3.4973  -24.7220  -52.0606 H         1 UNK         0.0600 
    197 H197       -2.8543  -26.0895  -49.3909 H         1 UNK         0.0600 
    198 H198       -4.4650  -25.7304  -50.0170 H         1 UNK         0.0600 
    199 H199       -3.4475  -26.9056  -50.8329 H         1 UNK         0.0600 
    200 H200       -0.5361  -24.0883  -50.2610 H         1 UNK         0.3000 
    201 H201        1.2162  -25.8753  -51.6562 H         1 UNK         0.0600 
    202 H202        1.7965  -24.7999  -49.4860 H         1 UNK         0.0600 
    203 H203        1.7774  -23.2115  -50.2467 H         1 UNK         0.0600 
    204 H204        2.9871  -24.3990  -50.7150 H         1 UNK         0.0600 
    205 H205       -0.2987  -22.8490  -52.5822 H         1 UNK         0.3000 
    206 H206        1.3966  -22.5978  -55.0272 H         1 UNK         0.0600 
    207 H207        1.2223  -20.5281  -53.7521 H         1 UNK         0.0600 
    208 H208        0.2731  -20.3545  -55.2092 H         1 UNK         0.0600 
    209 H209       -0.5396  -20.6489  -53.6760 H         1 UNK         0.0600 
    210 H210       -0.9906  -24.5173  -54.2033 H         1 UNK         0.3000 
    211 H211       -2.6206  -25.6269  -55.1500 H         1 UNK         0.0600 
    212 H212       -2.6477  -25.9443  -57.5813 H         1 UNK         0.0600 
    213 H213       -0.9838  -25.8830  -57.0272 H         1 UNK         0.0600 
    214 H214       -1.6975  -24.4887  -57.8373 H         1 UNK         0.0600 
    215 H215       -3.2931  -23.0629  -54.0563 H         1 UNK         0.3000 
    216 H216       -5.4003  -21.8442  -55.5864 H         1 UNK         0.0600 
    217 H217       -4.9110  -21.8860  -52.5609 H         1 UNK         0.0600 
    218 H218       -5.9440  -20.7563  -53.4204 H         1 UNK         0.0600 
    219 H219       -4.2061  -20.7199  -53.6795 H         1 UNK         0.0600 
    220 H220       -7.6839  -21.9238  -55.0787 H         1 UNK         0.3000 
    221 H221       -8.7543  -24.5479  -55.0982 H         1 UNK         0.0600 
    222 H222       -9.7620  -22.6364  -56.3162 H         1 UNK         0.0600 
    223 H223      -10.1381  -21.8289  -54.7928 H         1 UNK         0.0600 
    224 H224      -10.9380  -23.3372  -55.2172 H         1 UNK         0.0600 
    225 H225       -8.0497  -22.4779  -52.4055 H         1 UNK         0.3000 
    226 H226       -9.0291  -24.4718  -50.5263 H         1 UNK         0.0600 
    227 H227       -9.8249  -21.5018  -50.3052 H         1 UNK         0.0600 
    228 H228      -10.9438  -22.8277  -50.6187 H         1 UNK         0.0600 
    229 H229      -10.1069  -22.7314  -49.0775 H         1 UNK         0.0600 
    230 H230       -7.8684  -24.2464  -48.4921 H         1 UNK         0.3000 
    231 H231       -5.1530  -23.3287  -48.8512 H         1 UNK         0.0600 
    232 H232       -6.5684  -24.4864  -46.3946 H         1 UNK         0.0600 
    233 H233       -4.8313  -24.2779  -46.5750 H         1 UNK         0.0600 
    234 H234       -5.6844  -25.4107  -47.6101 H         1 UNK         0.0600 
    235 H235       -8.0086  -21.8578  -47.5107 H         1 UNK         0.3000 
    236 H236       -6.8354  -20.0940  -45.6146 H         1 UNK         0.0600 
    237 H237       -9.2501  -20.6350  -45.6340 H         1 UNK         0.0600 
    238 H238       -9.0269  -18.9010  -45.8017 H         1 UNK         0.0600 
    239 H239       -9.4428  -19.8689  -47.2112 H         1 UNK         0.0600 
    240 H240       -5.6788  -18.2860  -45.8612 H         1 UNK         0.3000 
    241 H241       -5.0138  -17.2856  -48.5003 H         1 UNK         0.0600 
    242 H242       -7.8060  -14.7604  -47.0996 H         1 UNK         0.3800 
    243 H243       -7.6377  -16.3851  -46.4886 H         1 UNK         0.3800 
    244 H244       -4.0137  -16.4335  -45.7409 H         1 UNK         0.0800 
    245 H245       -3.3675  -15.8602  -47.2546 H         1 UNK         0.0800 
    246 H246       -0.9792  -16.6190  -47.4241 H         1 UNK         0.0800 
    247 H247       -1.8128  -17.2166  -48.8376 H         1 UNK         0.0800 
@<TRIPOS>BOND
     1    1    2 1    
     2    1  127 1    
     3    1  128 1    
     4    1  129 1    
     5    2    3 2    
     6    2    4 am   BACKBONE|DICT|INTERRES
     7    4    5 1    
     8    4  130 1    
     9    5    6 1    
    10    5   65 1    
    11    5  131 1    
    12    6    7 1    
    13    6  132 1    
    14    6  133 1    
    15    7    8 1    
    16    8    9 1    
    17    8  134 1    
    18    8  135 1    
    19    9   10 ar   
    20    9   14 ar   
    21   10   11 ar   
    22   10  136 1    
    23   11   12 ar   
    24   11  126 1    
    25   12   13 ar   
    26   12  137 1    
    27   13   14 ar   
    28   13   15 1    
    29   14  138 1    
    30   15   16 1    
    31   15  139 1    
    32   15  140 1    
    33   16   17 1    
    34   17   18 1    
    35   17  141 1    
    36   17  142 1    
    37   18   19 1    
    38   18   67 1    
    39   18  143 1    
    40   19   20 am   BACKBONE|DICT|INTERRES
    41   19  144 1    
    42   20   21 2    
    43   20   22 1    
    44   22   23 1    
    45   22   24 1    
    46   22  145 1    
    47   23  146 1    
    48   23  147 1    
    49   23  148 1    
    50   24   25 am   BACKBONE|DICT|INTERRES
    51   24  149 1    
    52   25   26 2    
    53   25   27 1    
    54   27   28 1    
    55   27   29 1    
    56   27  150 1    
    57   28  151 1    
    58   28  152 1    
    59   28  153 1    
    60   29   30 am   BACKBONE|DICT|INTERRES
    61   29  154 1    
    62   30   31 2    
    63   30   32 1    
    64   32   33 1    
    65   32   34 1    
    66   32  155 1    
    67   33  156 1    
    68   33  157 1    
    69   33  158 1    
    70   34   35 am   BACKBONE|DICT|INTERRES
    71   34  159 1    
    72   35   36 2    
    73   35   37 1    
    74   37   38 1    
    75   37   39 1    
    76   37  160 1    
    77   38  161 1    
    78   38  162 1    
    79   38  163 1    
    80   39   40 am   BACKBONE|DICT|INTERRES
    81   39  164 1    
    82   40   41 2    
    83   40   42 1    
    84   42   43 1    
    85   42   44 1    
    86   42  165 1    
    87   43  166 1    
    88   43  167 1    
    89   43  168 1    
    90   44   45 am   BACKBONE|DICT|INTERRES
    91   44  169 1    
    92   45   46 2    
    93   45   47 1    
    94   47   48 1    
    95   47   49 1    
    96   47  170 1    
    97   48  171 1    
    98   48  172 1    
    99   48  173 1    
   100   49   50 am   BACKBONE|DICT|INTERRES
   101   49  174 1    
   102   50   51 2    
   103   50   52 1    
   104   52   53 1    
   105   52   54 1    
   106   52  175 1    
   107   53  176 1    
   108   53  177 1    
   109   53  178 1    
   110   54   55 am   BACKBONE|DICT|INTERRES
   111   54  179 1    
   112   55   56 2    
   113   55   57 1    
   114   57   58 1    
   115   57   59 1    
   116   57  180 1    
   117   58  181 1    
   118   58  182 1    
   119   58  183 1    
   120   59   60 am   BACKBONE|DICT|INTERRES
   121   59  184 1    
   122   60   61 2    
   123   60   62 1    
   124   62   63 1    
   125   62   64 1    
   126   62  185 1    
   127   63  186 1    
   128   63  187 1    
   129   63  188 1    
   130   64   65 am   BACKBONE|DICT|INTERRES
   131   64  189 1    
   132   65   66 2    
   133   67   68 2    
   134   67   69 am   BACKBONE|DICT|INTERRES
   135   69   70 1    
   136   69  190 1    
   137   70   71 1    
   138   70   72 1    
   139   70  191 1    
   140   71  192 1    
   141   71  193 1    
   142   71  194 1    
   143   72   73 2    
   144   72   74 am   BACKBONE|DICT|INTERRES
   145   74   75 1    
   146   74  195 1    
   147   75   76 1    
   148   75   77 1    
   149   75  196 1    
   150   76  197 1    
   151   76  198 1    
   152   76  199 1    
   153   77   78 2    
   154   77   79 am   BACKBONE|DICT|INTERRES
   155   79   80 1    
   156   79  200 1    
   157   80   81 1    
   158   80   82 1    
   159   80  201 1    
   160   81  202 1    
   161   81  203 1    
   162   81  204 1    
   163   82   83 2    
   164   82   84 am   BACKBONE|DICT|INTERRES
   165   84   85 1    
   166   84  205 1    
   167   85   86 1    
   168   85   87 1    
   169   85  206 1    
   170   86  207 1    
   171   86  208 1    
   172   86  209 1    
   173   87   88 2    
   174   87   89 am   BACKBONE|DICT|INTERRES
   175   89   90 1    
   176   89  210 1    
   177   90   91 1    
   178   90   92 1    
   179   90  211 1    
   180   91  212 1    
   181   91  213 1    
   182   91  214 1    
   183   92   93 2    
   184   92   94 am   BACKBONE|DICT|INTERRES
   185   94   95 1    
   186   94  215 1    
   187   95   96 1    
   188   95   97 1    
   189   95  216 1    
   190   96  217 1    
   191   96  218 1    
   192   96  219 1    
   193   97   98 2    
   194   97   99 am   BACKBONE|DICT|INTERRES
   195   99  100 1    
   196   99  220 1    
   197  100  101 1    
   198  100  102 1    
   199  100  221 1    
   200  101  222 1    
   201  101  223 1    
   202  101  224 1    
   203  102  103 2    
   204  102  104 am   BACKBONE|DICT|INTERRES
   205  104  105 1    
   206  104  225 1    
   207  105  106 1    
   208  105  107 1    
   209  105  226 1    
   210  106  227 1    
   211  106  228 1    
   212  106  229 1    
   213  107  108 2    
   214  107  109 am   BACKBONE|DICT|INTERRES
   215  109  110 1    
   216  109  230 1    
   217  110  111 1    
   218  110  112 1    
   219  110  231 1    
   220  111  232 1    
   221  111  233 1    
   222  111  234 1    
   223  112  113 2    
   224  112  114 am   BACKBONE|DICT|INTERRES
   225  114  115 1    
   226  114  235 1    
   227  115  116 1    
   228  115  117 1    
   229  115  236 1    
   230  116  237 1    
   231  116  238 1    
   232  116  239 1    
   233  117  118 2    
   234  117  119 am   BACKBONE|DICT|INTERRES
   235  119  120 1    
   236  119  240 1    
   237  120  121 1    
   238  120  124 1    
   239  120  241 1    
   240  121  122 am   BACKBONE|DICT|INTERRES
   241  121  123 2    
   242  122  242 1    
   243  122  243 1    
   244  124  125 1    
   245  124  244 1    
   246  124  245 1    
   247  125  126 1    
   248  126  246 1    
   249  126  247 1    
@<TRIPOS>SUBSTRUCTURE
     1 UNK         1 GROUP             0       ****    0 ROOT    
