@<TRIPOS>MOLECULE
3R540
247   249    1
SMALL
USER_CHARGES


@<TRIPOS>ATOM
      1 CA         -0.9899  -17.5733  -49.6158 C.3       0 UNK        -0.1800 
      2 C          -0.3362  -16.2010  -49.5381 C.2       0 UNK         0.5000 
      3 O          -0.9067  -15.2873  -48.9418 O.2       0 UNK        -0.5000 
      4 N           0.8620  -16.0551  -50.1225 N.am      1 UNK        -0.5000 
      5 CA          1.5945  -14.7861  -50.2746 C.3       1 UNK         0.1400 
      6 C6          2.8760  -14.9437  -51.1275 C.3       23 UNK        -0.0398 
      7 S7          2.5551  -15.6367  -52.7839 S.3       23 UNK        -0.2404 
      8 C8          3.5943  -17.1305  -52.7564 C.3       23 UNK        -0.0205 
      9 C9          2.9827  -18.2400  -51.9146 C.ar      23 UNK        -0.0193 
     10 C10         1.9272  -18.9950  -52.4310 C.ar      23 UNK        -0.1150 
     11 C11         1.3763  -20.0538  -51.6976 C.ar      23 UNK        -0.0193 
     12 C12         1.9021  -20.3459  -50.4365 C.ar      23 UNK        -0.1150 
     13 C13         2.9561  -19.5984  -49.9051 C.ar      23 UNK        -0.0193 
     14 C14         3.4898  -18.5407  -50.6468 C.ar      23 UNK        -0.1150 
     15 C15         3.5482  -19.9693  -48.5531 C.3       23 UNK        -0.0205 
     16 S16         2.8876  -18.9610  -47.1900 S.3       23 UNK        -0.2404 
     17 C17         1.1301  -19.4446  -47.1430 C.3       23 UNK        -0.0398 
     18 CA          0.8531  -20.8890  -46.6538 C.3       11 UNK         0.1400 
     19 N           1.5295  -21.2069  -45.3932 N.am      11 UNK        -0.5000 
     20 C           1.6752  -22.4367  -44.8809 C.2       10 UNK         0.5000 
     21 O           1.3028  -23.4577  -45.4612 O.2       10 UNK        -0.5000 
     22 CA          2.2707  -22.5359  -43.4607 C.3       10 UNK         0.1400 
     23 CB          3.1761  -23.7710  -43.2758 C.3       10 UNK        -0.1800 
     24 N           2.9273  -21.3038  -43.0064 N.am      10 UNK        -0.5000 
     25 C           4.0826  -20.7707  -43.4319 C.2       9 UNK         0.5000 
     26 O           4.8040  -21.2827  -44.2878 O.2       9 UNK        -0.5000 
     27 CA          4.4964  -19.4203  -42.8102 C.3       9 UNK         0.1400 
     28 CB          4.3326  -18.2855  -43.8323 C.3       9 UNK        -0.1800 
     29 N           3.7384  -19.0702  -41.6068 N.am      9 UNK        -0.5000 
     30 C           3.9027  -19.6287  -40.3998 C.2       8 UNK         0.5000 
     31 O           4.7288  -20.5089  -40.1578 O.2       8 UNK        -0.5000 
     32 CA          2.9676  -19.1324  -39.2851 C.3       8 UNK         0.1400 
     33 CB          3.4858  -17.8140  -38.6886 C.3       8 UNK        -0.1800 
     34 N           1.6053  -18.9358  -39.7821 N.am      8 UNK        -0.5000 
     35 C           0.6659  -19.8907  -39.8281 C.2       7 UNK         0.5000 
     36 O           0.8427  -21.0425  -39.4313 O.2       7 UNK        -0.5000 
     37 CA         -0.7010  -19.4995  -40.4254 C.3       7 UNK         0.1400 
     38 CB         -1.6466  -18.9951  -39.3253 C.3       7 UNK        -0.1800 
     39 N          -0.5953  -18.4794  -41.4691 N.am      7 UNK        -0.5000 
     40 C          -0.0898  -18.7046  -42.6877 C.2       6 UNK         0.5000 
     41 O           0.2711  -19.8132  -43.0824 O.2       6 UNK        -0.5000 
     42 CA          0.0663  -17.4962  -43.6261 C.3       6 UNK         0.1400 
     43 CB         -1.1222  -17.4105  -44.5935 C.3       6 UNK        -0.1800 
     44 N           0.2527  -16.2042  -42.9538 N.am      6 UNK        -0.5000 
     45 C           1.2550  -15.9147  -42.1074 C.2       5 UNK         0.5000 
     46 O           2.0947  -16.7463  -41.7621 O.2       5 UNK        -0.5000 
     47 CA          1.3509  -14.4854  -41.5385 C.3       5 UNK         0.1400 
     48 CB          2.7459  -13.8848  -41.7786 C.3       5 UNK        -0.1800 
     49 N           0.3432  -13.5821  -42.0938 N.am      5 UNK        -0.5000 
     50 C          -0.8540  -13.3404  -41.5419 C.2       4 UNK         0.5000 
     51 O          -1.2319  -13.8498  -40.4864 O.2       4 UNK        -0.5000 
     52 CA         -1.8009  -12.3850  -42.2984 C.3       4 UNK         0.1400 
     53 CB         -1.7122  -10.9673  -41.7134 C.3       4 UNK        -0.1800 
     54 N          -1.5514  -12.3195  -43.7407 N.am      4 UNK        -0.5000 
     55 C          -1.6945  -13.3450  -44.5906 C.2       3 UNK         0.5000 
     56 O          -2.0762  -14.4604  -44.2397 O.2       3 UNK        -0.5000 
     57 CA         -1.3169  -13.1084  -46.0673 C.3       3 UNK         0.1400 
     58 CB         -1.2370  -11.6169  -46.4615 C.3       3 UNK        -0.1800 
     59 N          -0.0748  -13.7930  -46.4396 N.am      3 UNK        -0.5000 
     60 C           1.1291  -13.6706  -45.8552 C.2       2 UNK         0.5000 
     61 O           1.3313  -12.9943  -44.8455 O.2       2 UNK        -0.5000 
     62 CA          2.3200  -14.4126  -46.5003 C.3       2 UNK         0.1400 
     63 CB          2.7495  -15.6131  -45.6491 C.3       2 UNK        -0.1800 
     64 N           2.0619  -14.8837  -47.8609 N.am      2 UNK        -0.5000 
     65 C           1.9511  -14.0971  -48.9394 C.2       1 UNK         0.5000 
     66 O           2.1114  -12.8763  -48.9117 O.2       1 UNK        -0.5000 
     67 C          -0.6711  -21.1179  -46.5611 C.2       11 UNK         0.5000 
     68 O          -1.3123  -21.3272  -47.5911 O.2       11 UNK        -0.5000 
     69 N          -1.2221  -21.0775  -45.3363 N.am      12 UNK        -0.5000 
     70 CA         -2.6464  -21.2244  -45.0289 C.3       12 UNK         0.1400 
     71 CB         -2.8628  -21.0825  -43.5149 C.3       12 UNK        -0.1800 
     72 C          -3.2717  -22.5345  -45.5380 C.2       12 UNK         0.5000 
     73 O          -4.4301  -22.5244  -45.9492 O.2       12 UNK        -0.5000 
     74 N          -2.4923  -23.6247  -45.5406 N.am      13 UNK        -0.5000 
     75 CA         -2.9069  -24.9312  -46.0554 C.3       13 UNK         0.1400 
     76 CB         -1.8443  -25.9784  -45.6899 C.3       13 UNK        -0.1800 
     77 C          -3.1601  -24.9181  -47.5748 C.2       13 UNK         0.5000 
     78 O          -4.1245  -25.5259  -48.0398 O.2       13 UNK        -0.5000 
     79 N          -2.3072  -24.1975  -48.3142 N.am      14 UNK        -0.5000 
     80 CA         -2.4333  -24.0023  -49.7565 C.3       14 UNK         0.1400 
     81 CB         -1.0693  -23.6062  -50.3348 C.3       14 UNK        -0.1800 
     82 C          -3.5102  -22.9589  -50.1001 C.2       14 UNK         0.5000 
     83 O          -4.2333  -23.1363  -51.0798 O.2       14 UNK        -0.5000 
     84 N          -3.6290  -21.9123  -49.2701 N.am      15 UNK        -0.5000 
     85 CA         -4.6652  -20.8840  -49.3793 C.3       15 UNK         0.1400 
     86 CB         -4.3622  -19.7365  -48.4065 C.3       15 UNK        -0.1800 
     87 C          -6.0839  -21.4420  -49.1497 C.2       15 UNK         0.5000 
     88 O          -7.0127  -21.0465  -49.8536 O.2       15 UNK        -0.5000 
     89 N          -6.2199  -22.3762  -48.1967 N.am      16 UNK        -0.5000 
     90 CA         -7.4526  -23.1179  -47.9237 C.3       16 UNK         0.1400 
     91 CB         -7.2957  -23.9142  -46.6199 C.3       16 UNK        -0.1800 
     92 C          -7.8554  -24.0516  -49.0799 C.2       16 UNK         0.5000 
     93 O          -9.0477  -24.2179  -49.3395 O.2       16 UNK        -0.5000 
     94 N          -6.8630  -24.6038  -49.7910 N.am      17 UNK        -0.5000 
     95 CA         -7.0232  -25.4319  -50.9882 C.3       17 UNK         0.1400 
     96 CB         -5.7955  -26.3505  -51.1233 C.3       17 UNK        -0.1800 
     97 C          -7.2758  -24.5765  -52.2510 C.2       17 UNK         0.5000 
     98 O          -6.5886  -24.7371  -53.2601 O.2       17 UNK        -0.5000 
     99 N          -8.2515  -23.6626  -52.1561 N.am      18 UNK        -0.5000 
    100 CA        -8.7518  -22.7197  -53.1662 C.3       18 UNK         0.1400 
    101 CB        -9.2785  -23.4686  -54.4071 C.3       18 UNK        -0.1800 
    102 C         -7.7870  -21.5826  -53.5681 C.2       18 UNK         0.5000 
    103 O         -8.2237  -20.6647  -54.2653 O.2       18 UNK        -0.5000 
    104 N         -6.5203  -21.6379  -53.1321 N.am      19 UNK        -0.5000 
    105 CA        -5.4152  -20.7024  -53.3759 C.3       19 UNK         0.1400 
    106 CB        -5.7370  -19.2877  -52.8521 C.3       19 UNK        -0.1800 
    107 C         -4.9400  -20.6531  -54.8399 C.2       19 UNK         0.5000 
    108 O         -3.7497  -20.8394  -55.0914 O.2       19 UNK        -0.5000 
    109 N         -5.8643  -20.3902  -55.7739 N.am      20 UNK        -0.5000 
    110 CA        -5.6521  -20.2039  -57.2111 C.3       20 UNK         0.1400 
    111 CB        -5.3377  -21.5587  -57.8842 C.3       20 UNK        -0.1800 
    112 C         -4.6038  -19.1023  -57.4776 C.2       20 UNK         0.5000 
    113 O         -4.8610  -17.9383  -57.1620 O.2       20 UNK        -0.5000 
    114 N         -3.4290  -19.4867  -57.9950 N.am      21 UNK        -0.5000 
    115 CA        -2.2764  -18.6156  -58.2399 C.3       21 UNK         0.1400 
    116 CB        -1.1874  -19.4265  -58.9590 C.3       21 UNK        -0.1800 
    117 C         -1.7023  -17.9491  -56.9713 C.2       21 UNK         0.5000 
    118 O         -1.0615  -16.9032  -57.0834 O.2       21 UNK        -0.5000 
    119 N         -1.9510  -18.5432  -55.7966 N.am      22 UNK        -0.5000 
    120 CA        -1.5942  -17.9833  -54.4831 C.3       22 UNK         0.1400 
    121 C         -2.5169  -16.8162  -54.0198 C.2       22 UNK         0.5000 
    122 N         -3.6260  -16.5251  -54.6924 N.am      22 UNK        -0.7600 
    123 O         -2.2190  -16.1600  -53.0265 O.2       22 UNK        -0.5000 
    124 C124       -1.5176  -19.0750  -53.3852 C.3       23 UNK        -0.0398 
    125 S125       -0.4572  -20.4888  -53.8414 S.3       23 UNK        -0.2404 
    126 C126        0.2417  -20.9357  -52.2186 C.3       23 UNK        -0.0205 
    127 H127       -0.3358  -18.3078  -50.0842 H         1 UNK         0.0600 
    128 H128       -1.2451  -17.9261  -48.6168 H         1 UNK         0.0600 
    129 H129       -1.9081  -17.5150  -50.2004 H         1 UNK         0.0600 
    130 H130        1.2782  -16.8447  -50.5974 H         1 UNK         0.3000 
    131 H131        0.9251  -14.1045  -50.8037 H         1 UNK         0.0600 
    132 H132        3.3543  -13.9734  -51.2747 H         1 UNK         0.0800 
    133 H133        3.6078  -15.5601  -50.6031 H         1 UNK         0.0800 
    134 H134        4.5961  -16.8791  -52.4043 H         1 UNK         0.0800 
    135 H135        3.7178  -17.4870  -53.7801 H         1 UNK         0.0800 
    136 H136        1.5567  -18.7528  -53.4159 H         1 UNK         0.1150 
    137 H137        1.4957  -21.1723  -49.8704 H         1 UNK         0.1150 
    138 H138        4.3149  -17.9696  -50.2448 H         1 UNK         0.1150 
    139 H139        3.3857  -21.0262  -48.3378 H         1 UNK         0.0800 
    140 H140        4.6306  -19.8374  -48.5856 H         1 UNK         0.0800 
    141 H141        0.7104  -19.3005  -48.1372 H         1 UNK         0.0800 
    142 H142        0.6260  -18.7215  -46.5024 H         1 UNK         0.0800 
    143 H143        1.2282  -21.5806  -47.4101 H         1 UNK         0.0600 
    144 H144        1.8310  -20.4256  -44.8299 H         1 UNK         0.3000 
    145 H145        1.4141  -22.6640  -42.7973 H         1 UNK         0.0600 
    146 H146        3.5859  -23.8123  -42.2666 H         1 UNK         0.0600 
    147 H147        2.6152  -24.6926  -43.4349 H         1 UNK         0.0600 
    148 H148        4.0092  -23.7750  -43.9788 H         1 UNK         0.0600 
    149 H149        2.3975  -20.7656  -42.3344 H         1 UNK         0.3000 
    150 H150        5.5530  -19.4920  -42.5444 H         1 UNK         0.0600 
    151 H151        4.9215  -18.4758  -44.7304 H         1 UNK         0.0600 
    152 H152        4.6640  -17.3313  -43.4222 H         1 UNK         0.0600 
    153 H153        3.2934  -18.1731  -44.1395 H         1 UNK         0.0600 
    154 H154        3.0744  -18.3046  -41.6985 H         1 UNK         0.3000 
    155 H155        2.9614  -19.8812  -38.4900 H         1 UNK         0.0600 
    156 H156        3.5222  -17.0170  -39.4322 H         1 UNK         0.0600 
    157 H157        4.4937  -17.9367  -38.2903 H         1 UNK         0.0600 
    158 H158        2.8512  -17.4775  -37.8687 H         1 UNK         0.0600 
    159 H159        1.4057  -18.0342  -40.1953 H         1 UNK         0.3000 
    160 H160       -1.1395  -20.3982  -40.8647 H         1 UNK         0.0600 
    161 H161       -2.6389  -18.7850  -39.7249 H         1 UNK         0.0600 
    162 H162       -1.2718  -18.0835  -38.8581 H         1 UNK         0.0600 
    163 H163       -1.7652  -19.7424  -38.5395 H         1 UNK         0.0600 
    164 H164       -0.8808  -17.5415  -41.2285 H         1 UNK         0.3000 
    165 H165        0.9631  -17.6928  -44.2112 H         1 UNK         0.0600 
    166 H166       -0.9478  -16.6610  -45.3658 H         1 UNK         0.0600 
    167 H167       -1.2973  -18.3573  -45.1013 H         1 UNK         0.0600 
    168 H168       -2.0440  -17.1514  -44.0715 H         1 UNK         0.0600 
    169 H169       -0.4173  -15.4798  -43.1830 H         1 UNK         0.3000 
    170 H170        1.2142  -14.5704  -40.4587 H         1 UNK         0.0600 
    171 H171        3.5270  -14.5147  -41.3508 H         1 UNK         0.0600 
    172 H172        2.9625  -13.7691  -42.8400 H         1 UNK         0.0600 
    173 H173        2.8341  -12.9030  -41.3133 H         1 UNK         0.0600 
    174 H174        0.5709  -13.1557  -42.9878 H         1 UNK         0.3000 
    175 H175       -2.8188  -12.7523  -42.1522 H         1 UNK         0.0600 
    176 H176       -2.4367  -10.3006  -42.1814 H         1 UNK         0.0600 
    177 H177       -1.9216  -10.9721  -40.6428 H         1 UNK         0.0600 
    178 H178       -0.7195  -10.5370  -41.8519 H         1 UNK         0.0600 
    179 H179       -1.1990  -11.4444  -44.1004 H         1 UNK         0.3000 
    180 H180       -2.1101  -13.5645  -46.6615 H         1 UNK         0.0600 
    181 H181       -0.4213  -11.0970  -45.9581 H         1 UNK         0.0600 
    182 H182       -2.1651  -11.0955  -46.2235 H         1 UNK         0.0600 
    183 H183       -1.0772  -11.5107  -47.5347 H         1 UNK         0.0600 
    184 H184       -0.1502  -14.3860  -47.2598 H         1 UNK         0.3000 
    185 H185        3.1530  -13.7073  -46.5338 H         1 UNK         0.0600 
    186 H186        1.9907  -16.3921  -45.6661 H         1 UNK         0.0600 
    187 H187        3.6785  -16.0460  -46.0206 H         1 UNK         0.0600 
    188 H188        2.9187  -15.3316  -44.6104 H         1 UNK         0.0600 
    189 H189        1.9197  -15.8762  -47.9793 H         1 UNK         0.3000 
    190 H190       -0.6154  -20.8748  -44.5484 H         1 UNK         0.3000 
    191 H191       -3.1691  -20.4021  -45.5183 H         1 UNK         0.0600 
    192 H192       -2.2464  -21.7839  -42.9514 H         1 UNK         0.0600 
    193 H193       -3.9037  -21.2686  -43.2463 H         1 UNK         0.0600 
    194 H194       -2.6245  -20.0752  -43.1765 H         1 UNK         0.0600 
    195 H195       -1.5434  -23.5436  -45.2043 H         1 UNK         0.3000 
    196 H196       -3.8431  -25.2073  -45.5654 H         1 UNK         0.0600 
    197 H197       -2.1274  -26.9664  -46.0554 H         1 UNK         0.0600 
    198 H198       -1.7222  -26.0550  -44.6093 H         1 UNK         0.0600 
    199 H199       -0.8720  -25.7339  -46.1203 H         1 UNK         0.0600 
    200 H200       -1.5777  -23.6775  -47.8472 H         1 UNK         0.3000 
    201 H201       -2.7286  -24.9485  -50.2149 H         1 UNK         0.0600 
    202 H202       -0.3278  -24.3864  -50.1628 H         1 UNK         0.0600 
    203 H203       -0.6943  -22.6857  -49.8874 H         1 UNK         0.0600 
    204 H204       -1.1373  -23.4552  -51.4126 H         1 UNK         0.0600 
    205 H205       -2.9499  -21.8050  -48.5226 H         1 UNK         0.3000 
    206 H206       -4.6189  -20.4845  -50.3926 H         1 UNK         0.0600 
    207 H207       -3.3479  -19.3600  -48.5384 H         1 UNK         0.0600 
    208 H208       -5.0448  -18.9016  -48.5686 H         1 UNK         0.0600 
    209 H209       -4.4741  -20.0512  -47.3700 H         1 UNK         0.0600 
    210 H210       -5.4274  -22.5825  -47.5951 H         1 UNK         0.3000 
    211 H211       -8.2585  -22.3941  -47.7865 H         1 UNK         0.0600 
    212 H212       -6.4688  -24.6229  -46.6785 H         1 UNK         0.0600 
    213 H213       -8.2003  -24.4805  -46.3947 H         1 UNK         0.0600 
    214 H214       -7.1094  -23.2518  -45.7744 H         1 UNK         0.0600 
    215 H215       -5.9117  -24.3919  -49.5235 H         1 UNK         0.3000 
    216 H216       -7.8980  -26.0721  -50.8570 H         1 UNK         0.0600 
    217 H217       -5.9114  -27.0388  -51.9613 H         1 UNK         0.0600 
    218 H218       -5.6529  -26.9530  -50.2260 H         1 UNK         0.0600 
    219 H219       -4.8817  -25.7803  -51.2904 H         1 UNK         0.0600 
    220 H220       -8.7253  -23.6146  -51.2599 H         1 UNK         0.3000 
    221 H221       -9.6054  -22.2268  -52.6987 H         1 UNK         0.0600 
    222 H222       -8.4736  -23.9446  -54.9676 H         1 UNK         0.0600 
    223 H223       -9.9969  -24.2395  -54.1283 H         1 UNK         0.0600 
    224 H224       -9.7863  -22.7855  -55.0890 H         1 UNK         0.0600 
    225 H225       -6.2599  -22.4605  -52.6035 H         1 UNK         0.3000 
    226 H226       -4.5782  -21.0838  -52.7903 H         1 UNK         0.0600 
    227 H227       -6.5028  -18.7928  -53.4497 H         1 UNK         0.0600 
    228 H228       -4.8510  -18.6531  -52.8767 H         1 UNK         0.0600 
    229 H229       -6.0910  -19.3127  -51.8224 H         1 UNK         0.0600 
    230 H230       -6.8178  -20.2659  -55.4425 H         1 UNK         0.3000 
    231 H231       -6.5939  -19.8385  -57.6226 H         1 UNK         0.0600 
    232 H232       -6.1538  -22.2645  -57.7287 H         1 UNK         0.0600 
    233 H233       -4.4306  -22.0185  -57.4905 H         1 UNK         0.0600 
    234 H234       -5.2158  -21.4446  -58.9621 H         1 UNK         0.0600 
    235 H235       -3.2943  -20.4694  -58.1831 H         1 UNK         0.3000 
    236 H236       -2.6040  -17.8150  -58.9061 H         1 UNK         0.0600 
    237 H237       -1.5537  -19.8318  -59.9024 H         1 UNK         0.0600 
    238 H238       -0.3226  -18.8027  -59.1891 H         1 UNK         0.0600 
    239 H239       -0.8378  -20.2590  -58.3470 H         1 UNK         0.0600 
    240 H240       -2.4836  -19.4071  -55.7771 H         1 UNK         0.3000 
    241 H241       -0.5948  -17.5530  -54.5738 H         1 UNK         0.0600 
    242 H242       -4.2037  -15.7621  -54.3777 H         1 UNK         0.3800 
    243 H243       -3.8932  -17.0437  -55.5207 H         1 UNK         0.3800 
    244 H244       -1.1384  -18.6380  -52.4605 H         1 UNK         0.0800 
    245 H245       -2.5098  -19.4603  -53.1511 H         1 UNK         0.0800 
    246 H246        0.6143  -21.9583  -52.2886 H         1 UNK         0.0800 
    247 H247       -0.5671  -20.9437  -51.4872 H         1 UNK         0.0800 
@<TRIPOS>BOND
     1    1    2 1    
     2    1  127 1    
     3    1  128 1    
     4    1  129 1    
     5    2    3 2    
     6    2    4 am   BACKBONE|DICT|INTERRES
     7    4    5 1    
     8    4  130 1    
     9    5    6 1    
    10    5   65 1    
    11    5  131 1    
    12    6    7 1    
    13    6  132 1    
    14    6  133 1    
    15    7    8 1    
    16    8    9 1    
    17    8  134 1    
    18    8  135 1    
    19    9   10 ar   
    20    9   14 ar   
    21   10   11 ar   
    22   10  136 1    
    23   11   12 ar   
    24   11  126 1    
    25   12   13 ar   
    26   12  137 1    
    27   13   14 ar   
    28   13   15 1    
    29   14  138 1    
    30   15   16 1    
    31   15  139 1    
    32   15  140 1    
    33   16   17 1    
    34   17   18 1    
    35   17  141 1    
    36   17  142 1    
    37   18   19 1    
    38   18   67 1    
    39   18  143 1    
    40   19   20 am   BACKBONE|DICT|INTERRES
    41   19  144 1    
    42   20   21 2    
    43   20   22 1    
    44   22   23 1    
    45   22   24 1    
    46   22  145 1    
    47   23  146 1    
    48   23  147 1    
    49   23  148 1    
    50   24   25 am   BACKBONE|DICT|INTERRES
    51   24  149 1    
    52   25   26 2    
    53   25   27 1    
    54   27   28 1    
    55   27   29 1    
    56   27  150 1    
    57   28  151 1    
    58   28  152 1    
    59   28  153 1    
    60   29   30 am   BACKBONE|DICT|INTERRES
    61   29  154 1    
    62   30   31 2    
    63   30   32 1    
    64   32   33 1    
    65   32   34 1    
    66   32  155 1    
    67   33  156 1    
    68   33  157 1    
    69   33  158 1    
    70   34   35 am   BACKBONE|DICT|INTERRES
    71   34  159 1    
    72   35   36 2    
    73   35   37 1    
    74   37   38 1    
    75   37   39 1    
    76   37  160 1    
    77   38  161 1    
    78   38  162 1    
    79   38  163 1    
    80   39   40 am   BACKBONE|DICT|INTERRES
    81   39  164 1    
    82   40   41 2    
    83   40   42 1    
    84   42   43 1    
    85   42   44 1    
    86   42  165 1    
    87   43  166 1    
    88   43  167 1    
    89   43  168 1    
    90   44   45 am   BACKBONE|DICT|INTERRES
    91   44  169 1    
    92   45   46 2    
    93   45   47 1    
    94   47   48 1    
    95   47   49 1    
    96   47  170 1    
    97   48  171 1    
    98   48  172 1    
    99   48  173 1    
   100   49   50 am   BACKBONE|DICT|INTERRES
   101   49  174 1    
   102   50   51 2    
   103   50   52 1    
   104   52   53 1    
   105   52   54 1    
   106   52  175 1    
   107   53  176 1    
   108   53  177 1    
   109   53  178 1    
   110   54   55 am   BACKBONE|DICT|INTERRES
   111   54  179 1    
   112   55   56 2    
   113   55   57 1    
   114   57   58 1    
   115   57   59 1    
   116   57  180 1    
   117   58  181 1    
   118   58  182 1    
   119   58  183 1    
   120   59   60 am   BACKBONE|DICT|INTERRES
   121   59  184 1    
   122   60   61 2    
   123   60   62 1    
   124   62   63 1    
   125   62   64 1    
   126   62  185 1    
   127   63  186 1    
   128   63  187 1    
   129   63  188 1    
   130   64   65 am   BACKBONE|DICT|INTERRES
   131   64  189 1    
   132   65   66 2    
   133   67   68 2    
   134   67   69 am   BACKBONE|DICT|INTERRES
   135   69   70 1    
   136   69  190 1    
   137   70   71 1    
   138   70   72 1    
   139   70  191 1    
   140   71  192 1    
   141   71  193 1    
   142   71  194 1    
   143   72   73 2    
   144   72   74 am   BACKBONE|DICT|INTERRES
   145   74   75 1    
   146   74  195 1    
   147   75   76 1    
   148   75   77 1    
   149   75  196 1    
   150   76  197 1    
   151   76  198 1    
   152   76  199 1    
   153   77   78 2    
   154   77   79 am   BACKBONE|DICT|INTERRES
   155   79   80 1    
   156   79  200 1    
   157   80   81 1    
   158   80   82 1    
   159   80  201 1    
   160   81  202 1    
   161   81  203 1    
   162   81  204 1    
   163   82   83 2    
   164   82   84 am   BACKBONE|DICT|INTERRES
   165   84   85 1    
   166   84  205 1    
   167   85   86 1    
   168   85   87 1    
   169   85  206 1    
   170   86  207 1    
   171   86  208 1    
   172   86  209 1    
   173   87   88 2    
   174   87   89 am   BACKBONE|DICT|INTERRES
   175   89   90 1    
   176   89  210 1    
   177   90   91 1    
   178   90   92 1    
   179   90  211 1    
   180   91  212 1    
   181   91  213 1    
   182   91  214 1    
   183   92   93 2    
   184   92   94 am   BACKBONE|DICT|INTERRES
   185   94   95 1    
   186   94  215 1    
   187   95   96 1    
   188   95   97 1    
   189   95  216 1    
   190   96  217 1    
   191   96  218 1    
   192   96  219 1    
   193   97   98 2    
   194   97   99 am   BACKBONE|DICT|INTERRES
   195   99  100 1    
   196   99  220 1    
   197  100  101 1    
   198  100  102 1    
   199  100  221 1    
   200  101  222 1    
   201  101  223 1    
   202  101  224 1    
   203  102  103 2    
   204  102  104 am   BACKBONE|DICT|INTERRES
   205  104  105 1    
   206  104  225 1    
   207  105  106 1    
   208  105  107 1    
   209  105  226 1    
   210  106  227 1    
   211  106  228 1    
   212  106  229 1    
   213  107  108 2    
   214  107  109 am   BACKBONE|DICT|INTERRES
   215  109  110 1    
   216  109  230 1    
   217  110  111 1    
   218  110  112 1    
   219  110  231 1    
   220  111  232 1    
   221  111  233 1    
   222  111  234 1    
   223  112  113 2    
   224  112  114 am   BACKBONE|DICT|INTERRES
   225  114  115 1    
   226  114  235 1    
   227  115  116 1    
   228  115  117 1    
   229  115  236 1    
   230  116  237 1    
   231  116  238 1    
   232  116  239 1    
   233  117  118 2    
   234  117  119 am   BACKBONE|DICT|INTERRES
   235  119  120 1    
   236  119  240 1    
   237  120  121 1    
   238  120  124 1    
   239  120  241 1    
   240  121  122 am   BACKBONE|DICT|INTERRES
   241  121  123 2    
   242  122  242 1    
   243  122  243 1    
   244  124  125 1    
   245  124  244 1    
   246  124  245 1    
   247  125  126 1    
   248  126  246 1    
   249  126  247 1    
@<TRIPOS>SUBSTRUCTURE
     1 UNK         1 GROUP             0       ****    0 ROOT    
