@<TRIPOS>MOLECULE
3R540
247   249    1
SMALL
USER_CHARGES


@<TRIPOS>ATOM
      1 CA          2.2274  -11.1178  -50.1969 C.3       0 UNK        -0.1800 
      2 C           1.9829  -11.4221  -48.7272 C.2       0 UNK         0.5000 
      3 O           2.9398  -11.5140  -47.9556 O.2       0 UNK        -0.5000 
      4 N           0.7100  -11.5684  -48.3351 N.am      1 UNK        -0.5000 
      5 CA          0.2658  -11.9129  -46.9765 C.3       1 UNK         0.1400 
      6 C6         -1.2643  -12.1326  -46.8940 C.3       23 UNK        -0.0398 
      7 S7         -1.8330  -13.4856  -47.9760 S.3       23 UNK        -0.2404 
      8 C8         -2.1158  -14.7965  -46.7483 C.3       23 UNK        -0.0205 
      9 C9         -2.4044  -16.1224  -47.4283 C.ar      23 UNK        -0.0193 
     10 C10        -3.7220  -16.5439  -47.6208 C.ar      23 UNK        -0.1150 
     11 C11        -3.9901  -17.7590  -48.2561 C.ar      23 UNK        -0.0193 
     12 C12        -2.9271  -18.5549  -48.6959 C.ar      23 UNK        -0.1150 
     13 C13        -1.6052  -18.1384  -48.5168 C.ar      23 UNK        -0.0193 
     14 C14        -1.3514  -16.9247  -47.8752 C.ar      23 UNK        -0.1150 
     15 C15        -0.4518  -18.9739  -49.0508 C.3       23 UNK        -0.0205 
     16 S16         0.1364  -20.1952  -47.8388 S.3       23 UNK        -0.2404 
     17 C17        -1.2620  -21.3619  -47.8315 C.3       23 UNK        -0.0398 
     18 CA         -0.8891  -22.7617  -47.2956 C.3       11 UNK         0.1400 
     19 N          -0.3214  -22.7268  -45.9436 N.am      11 UNK        -0.5000 
     20 C           0.1994  -23.7866  -45.3082 C.2       10 UNK         0.5000 
     21 O           0.3136  -24.9004  -45.8171 O.2       10 UNK        -0.5000 
     22 CA          0.5922  -23.5879  -43.8357 C.3       10 UNK         0.1400 
     23 CB          2.0116  -23.0142  -43.7117 C.3       10 UNK        -0.1800 
     24 N          -0.3677  -22.7272  -43.1430 N.am      10 UNK        -0.5000 
     25 C          -1.6082  -23.1150  -42.8100 C.2       9 UNK         0.5000 
     26 O          -2.0374  -24.2524  -43.0031 O.2       9 UNK        -0.5000 
     27 CA         -2.5407  -22.0497  -42.2016 C.3       9 UNK         0.1400 
     28 CB         -2.3617  -21.9844  -40.6779 C.3       9 UNK        -0.1800 
     29 N          -2.3330  -20.7172  -42.7696 N.am      9 UNK        -0.5000 
     30 C          -2.5784  -20.3828  -44.0448 C.2       8 UNK         0.5000 
     31 O          -3.0728  -21.1556  -44.8647 O.2       8 UNK        -0.5000 
     32 CA         -2.1499  -18.9685  -44.4881 C.3       8 UNK         0.1400 
     33 CB         -3.3158  -17.9822  -44.3321 C.3       8 UNK        -0.1800 
     34 N          -0.9849  -18.4544  -43.7593 N.am      8 UNK        -0.5000 
     35 C           0.2247  -19.0277  -43.7292 C.2       7 UNK         0.5000 
     36 O           0.4841  -20.0736  -44.3257 O.2       7 UNK        -0.5000 
     37 CA          1.2983  -18.3449  -42.8528 C.3       7 UNK         0.1400 
     38 CB          2.6295  -19.1180  -42.8457 C.3       7 UNK        -0.1800 
     39 N           1.5681  -16.9597  -43.2400 N.am      7 UNK        -0.5000 
     40 C           0.7774  -15.9016  -43.0165 C.2       6 UNK         0.5000 
     41 O          -0.3214  -15.9817  -42.4646 O.2       6 UNK        -0.5000 
     42 CA          1.2974  -14.5209  -43.4673 C.3       6 UNK         0.1400 
     43 CB          1.7430  -13.6947  -42.2510 C.3       6 UNK        -0.1800 
     44 N           2.4060  -14.5751  -44.4243 N.am      6 UNK        -0.5000 
     45 C           2.3085  -14.9734  -45.6974 C.2       5 UNK         0.5000 
     46 O           1.2678  -15.4122  -46.1812 O.2       5 UNK        -0.5000 
     47 CA          3.5720  -14.8448  -46.5733 C.3       5 UNK         0.1400 
     48 CB          3.2723  -15.0553  -48.0692 C.3       5 UNK        -0.1800 
     49 N           4.2584  -13.5590  -46.4062 N.am      5 UNK        -0.5000 
     50 C           5.1075  -13.2686  -45.4112 C.2       4 UNK         0.5000 
     51 O           5.2919  -14.0158  -44.4494 O.2       4 UNK        -0.5000 
     52 CA          5.8980  -11.9545  -45.4922 C.3       4 UNK         0.1400 
     53 CB          7.2413  -12.2080  -46.2073 C.3       4 UNK        -0.1800 
     54 N           5.1628  -10.8679  -46.1456 N.am      4 UNK        -0.5000 
     55 C           5.5289   -9.5797  -46.0807 C.2       3 UNK         0.5000 
     56 O           6.4909   -9.1707  -45.4286 O.2       3 UNK        -0.5000 
     57 CA          4.6805   -8.5716  -46.8701 C.3       3 UNK         0.1400 
     58 CB          4.9514   -8.6834  -48.3795 C.3       3 UNK        -0.1800 
     59 N           3.2535   -8.7393  -46.6089 N.am      3 UNK        -0.5000 
     60 C           2.6174   -8.2479  -45.5361 C.2       2 UNK         0.5000 
     61 O           3.1775   -7.6099  -44.6439 O.2       2 UNK        -0.5000 
     62 CA          1.0963   -8.4790  -45.4512 C.3       2 UNK         0.1400 
     63 CB          0.3383   -7.2101  -45.8723 C.3       2 UNK        -0.1800 
     64 N           0.6464   -9.5932  -46.2858 N.am      2 UNK        -0.5000 
     65 C           0.7104  -10.8805  -45.9218 C.2       1 UNK         0.5000 
     66 O           1.1159  -11.2639  -44.8251 O.2       1 UNK        -0.5000 
     67 C          -2.1157  -23.6929  -47.3775 C.2       11 UNK         0.5000 
     68 O          -2.2666  -24.4080  -48.3685 O.2       11 UNK        -0.5000 
     69 N          -2.9617  -23.6770  -46.3383 N.am      12 UNK        -0.5000 
     70 CA         -4.1072  -24.5718  -46.1862 C.3       12 UNK         0.1400 
     71 CB         -5.0088  -24.0743  -45.0473 C.3       12 UNK        -0.1800 
     72 C          -3.6821  -26.0334  -45.9691 C.2       12 UNK         0.5000 
     73 O          -4.2269  -26.9192  -46.6273 O.2       12 UNK        -0.5000 
     74 N          -2.6899  -26.2584  -45.0951 N.am      13 UNK        -0.5000 
     75 CA         -2.1117  -27.5765  -44.8132 C.3       13 UNK         0.1400 
     76 CB         -1.1298  -27.4665  -43.6374 C.3       13 UNK        -0.1800 
     77 C          -1.4257  -28.2135  -46.0379 C.2       13 UNK         0.5000 
     78 O          -1.5515  -29.4202  -46.2481 O.2       13 UNK        -0.5000 
     79 N          -0.7457  -27.3852  -46.8416 N.am      14 UNK        -0.5000 
     80 CA         -0.1188  -27.7659  -48.1091 C.3       14 UNK         0.1400 
     81 CB          0.9105  -26.6880  -48.4869 C.3       14 UNK        -0.1800 
     82 C          -1.1232  -27.9623  -49.2640 C.2       14 UNK         0.5000 
     83 O          -0.7318  -28.4761  -50.3123 O.2       14 UNK        -0.5000 
     84 N          -2.3756  -27.5194  -49.0708 N.am      15 UNK        -0.5000 
     85 CA         -3.4724  -27.4609  -50.0453 C.3       15 UNK         0.1400 
     86 CB         -3.8712  -28.8681  -50.5339 C.3       15 UNK        -0.1800 
     87 C          -3.2143  -26.4750  -51.2060 C.2       15 UNK         0.5000 
     88 O          -3.8795  -26.5512  -52.2395 O.2       15 UNK        -0.5000 
     89 N          -2.2882  -25.5295  -51.0012 N.am      16 UNK        -0.5000 
     90 CA         -1.9830  -24.4374  -51.9217 C.3       16 UNK         0.1400 
     91 CB         -0.6547  -23.7831  -51.5116 C.3       16 UNK        -0.1800 
     92 C          -3.1183  -23.4029  -51.9466 C.2       16 UNK         0.5000 
     93 O          -3.4895  -22.9364  -53.0229 O.2       16 UNK        -0.5000 
     94 N          -3.6882  -23.1210  -50.7644 N.am      17 UNK        -0.5000 
     95 CA         -4.8303  -22.2212  -50.5726 C.3       17 UNK         0.1400 
     96 CB         -5.0606  -22.0154  -49.0684 C.3       17 UNK        -0.1800 
     97 C          -6.1279  -22.7241  -51.2377 C.2       17 UNK         0.5000 
     98 O          -6.9957  -21.9192  -51.5749 O.2       17 UNK        -0.5000 
     99 N          -6.2429  -24.0489  -51.4073 N.am      18 UNK        -0.5000 
    100 CA        -7.3536  -24.6961  -52.1036 C.3       18 UNK         0.1400 
    101 CB        -7.4279  -26.1700  -51.6751 C.3       18 UNK        -0.1800 
    102 C         -7.2314  -24.5775  -53.6347 C.2       18 UNK         0.5000 
    103 O         -8.2540  -24.5749  -54.3210 O.2       18 UNK        -0.5000 
    104 N         -5.9941  -24.4858  -54.1418 N.am      19 UNK        -0.5000 
    105 CA        -5.6919  -24.3277  -55.5613 C.3       19 UNK         0.1400 
    106 CB        -4.2984  -24.9073  -55.8573 C.3       19 UNK        -0.1800 
    107 C         -5.7898  -22.8550  -55.9921 C.2       19 UNK         0.5000 
    108 O         -6.5297  -22.5453  -56.9268 O.2       19 UNK        -0.5000 
    109 N         -5.0509  -21.9802  -55.2994 N.am      20 UNK        -0.5000 
    110 CA        -4.9590  -20.5429  -55.5437 C.3       20 UNK         0.1400 
    111 CB        -4.3002  -20.2516  -56.9146 C.3       20 UNK        -0.1800 
    112 C         -4.2100  -19.9281  -54.3501 C.2       20 UNK         0.5000 
    113 O         -4.7318  -19.9701  -53.2385 O.2       20 UNK        -0.5000 
    114 N         -3.0031  -19.3967  -54.5913 N.am      21 UNK        -0.5000 
    115 CA        -1.9752  -18.9330  -53.6473 C.3       21 UNK         0.1400 
    116 CB        -1.4857  -20.1007  -52.7712 C.3       21 UNK        -0.1800 
    117 C         -2.3251  -17.7072  -52.7760 C.2       21 UNK         0.5000 
    118 O         -1.4309  -16.9045  -52.5060 O.2       21 UNK        -0.5000 
    119 N         -3.5823  -17.5842  -52.3401 N.am      22 UNK        -0.5000 
    120 CA        -4.0845  -16.5170  -51.4622 C.3       22 UNK         0.1400 
    121 C         -3.9965  -15.1026  -52.0986 C.2       22 UNK         0.5000 
    122 N         -3.5937  -14.0943  -51.3364 N.am      22 UNK        -0.7600 
    123 O         -4.3360  -14.9035  -53.2632 O.2       22 UNK        -0.5000 
    124 C124       -5.5325  -16.7936  -50.9723 C.3       23 UNK        -0.0398 
    125 S125       -5.7830  -18.4597  -50.2625 S.3       23 UNK        -0.2404 
    126 C126       -5.4283  -18.1926  -48.4953 C.3       23 UNK        -0.0205 
    127 H127        2.6819  -10.1333  -50.3057 H         1 UNK         0.0600 
    128 H128        1.3023  -11.1331  -50.7734 H         1 UNK         0.0600 
    129 H129        2.9058  -11.8571  -50.6227 H         1 UNK         0.0600 
    130 H130       -0.0266  -11.4988  -49.0229 H         1 UNK         0.3000 
    131 H131        0.7510  -12.8526  -46.7177 H         1 UNK         0.0600 
    132 H132       -1.5685  -12.3477  -45.8677 H         1 UNK         0.0800 
    133 H133       -1.7973  -11.2243  -47.1806 H         1 UNK         0.0800 
    134 H134       -1.2435  -14.8974  -46.1026 H         1 UNK         0.0800 
    135 H135       -2.9461  -14.5132  -46.0996 H         1 UNK         0.0800 
    136 H136       -4.5375  -15.9192  -47.2846 H         1 UNK         0.1150 
    137 H137       -3.1340  -19.4826  -49.2092 H         1 UNK         0.1150 
    138 H138       -0.3318  -16.5949  -47.7401 H         1 UNK         0.1150 
    139 H139       -0.7511  -19.4825  -49.9661 H         1 UNK         0.0800 
    140 H140        0.3796  -18.3227  -49.3251 H         1 UNK         0.0800 
    141 H141       -1.6375  -21.4483  -48.8529 H         1 UNK         0.0800 
    142 H142       -2.0674  -20.9210  -47.2440 H         1 UNK         0.0800 
    143 H143       -0.1247  -23.1802  -47.9538 H         1 UNK         0.0600 
    144 H144       -0.3317  -21.8323  -45.4684 H         1 UNK         0.3000 
    145 H145        0.5861  -24.5659  -43.3502 H         1 UNK         0.0600 
    146 H146        2.7434  -23.7059  -44.1306 H         1 UNK         0.0600 
    147 H147        2.2818  -22.8473  -42.6690 H         1 UNK         0.0600 
    148 H148        2.1205  -22.0696  -44.2440 H         1 UNK         0.0600 
    149 H149       -0.1080  -21.7556  -43.0389 H         1 UNK         0.3000 
    150 H150       -3.5692  -22.3496  -42.4129 H         1 UNK         0.0600 
    151 H151       -1.3558  -21.6646  -40.4028 H         1 UNK         0.0600 
    152 H152       -2.5316  -22.9614  -40.2233 H         1 UNK         0.0600 
    153 H153       -3.0708  -21.2900  -40.2268 H         1 UNK         0.0600 
    154 H154       -1.9321  -20.0186  -42.1616 H         1 UNK         0.3000 
    155 H155       -1.8811  -19.0188  -45.5451 H         1 UNK         0.0600 
    156 H156       -3.6420  -17.9045  -43.2943 H         1 UNK         0.0600 
    157 H157       -4.1741  -18.2976  -44.9269 H         1 UNK         0.0600 
    158 H158       -3.0362  -16.9845  -44.6695 H         1 UNK         0.0600 
    159 H159       -1.0994  -17.5788  -43.2574 H         1 UNK         0.3000 
    160 H160        0.9159  -18.3430  -41.8301 H         1 UNK         0.0600 
    161 H161        3.0694  -19.1711  -43.8425 H         1 UNK         0.0600 
    162 H162        2.4870  -20.1404  -42.4938 H         1 UNK         0.0600 
    163 H163        3.3560  -18.6488  -42.1821 H         1 UNK         0.0600 
    164 H164        2.4367  -16.7944  -43.7261 H         1 UNK         0.3000 
    165 H165        0.4643  -14.0019  -43.9461 H         1 UNK         0.0600 
    166 H166        2.0386  -12.6876  -42.5462 H         1 UNK         0.0600 
    167 H167        0.9336  -13.5942  -41.5267 H         1 UNK         0.0600 
    168 H168        2.5882  -14.1566  -41.7392 H         1 UNK         0.0600 
    169 H169        3.3116  -14.2509  -44.1029 H         1 UNK         0.3000 
    170 H170        4.2495  -15.6435  -46.2641 H         1 UNK         0.0600 
    171 H171        4.1765  -14.9650  -48.6713 H         1 UNK         0.0600 
    172 H172        2.5470  -14.3313  -48.4403 H         1 UNK         0.0600 
    173 H173        2.8619  -16.0497  -48.2501 H         1 UNK         0.0600 
    174 H174        4.0728  -12.8702  -47.1269 H         1 UNK         0.3000 
    175 H175        6.1046  -11.6529  -44.4630 H         1 UNK         0.0600 
    176 H176        7.7710  -13.0512  -45.7618 H         1 UNK         0.0600 
    177 H177        7.0935  -12.4345  -47.2639 H         1 UNK         0.0600 
    178 H178        7.9053  -11.3466  -46.1401 H         1 UNK         0.0600 
    179 H179        4.3368  -11.1158  -46.6826 H         1 UNK         0.3000 
    180 H180        4.9767   -7.5674  -46.5585 H         1 UNK         0.0600 
    181 H181        4.7132   -9.6736  -48.7672 H         1 UNK         0.0600 
    182 H182        6.0031   -8.4945  -48.5981 H         1 UNK         0.0600 
    183 H183        4.3673   -7.9538  -48.9406 H         1 UNK         0.0600 
    184 H184        2.7363   -9.3105  -47.2609 H         1 UNK         0.3000 
    185 H185        0.8512   -8.6897  -44.4079 H         1 UNK         0.0600 
    186 H186        0.6247   -6.3597  -45.2521 H         1 UNK         0.0600 
    187 H187        0.5433   -6.9434  -46.9099 H         1 UNK         0.0600 
    188 H188       -0.7387   -7.3403  -45.7648 H         1 UNK         0.0600 
    189 H189        0.3029   -9.3643  -47.2075 H         1 UNK         0.3000 
    190 H190       -2.8192  -22.9894  -45.6053 H         1 UNK         0.3000 
    191 H191       -4.6870  -24.5412  -47.1092 H         1 UNK         0.0600 
    192 H192       -5.3524  -23.0567  -45.2347 H         1 UNK         0.0600 
    193 H193       -5.8934  -24.7043  -44.9472 H         1 UNK         0.0600 
    194 H194       -4.4920  -24.0803  -44.0880 H         1 UNK         0.0600 
    195 H195       -2.3251  -25.4788  -44.5568 H         1 UNK         0.3000 
    196 H196       -2.9276  -28.2368  -44.5121 H         1 UNK         0.0600 
    197 H197       -0.7179  -28.4430  -43.3800 H         1 UNK         0.0600 
    198 H198       -1.6223  -27.0761  -42.7466 H         1 UNK         0.0600 
    199 H199       -0.2927  -26.8092  -43.8727 H         1 UNK         0.0600 
    200 H200       -0.6187  -26.4200  -46.5483 H         1 UNK         0.3000 
    201 H201        0.4090  -28.7111  -47.9672 H         1 UNK         0.0600 
    202 H202        1.4306  -26.9451  -49.4105 H         1 UNK         0.0600 
    203 H203        1.6670  -26.5760  -47.7099 H         1 UNK         0.0600 
    204 H204        0.4373  -25.7164  -48.6352 H         1 UNK         0.0600 
    205 H205       -2.5929  -27.1227  -48.1652 H         1 UNK         0.3000 
    206 H206       -4.3256  -27.0544  -49.5005 H         1 UNK         0.0600 
    207 H207       -4.0468  -29.5411  -49.6947 H         1 UNK         0.0600 
    208 H208       -4.7919  -28.8319  -51.1174 H         1 UNK         0.0600 
    209 H209       -3.1033  -29.3123  -51.1674 H         1 UNK         0.0600 
    210 H210       -1.8692  -25.4758  -50.0803 H         1 UNK         0.3000 
    211 H211       -1.8720  -24.8486  -52.9273 H         1 UNK         0.0600 
    212 H212       -0.7101  -23.3374  -50.5181 H         1 UNK         0.0600 
    213 H213       -0.3769  -22.9937  -52.2104 H         1 UNK         0.0600 
    214 H214        0.1567  -24.5112  -51.5059 H         1 UNK         0.0600 
    215 H215       -3.3218  -23.5813  -49.9389 H         1 UNK         0.3000 
    216 H216       -4.5763  -21.2570  -51.0139 H         1 UNK         0.0600 
    217 H217       -5.8843  -21.3226  -48.8949 H         1 UNK         0.0600 
    218 H218       -4.1809  -21.6024  -48.5775 H         1 UNK         0.0600 
    219 H219       -5.3195  -22.9502  -48.5743 H         1 UNK         0.0600 
    220 H220       -5.4843  -24.6419  -51.1077 H         1 UNK         0.3000 
    221 H221       -8.2855  -24.2111  -51.8048 H         1 UNK         0.0600 
    222 H222       -6.5364  -26.7238  -51.9696 H         1 UNK         0.0600 
    223 H223       -7.5405  -26.2631  -50.5948 H         1 UNK         0.0600 
    224 H224       -8.2847  -26.6646  -52.1344 H         1 UNK         0.0600 
    225 H225       -5.2078  -24.4638  -53.5075 H         1 UNK         0.3000 
    226 H226       -6.4163  -24.8987  -56.1462 H         1 UNK         0.0600 
    227 H227       -4.0566  -24.8166  -56.9169 H         1 UNK         0.0600 
    228 H228       -3.5139  -24.3974  -55.2976 H         1 UNK         0.0600 
    229 H229       -4.2523  -25.9662  -55.6021 H         1 UNK         0.0600 
    230 H230       -4.5089  -22.3126  -54.5028 H         1 UNK         0.3000 
    231 H231       -5.9669  -20.1238  -55.5408 H         1 UNK         0.0600 
    232 H232       -3.3258  -20.7326  -57.0084 H         1 UNK         0.0600 
    233 H233       -4.1672  -19.1802  -57.0705 H         1 UNK         0.0600 
    234 H234       -4.9194  -20.6068  -57.7378 H         1 UNK         0.0600 
    235 H235       -2.7094  -19.3828  -55.5577 H         1 UNK         0.3000 
    236 H236       -1.1358  -18.6294  -54.2748 H         1 UNK         0.0600 
    237 H237       -1.2523  -20.9763  -53.3767 H         1 UNK         0.0600 
    238 H238       -0.5761  -19.8273  -52.2371 H         1 UNK         0.0600 
    239 H239       -2.2325  -20.3930  -52.0320 H         1 UNK         0.0600 
    240 H240       -4.2356  -18.3279  -52.5727 H         1 UNK         0.3000 
    241 H241       -3.4284  -16.5114  -50.5922 H         1 UNK         0.0600 
    242 H242       -3.5490  -13.1692  -51.7343 H         1 UNK         0.3800 
    243 H243       -3.3038  -14.2351  -50.3802 H         1 UNK         0.3800 
    244 H244       -6.2326  -16.6907  -51.8032 H         1 UNK         0.0800 
    245 H245       -5.8317  -16.0491  -50.2326 H         1 UNK         0.0800 
    246 H246       -5.6103  -19.1183  -47.9491 H         1 UNK         0.0800 
    247 H247       -6.1317  -17.4590  -48.0986 H         1 UNK         0.0800 
@<TRIPOS>BOND
     1    1    2 1    
     2    1  127 1    
     3    1  128 1    
     4    1  129 1    
     5    2    3 2    
     6    2    4 am   BACKBONE|DICT|INTERRES
     7    4    5 1    
     8    4  130 1    
     9    5    6 1    
    10    5   65 1    
    11    5  131 1    
    12    6    7 1    
    13    6  132 1    
    14    6  133 1    
    15    7    8 1    
    16    8    9 1    
    17    8  134 1    
    18    8  135 1    
    19    9   10 ar   
    20    9   14 ar   
    21   10   11 ar   
    22   10  136 1    
    23   11   12 ar   
    24   11  126 1    
    25   12   13 ar   
    26   12  137 1    
    27   13   14 ar   
    28   13   15 1    
    29   14  138 1    
    30   15   16 1    
    31   15  139 1    
    32   15  140 1    
    33   16   17 1    
    34   17   18 1    
    35   17  141 1    
    36   17  142 1    
    37   18   19 1    
    38   18   67 1    
    39   18  143 1    
    40   19   20 am   BACKBONE|DICT|INTERRES
    41   19  144 1    
    42   20   21 2    
    43   20   22 1    
    44   22   23 1    
    45   22   24 1    
    46   22  145 1    
    47   23  146 1    
    48   23  147 1    
    49   23  148 1    
    50   24   25 am   BACKBONE|DICT|INTERRES
    51   24  149 1    
    52   25   26 2    
    53   25   27 1    
    54   27   28 1    
    55   27   29 1    
    56   27  150 1    
    57   28  151 1    
    58   28  152 1    
    59   28  153 1    
    60   29   30 am   BACKBONE|DICT|INTERRES
    61   29  154 1    
    62   30   31 2    
    63   30   32 1    
    64   32   33 1    
    65   32   34 1    
    66   32  155 1    
    67   33  156 1    
    68   33  157 1    
    69   33  158 1    
    70   34   35 am   BACKBONE|DICT|INTERRES
    71   34  159 1    
    72   35   36 2    
    73   35   37 1    
    74   37   38 1    
    75   37   39 1    
    76   37  160 1    
    77   38  161 1    
    78   38  162 1    
    79   38  163 1    
    80   39   40 am   BACKBONE|DICT|INTERRES
    81   39  164 1    
    82   40   41 2    
    83   40   42 1    
    84   42   43 1    
    85   42   44 1    
    86   42  165 1    
    87   43  166 1    
    88   43  167 1    
    89   43  168 1    
    90   44   45 am   BACKBONE|DICT|INTERRES
    91   44  169 1    
    92   45   46 2    
    93   45   47 1    
    94   47   48 1    
    95   47   49 1    
    96   47  170 1    
    97   48  171 1    
    98   48  172 1    
    99   48  173 1    
   100   49   50 am   BACKBONE|DICT|INTERRES
   101   49  174 1    
   102   50   51 2    
   103   50   52 1    
   104   52   53 1    
   105   52   54 1    
   106   52  175 1    
   107   53  176 1    
   108   53  177 1    
   109   53  178 1    
   110   54   55 am   BACKBONE|DICT|INTERRES
   111   54  179 1    
   112   55   56 2    
   113   55   57 1    
   114   57   58 1    
   115   57   59 1    
   116   57  180 1    
   117   58  181 1    
   118   58  182 1    
   119   58  183 1    
   120   59   60 am   BACKBONE|DICT|INTERRES
   121   59  184 1    
   122   60   61 2    
   123   60   62 1    
   124   62   63 1    
   125   62   64 1    
   126   62  185 1    
   127   63  186 1    
   128   63  187 1    
   129   63  188 1    
   130   64   65 am   BACKBONE|DICT|INTERRES
   131   64  189 1    
   132   65   66 2    
   133   67   68 2    
   134   67   69 am   BACKBONE|DICT|INTERRES
   135   69   70 1    
   136   69  190 1    
   137   70   71 1    
   138   70   72 1    
   139   70  191 1    
   140   71  192 1    
   141   71  193 1    
   142   71  194 1    
   143   72   73 2    
   144   72   74 am   BACKBONE|DICT|INTERRES
   145   74   75 1    
   146   74  195 1    
   147   75   76 1    
   148   75   77 1    
   149   75  196 1    
   150   76  197 1    
   151   76  198 1    
   152   76  199 1    
   153   77   78 2    
   154   77   79 am   BACKBONE|DICT|INTERRES
   155   79   80 1    
   156   79  200 1    
   157   80   81 1    
   158   80   82 1    
   159   80  201 1    
   160   81  202 1    
   161   81  203 1    
   162   81  204 1    
   163   82   83 2    
   164   82   84 am   BACKBONE|DICT|INTERRES
   165   84   85 1    
   166   84  205 1    
   167   85   86 1    
   168   85   87 1    
   169   85  206 1    
   170   86  207 1    
   171   86  208 1    
   172   86  209 1    
   173   87   88 2    
   174   87   89 am   BACKBONE|DICT|INTERRES
   175   89   90 1    
   176   89  210 1    
   177   90   91 1    
   178   90   92 1    
   179   90  211 1    
   180   91  212 1    
   181   91  213 1    
   182   91  214 1    
   183   92   93 2    
   184   92   94 am   BACKBONE|DICT|INTERRES
   185   94   95 1    
   186   94  215 1    
   187   95   96 1    
   188   95   97 1    
   189   95  216 1    
   190   96  217 1    
   191   96  218 1    
   192   96  219 1    
   193   97   98 2    
   194   97   99 am   BACKBONE|DICT|INTERRES
   195   99  100 1    
   196   99  220 1    
   197  100  101 1    
   198  100  102 1    
   199  100  221 1    
   200  101  222 1    
   201  101  223 1    
   202  101  224 1    
   203  102  103 2    
   204  102  104 am   BACKBONE|DICT|INTERRES
   205  104  105 1    
   206  104  225 1    
   207  105  106 1    
   208  105  107 1    
   209  105  226 1    
   210  106  227 1    
   211  106  228 1    
   212  106  229 1    
   213  107  108 2    
   214  107  109 am   BACKBONE|DICT|INTERRES
   215  109  110 1    
   216  109  230 1    
   217  110  111 1    
   218  110  112 1    
   219  110  231 1    
   220  111  232 1    
   221  111  233 1    
   222  111  234 1    
   223  112  113 2    
   224  112  114 am   BACKBONE|DICT|INTERRES
   225  114  115 1    
   226  114  235 1    
   227  115  116 1    
   228  115  117 1    
   229  115  236 1    
   230  116  237 1    
   231  116  238 1    
   232  116  239 1    
   233  117  118 2    
   234  117  119 am   BACKBONE|DICT|INTERRES
   235  119  120 1    
   236  119  240 1    
   237  120  121 1    
   238  120  124 1    
   239  120  241 1    
   240  121  122 am   BACKBONE|DICT|INTERRES
   241  121  123 2    
   242  122  242 1    
   243  122  243 1    
   244  124  125 1    
   245  124  244 1    
   246  124  245 1    
   247  125  126 1    
   248  126  246 1    
   249  126  247 1    
@<TRIPOS>SUBSTRUCTURE
     1 UNK         1 GROUP             0       ****    0 ROOT    
