@<TRIPOS>MOLECULE
3R540
247   249    1
SMALL
USER_CHARGES


@<TRIPOS>ATOM
      1 CA          1.1093  -11.7953  -50.1887 C.3       0 UNK        -0.1800 
      2 C           0.8197  -13.0577  -49.3794 C.2       0 UNK         0.5000 
      3 O          -0.0393  -13.8430  -49.7727 O.2       0 UNK        -0.5000 
      4 N           1.5082  -13.3068  -48.2584 N.am      1 UNK        -0.5000 
      5 CA          2.4988  -12.4417  -47.6150 C.3       1 UNK         0.1400 
      6 C6          3.4801  -13.2388  -46.7177 C.3       23 UNK        -0.0398 
      7 S7          4.3972  -14.5319  -47.6268 S.3       23 UNK        -0.2404 
      8 C8          3.7054  -16.0633  -46.9118 C.3       23 UNK        -0.0205 
      9 C9          3.3675  -17.0986  -47.9770 C.ar      23 UNK        -0.0193 
     10 C10         2.4522  -16.7938  -48.9889 C.ar      23 UNK        -0.1150 
     11 C11         2.0892  -17.7517  -49.9364 C.ar      23 UNK        -0.0193 
     12 C12         2.6667  -19.0218  -49.8840 C.ar      23 UNK        -0.1150 
     13 C13         3.5661  -19.3528  -48.8654 C.ar      23 UNK        -0.0193 
     14 C14         3.9181  -18.3831  -47.9194 C.ar      23 UNK        -0.1150 
     15 C15         4.1373  -20.7638  -48.7664 C.3       23 UNK        -0.0205 
     16 S16         2.8534  -22.0642  -48.7805 S.3       23 UNK        -0.2404 
     17 C17         1.7311  -21.4755  -47.4673 C.3       23 UNK        -0.0398 
     18 CA          0.7063  -22.5312  -46.9897 C.3       11 UNK         0.1400 
     19 N           0.0436  -22.0983  -45.7569 N.am      11 UNK        -0.5000 
     20 C          -0.7818  -22.8470  -45.0136 C.2       10 UNK         0.5000 
     21 O          -1.0565  -24.0186  -45.2667 O.2       10 UNK        -0.5000 
     22 CA         -1.4458  -22.1612  -43.8060 C.3       10 UNK         0.1400 
     23 CB         -0.4697  -22.0678  -42.6241 C.3       10 UNK        -0.1800 
     24 N          -1.9661  -20.8312  -44.1259 N.am      10 UNK        -0.5000 
     25 C          -2.9455  -20.5953  -45.0112 C.2       9 UNK         0.5000 
     26 O          -3.5402  -21.4801  -45.6263 O.2       9 UNK        -0.5000 
     27 CA         -3.2879  -19.1219  -45.2964 C.3       9 UNK         0.1400 
     28 CB         -4.1642  -18.5354  -44.1799 C.3       9 UNK        -0.1800 
     29 N          -2.1009  -18.2873  -45.4808 N.am      9 UNK        -0.5000 
     30 C          -1.1758  -18.4788  -46.4325 C.2       8 UNK         0.5000 
     31 O          -1.2328  -19.3747  -47.2727 O.2       8 UNK        -0.5000 
     32 CA          0.0547  -17.5585  -46.3913 C.3       8 UNK         0.1400 
     33 CB         -0.2908  -16.1496  -46.8981 C.3       8 UNK        -0.1800 
     34 N           0.6325  -17.4754  -45.0496 N.am      8 UNK        -0.5000 
     35 C           1.1284  -18.5210  -44.3716 C.2       7 UNK         0.5000 
     36 O           1.2138  -19.6594  -44.8279 O.2       7 UNK        -0.5000 
     37 CA          1.5465  -18.2649  -42.9161 C.3       7 UNK         0.1400 
     38 CB          2.9733  -17.7004  -42.8515 C.3       7 UNK        -0.1800 
     39 N           0.6116  -17.3647  -42.2399 N.am      7 UNK        -0.5000 
     40 C          -0.6444  -17.7006  -41.9077 C.2       6 UNK         0.5000 
     41 O          -1.1237  -18.8192  -42.0933 O.2       6 UNK        -0.5000 
     42 CA         -1.5254  -16.5890  -41.3079 C.3       6 UNK         0.1400 
     43 CB         -1.2863  -16.4643  -39.7961 C.3       6 UNK        -0.1800 
     44 N          -1.2995  -15.2906  -41.9445 N.am      6 UNK        -0.5000 
     45 C          -1.6113  -15.0071  -43.2173 C.2       5 UNK         0.5000 
     46 O          -2.1823  -15.7966  -43.9688 O.2       5 UNK        -0.5000 
     47 CA         -1.1659  -13.6322  -43.7536 C.3       5 UNK         0.1400 
     48 CB         -2.2721  -12.5865  -43.5549 C.3       5 UNK        -0.1800 
     49 N           0.0764  -13.1441  -43.1470 N.am      5 UNK        -0.5000 
     50 C           1.2639  -13.7529  -43.2598 C.2       4 UNK         0.5000 
     51 O           1.4311  -14.8061  -43.8787 O.2       4 UNK        -0.5000 
     52 CA          2.4443  -13.0567  -42.5677 C.3       4 UNK         0.1400 
     53 CB          3.7775  -13.8163  -42.7201 C.3       4 UNK        -0.1800 
     54 N           2.5840  -11.6909  -43.0711 N.am      4 UNK        -0.5000 
     55 C           3.1110  -10.6771  -42.3699 C.2       3 UNK         0.5000 
     56 O           3.4496  -10.7805  -41.1898 O.2       3 UNK        -0.5000 
     57 CA          3.3326   -9.3301  -43.0886 C.3       3 UNK         0.1400 
     58 CB          4.8297   -8.9777  -43.1179 C.3       3 UNK        -0.1800 
     59 N           2.8367   -9.3226  -44.4650 N.am      3 UNK        -0.5000 
     60 C           1.6240   -8.9008  -44.8441 C.2       2 UNK         0.5000 
     61 O           0.7724   -8.4685  -44.0670 O.2       2 UNK        -0.5000 
     62 CA          1.3071   -8.9947  -46.3503 C.3       2 UNK         0.1400 
     63 CB          1.6612   -7.6780  -47.0582 C.3       2 UNK        -0.1800 
     64 N           1.9889  -10.1039  -47.0293 N.am      2 UNK        -0.5000 
     65 C           1.7465  -11.3960  -46.7744 C.2       1 UNK         0.5000 
     66 O           0.9676  -11.7795  -45.9015 O.2       1 UNK        -0.5000 
     67 C          -0.3172  -22.8966  -48.0872 C.2       11 UNK         0.5000 
     68 O          -0.2133  -23.9702  -48.6817 O.2       11 UNK        -0.5000 
     69 N          -1.3182  -22.0294  -48.2942 N.am      12 UNK        -0.5000 
     70 CA         -2.4250  -22.2369  -49.2268 C.3       12 UNK         0.1400 
     71 CB         -3.2859  -20.9657  -49.2776 C.3       12 UNK        -0.1800 
     72 C          -3.2750  -23.4721  -48.8735 C.2       12 UNK         0.5000 
     73 O          -3.5927  -24.2641  -49.7612 O.2       12 UNK        -0.5000 
     74 N          -3.5962  -23.6380  -47.5826 N.am      13 UNK        -0.5000 
     75 CA         -4.3245  -24.7914  -47.0519 C.3       13 UNK         0.1400 
     76 CB         -4.7151  -24.5290  -45.5901 C.3       13 UNK        -0.1800 
     77 C          -3.5406  -26.1110  -47.1774 C.2       13 UNK         0.5000 
     78 O          -4.1382  -27.1339  -47.5117 O.2       13 UNK        -0.5000 
     79 N          -2.2229  -26.0640  -46.9325 N.am      14 UNK        -0.5000 
     80 CA         -1.3067  -27.1957  -47.0871 C.3       14 UNK         0.1400 
     81 CB          0.0530  -26.8534  -46.4592 C.3       14 UNK        -0.1800 
     82 C          -1.1375  -27.6251  -48.5555 C.2       14 UNK         0.5000 
     83 O          -1.0904  -28.8243  -48.8332 O.2       14 UNK        -0.5000 
     84 N          -1.0752  -26.6448  -49.4683 N.am      15 UNK        -0.5000 
     85 CA         -1.0641  -26.8582  -50.9165 C.3       15 UNK         0.1400 
     86 CB         -0.7243  -25.5374  -51.6218 C.3       15 UNK        -0.1800 
     87 C          -2.3971  -27.4259  -51.4401 C.2       15 UNK         0.5000 
     88 O          -2.3877  -28.2333  -52.3701 O.2       15 UNK        -0.5000 
     89 N          -3.5103  -26.9935  -50.8293 N.am      16 UNK        -0.5000 
     90 CA         -4.9067  -27.4087  -51.0155 C.3       16 UNK         0.1400 
     91 CB         -5.0909  -28.9131  -50.7450 C.3       16 UNK        -0.1800 
     92 C          -5.5149  -27.0009  -52.3692 C.2       16 UNK         0.5000 
     93 O          -6.6166  -26.4540  -52.3985 O.2       16 UNK        -0.5000 
     94 N          -4.7788  -27.2208  -53.4639 N.am      17 UNK        -0.5000 
     95 CA         -5.1277  -26.7783  -54.8158 C.3       17 UNK         0.1400 
     96 CB         -4.2064  -27.4852  -55.8213 C.3       17 UNK        -0.1800 
     97 C          -5.0370  -25.2479  -54.9836 C.2       17 UNK         0.5000 
     98 O          -5.6890  -24.6930  -55.8681 O.2       17 UNK        -0.5000 
     99 N          -4.2384  -24.6018  -54.1245 N.am      18 UNK        -0.5000 
    100 CA        -4.0134  -23.1588  -54.0823 C.3       18 UNK         0.1400 
    101 CB        -2.4972  -22.9063  -54.0148 C.3       18 UNK        -0.1800 
    102 C         -4.7406  -22.4903  -52.8993 C.2       18 UNK         0.5000 
    103 O         -4.4041  -21.3529  -52.5687 O.2       18 UNK        -0.5000 
    104 N         -5.7021  -23.1873  -52.2708 N.am      19 UNK        -0.5000 
    105 CA        -6.4767  -22.7184  -51.1167 C.3       19 UNK         0.1400 
    106 CB        -7.5139  -23.7780  -50.7210 C.3       19 UNK        -0.1800 
    107 C         -7.1523  -21.3563  -51.3634 C.2       19 UNK         0.5000 
    108 O         -7.8009  -21.1764  -52.3962 O.2       19 UNK        -0.5000 
    109 N         -6.9398  -20.4179  -50.4303 N.am      20 UNK        -0.5000 
    110 CA        -7.3449  -19.0039  -50.4274 C.3       20 UNK         0.1400 
    111 CB        -8.8771  -18.8565  -50.4934 C.3       20 UNK        -0.1800 
    112 C         -6.6552  -18.1221  -51.4923 C.2       20 UNK         0.5000 
    113 O         -6.3535  -16.9640  -51.2033 O.2       20 UNK        -0.5000 
    114 N         -6.4167  -18.6659  -52.6911 N.am      21 UNK        -0.5000 
    115 CA        -5.7802  -17.9887  -53.8205 C.3       21 UNK         0.1400 
    116 CB        -6.0090  -18.8214  -55.0914 C.3       21 UNK        -0.1800 
    117 C         -4.2763  -17.7338  -53.6098 C.2       21 UNK         0.5000 
    118 O         -3.7768  -16.6850  -54.0185 O.2       21 UNK        -0.5000 
    119 N         -3.5869  -18.6992  -52.9884 N.am      22 UNK        -0.5000 
    120 CA        -2.1353  -18.7192  -52.7393 C.3       22 UNK         0.1400 
    121 C         -1.2561  -18.9171  -54.0149 C.2       22 UNK         0.5000 
    122 N         -1.8207  -19.2704  -55.1636 N.am      22 UNK        -0.7600 
    123 O         -0.0380  -18.7783  -53.9666 O.2       22 UNK        -0.5000 
    124 C124       -1.6612  -17.5370  -51.8396 C.3       23 UNK        -0.0398 
    125 S125       -0.5798  -18.0799  -50.4760 S.3       23 UNK        -0.2404 
    126 C126        1.0402  -17.4310  -50.9871 C.3       23 UNK        -0.0205 
    127 H127        0.4927  -11.7707  -51.0875 H         1 UNK         0.0600 
    128 H128        2.1523  -11.7655  -50.5042 H         1 UNK         0.0600 
    129 H129        0.8860  -10.8989  -49.6108 H         1 UNK         0.0600 
    130 H130        1.2638  -14.1279  -47.7271 H         1 UNK         0.3000 
    131 H131        3.0902  -11.9335  -48.3782 H         1 UNK         0.0600 
    132 H132        2.9536  -13.6869  -45.8748 H         1 UNK         0.0800 
    133 H133        4.2187  -12.5649  -46.2800 H         1 UNK         0.0800 
    134 H134        2.8009  -15.8565  -46.3412 H         1 UNK         0.0800 
    135 H135        4.4243  -16.4639  -46.1954 H         1 UNK         0.0800 
    136 H136        2.0005  -15.8151  -49.0272 H         1 UNK         0.1150 
    137 H137        2.3794  -19.7683  -50.6113 H         1 UNK         0.1150 
    138 H138        4.6073  -18.6343  -47.1254 H         1 UNK         0.1150 
    139 H139        4.8173  -20.9289  -49.6029 H         1 UNK         0.0800 
    140 H140        4.7322  -20.8752  -47.8586 H         1 UNK         0.0800 
    141 H141        1.2221  -20.5714  -47.8061 H         1 UNK         0.0800 
    142 H142        2.3573  -21.1727  -46.6274 H         1 UNK         0.0800 
    143 H143        1.2563  -23.4420  -46.7438 H         1 UNK         0.0600 
    144 H144        0.2442  -21.1481  -45.4543 H         1 UNK         0.3000 
    145 H145       -2.2901  -22.7811  -43.4975 H         1 UNK         0.0600 
    146 H146       -0.9592  -21.6575  -41.7408 H         1 UNK         0.0600 
    147 H147       -0.0859  -23.0528  -42.3559 H         1 UNK         0.0600 
    148 H148        0.3860  -21.4337  -42.8564 H         1 UNK         0.0600 
    149 H149       -1.5523  -20.0482  -43.6299 H         1 UNK         0.3000 
    150 H150       -3.8579  -19.0901  -46.2270 H         1 UNK         0.0600 
    151 H151       -5.0674  -19.1303  -44.0388 H         1 UNK         0.0600 
    152 H152       -4.4775  -17.5189  -44.4186 H         1 UNK         0.0600 
    153 H153       -3.6369  -18.5062  -43.2262 H         1 UNK         0.0600 
    154 H154       -1.9951  -17.5003  -44.8464 H         1 UNK         0.3000 
    155 H155        0.8111  -17.9897  -47.0481 H         1 UNK         0.0600 
    156 H156       -1.1533  -15.7279  -46.3838 H         1 UNK         0.0600 
    157 H157       -0.5275  -16.1705  -47.9625 H         1 UNK         0.0600 
    158 H158        0.5411  -15.4629  -46.7588 H         1 UNK         0.0600 
    159 H159        0.6396  -16.5650  -44.6032 H         1 UNK         0.3000 
    160 H160        1.5381  -19.2206  -42.3878 H         1 UNK         0.0600 
    161 H161        3.6907  -18.4257  -43.2372 H         1 UNK         0.0600 
    162 H162        3.0801  -16.7957  -43.4492 H         1 UNK         0.0600 
    163 H163        3.2641  -17.4681  -41.8270 H         1 UNK         0.0600 
    164 H164        0.9120  -16.4095  -42.1147 H         1 UNK         0.3000 
    165 H165       -2.5690  -16.8689  -41.4668 H         1 UNK         0.0600 
    166 H166       -1.9585  -15.7311  -39.3499 H         1 UNK         0.0600 
    167 H167       -1.4654  -17.4159  -39.2937 H         1 UNK         0.0600 
    168 H168       -0.2625  -16.1622  -39.5720 H         1 UNK         0.0600 
    169 H169       -0.8384  -14.5824  -41.3930 H         1 UNK         0.3000 
    170 H170       -0.9889  -13.7397  -44.8259 H         1 UNK         0.0600 
    171 H171       -3.2045  -12.9119  -44.0183 H         1 UNK         0.0600 
    172 H172       -2.4740  -12.4084  -42.4980 H         1 UNK         0.0600 
    173 H173       -1.9987  -11.6347  -44.0113 H         1 UNK         0.0600 
    174 H174        0.0239  -12.2688  -42.6467 H         1 UNK         0.3000 
    175 H175        2.1946  -13.0253  -41.5051 H         1 UNK         0.0600 
    176 H176        4.0697  -13.9213  -43.7648 H         1 UNK         0.0600 
    177 H177        4.5870  -13.3064  -42.1979 H         1 UNK         0.0600 
    178 H178        3.7054  -14.8163  -42.2932 H         1 UNK         0.0600 
    179 H179        2.2448  -11.5249  -44.0105 H         1 UNK         0.3000 
    180 H180        2.8178   -8.5636  -42.5057 H         1 UNK         0.0600 
    181 H181        5.4085   -9.7231  -43.6648 H         1 UNK         0.0600 
    182 H182        5.2405   -8.9187  -42.1092 H         1 UNK         0.0600 
    183 H183        4.9973   -8.0094  -43.5901 H         1 UNK         0.0600 
    184 H184        3.4722   -9.6545  -45.1755 H         1 UNK         0.3000 
    185 H185        0.2307   -9.1533  -46.4471 H         1 UNK         0.0600 
    186 H186        2.7321   -7.4746  -47.0194 H         1 UNK         0.0600 
    187 H187        1.3603   -7.6996  -48.1058 H         1 UNK         0.0600 
    188 H188        1.1500   -6.8343  -46.5925 H         1 UNK         0.0600 
    189 H189        2.6455   -9.8505  -47.7539 H         1 UNK         0.3000 
    190 H190       -1.3178  -21.1462  -47.7867 H         1 UNK         0.3000 
    191 H191       -1.9986  -22.3984  -50.2190 H         1 UNK         0.0600 
    192 H192       -3.7352  -20.7416  -48.3100 H         1 UNK         0.0600 
    193 H193       -4.0903  -21.0622  -50.0024 H         1 UNK         0.0600 
    194 H194       -2.6927  -20.1017  -49.5761 H         1 UNK         0.0600 
    195 H195       -3.3356  -22.9194  -46.9125 H         1 UNK         0.3000 
    196 H196       -5.2433  -24.8984  -47.6326 H         1 UNK         0.0600 
    197 H197       -5.2690  -25.3720  -45.1751 H         1 UNK         0.0600 
    198 H198       -5.3517  -23.6482  -45.5050 H         1 UNK         0.0600 
    199 H199       -3.8383  -24.3695  -44.9618 H         1 UNK         0.0600 
    200 H200       -1.8169  -25.1959  -46.5938 H         1 UNK         0.3000 
    201 H201       -1.7264  -28.0430  -46.5411 H         1 UNK         0.0600 
    202 H202       -0.0483  -26.6380  -45.3954 H         1 UNK         0.0600 
    203 H203        0.5095  -25.9846  -46.9340 H         1 UNK         0.0600 
    204 H204        0.7501  -27.6864  -46.5571 H         1 UNK         0.0600 
    205 H205       -1.0386  -25.6809  -49.1478 H         1 UNK         0.3000 
    206 H206       -0.2804  -27.5819  -51.1489 H         1 UNK         0.0600 
    207 H207        0.2670  -25.1841  -51.3372 H         1 UNK         0.0600 
    208 H208       -0.7304  -25.6551  -52.7063 H         1 UNK         0.0600 
    209 H209       -1.4391  -24.7551  -51.3679 H         1 UNK         0.0600 
    210 H210       -3.3916  -26.2464  -50.1522 H         1 UNK         0.3000 
    211 H211       -5.4675  -26.8714  -50.2489 H         1 UNK         0.0600 
    212 H212       -4.5719  -29.5291  -51.4797 H         1 UNK         0.0600 
    213 H213       -6.1460  -29.1867  -50.7780 H         1 UNK         0.0600 
    214 H214       -4.7157  -29.1811  -49.7570 H         1 UNK         0.0600 
    215 H215       -3.8799  -27.6805  -53.3381 H         1 UNK         0.3000 
    216 H216       -6.1581  -27.0756  -55.0218 H         1 UNK         0.0600 
    217 H217       -4.4505  -27.1982  -56.8450 H         1 UNK         0.0600 
    218 H218       -4.3083  -28.5685  -55.7551 H         1 UNK         0.0600 
    219 H219       -3.1583  -27.2357  -55.6502 H         1 UNK         0.0600 
    220 H220       -3.7636  -25.1479  -53.4210 H         1 UNK         0.3000 
    221 H221       -4.3927  -22.6897  -54.9922 H         1 UNK         0.0600 
    222 H222       -2.0693  -23.2711  -53.0816 H         1 UNK         0.0600 
    223 H223       -1.9770  -23.3953  -54.8389 H         1 UNK         0.0600 
    224 H224       -2.2727  -21.8421  -54.0801 H         1 UNK         0.0600 
    225 H225       -5.9344  -24.1068  -52.6187 H         1 UNK         0.3000 
    226 H226       -5.7826  -22.6154  -50.2832 H         1 UNK         0.0600 
    227 H227       -7.0284  -24.6956  -50.3892 H         1 UNK         0.0600 
    228 H228       -8.1378  -23.4296  -49.8969 H         1 UNK         0.0600 
    229 H229       -8.1740  -24.0254  -51.5533 H         1 UNK         0.0600 
    230 H230       -6.3751  -20.6799  -49.6354 H         1 UNK         0.3000 
    231 H231       -7.0256  -18.6158  -49.4589 H         1 UNK         0.0600 
    232 H232       -9.1717  -17.8145  -50.3636 H         1 UNK         0.0600 
    233 H233       -9.3634  -19.4320  -49.7058 H         1 UNK         0.0600 
    234 H234       -9.2798  -19.1889  -51.4504 H         1 UNK         0.0600 
    235 H235       -6.7282  -19.6205  -52.8389 H         1 UNK         0.3000 
    236 H236       -6.2665  -17.0203  -53.9544 H         1 UNK         0.0600 
    237 H237       -7.0729  -18.9346  -55.3007 H         1 UNK         0.0600 
    238 H238       -5.5564  -18.3425  -55.9607 H         1 UNK         0.0600 
    239 H239       -5.5784  -19.8196  -55.0017 H         1 UNK         0.0600 
    240 H240       -4.0721  -19.5573  -52.7333 H         1 UNK         0.3000 
    241 H241       -1.9956  -19.6455  -52.1807 H         1 UNK         0.0600 
    242 H242       -1.2421  -19.4021  -55.9781 H         1 UNK         0.3800 
    243 H243       -2.8172  -19.3937  -55.2285 H         1 UNK         0.3800 
    244 H244       -1.1804  -16.7498  -52.4228 H         1 UNK         0.0800 
    245 H245       -2.5163  -17.0559  -51.3631 H         1 UNK         0.0800 
    246 H246        1.3328  -17.8663  -51.9426 H         1 UNK         0.0800 
    247 H247        0.9693  -16.3527  -51.1396 H         1 UNK         0.0800 
@<TRIPOS>BOND
     1    1    2 1    
     2    1  127 1    
     3    1  128 1    
     4    1  129 1    
     5    2    3 2    
     6    2    4 am   BACKBONE|DICT|INTERRES
     7    4    5 1    
     8    4  130 1    
     9    5    6 1    
    10    5   65 1    
    11    5  131 1    
    12    6    7 1    
    13    6  132 1    
    14    6  133 1    
    15    7    8 1    
    16    8    9 1    
    17    8  134 1    
    18    8  135 1    
    19    9   10 ar   
    20    9   14 ar   
    21   10   11 ar   
    22   10  136 1    
    23   11   12 ar   
    24   11  126 1    
    25   12   13 ar   
    26   12  137 1    
    27   13   14 ar   
    28   13   15 1    
    29   14  138 1    
    30   15   16 1    
    31   15  139 1    
    32   15  140 1    
    33   16   17 1    
    34   17   18 1    
    35   17  141 1    
    36   17  142 1    
    37   18   19 1    
    38   18   67 1    
    39   18  143 1    
    40   19   20 am   BACKBONE|DICT|INTERRES
    41   19  144 1    
    42   20   21 2    
    43   20   22 1    
    44   22   23 1    
    45   22   24 1    
    46   22  145 1    
    47   23  146 1    
    48   23  147 1    
    49   23  148 1    
    50   24   25 am   BACKBONE|DICT|INTERRES
    51   24  149 1    
    52   25   26 2    
    53   25   27 1    
    54   27   28 1    
    55   27   29 1    
    56   27  150 1    
    57   28  151 1    
    58   28  152 1    
    59   28  153 1    
    60   29   30 am   BACKBONE|DICT|INTERRES
    61   29  154 1    
    62   30   31 2    
    63   30   32 1    
    64   32   33 1    
    65   32   34 1    
    66   32  155 1    
    67   33  156 1    
    68   33  157 1    
    69   33  158 1    
    70   34   35 am   BACKBONE|DICT|INTERRES
    71   34  159 1    
    72   35   36 2    
    73   35   37 1    
    74   37   38 1    
    75   37   39 1    
    76   37  160 1    
    77   38  161 1    
    78   38  162 1    
    79   38  163 1    
    80   39   40 am   BACKBONE|DICT|INTERRES
    81   39  164 1    
    82   40   41 2    
    83   40   42 1    
    84   42   43 1    
    85   42   44 1    
    86   42  165 1    
    87   43  166 1    
    88   43  167 1    
    89   43  168 1    
    90   44   45 am   BACKBONE|DICT|INTERRES
    91   44  169 1    
    92   45   46 2    
    93   45   47 1    
    94   47   48 1    
    95   47   49 1    
    96   47  170 1    
    97   48  171 1    
    98   48  172 1    
    99   48  173 1    
   100   49   50 am   BACKBONE|DICT|INTERRES
   101   49  174 1    
   102   50   51 2    
   103   50   52 1    
   104   52   53 1    
   105   52   54 1    
   106   52  175 1    
   107   53  176 1    
   108   53  177 1    
   109   53  178 1    
   110   54   55 am   BACKBONE|DICT|INTERRES
   111   54  179 1    
   112   55   56 2    
   113   55   57 1    
   114   57   58 1    
   115   57   59 1    
   116   57  180 1    
   117   58  181 1    
   118   58  182 1    
   119   58  183 1    
   120   59   60 am   BACKBONE|DICT|INTERRES
   121   59  184 1    
   122   60   61 2    
   123   60   62 1    
   124   62   63 1    
   125   62   64 1    
   126   62  185 1    
   127   63  186 1    
   128   63  187 1    
   129   63  188 1    
   130   64   65 am   BACKBONE|DICT|INTERRES
   131   64  189 1    
   132   65   66 2    
   133   67   68 2    
   134   67   69 am   BACKBONE|DICT|INTERRES
   135   69   70 1    
   136   69  190 1    
   137   70   71 1    
   138   70   72 1    
   139   70  191 1    
   140   71  192 1    
   141   71  193 1    
   142   71  194 1    
   143   72   73 2    
   144   72   74 am   BACKBONE|DICT|INTERRES
   145   74   75 1    
   146   74  195 1    
   147   75   76 1    
   148   75   77 1    
   149   75  196 1    
   150   76  197 1    
   151   76  198 1    
   152   76  199 1    
   153   77   78 2    
   154   77   79 am   BACKBONE|DICT|INTERRES
   155   79   80 1    
   156   79  200 1    
   157   80   81 1    
   158   80   82 1    
   159   80  201 1    
   160   81  202 1    
   161   81  203 1    
   162   81  204 1    
   163   82   83 2    
   164   82   84 am   BACKBONE|DICT|INTERRES
   165   84   85 1    
   166   84  205 1    
   167   85   86 1    
   168   85   87 1    
   169   85  206 1    
   170   86  207 1    
   171   86  208 1    
   172   86  209 1    
   173   87   88 2    
   174   87   89 am   BACKBONE|DICT|INTERRES
   175   89   90 1    
   176   89  210 1    
   177   90   91 1    
   178   90   92 1    
   179   90  211 1    
   180   91  212 1    
   181   91  213 1    
   182   91  214 1    
   183   92   93 2    
   184   92   94 am   BACKBONE|DICT|INTERRES
   185   94   95 1    
   186   94  215 1    
   187   95   96 1    
   188   95   97 1    
   189   95  216 1    
   190   96  217 1    
   191   96  218 1    
   192   96  219 1    
   193   97   98 2    
   194   97   99 am   BACKBONE|DICT|INTERRES
   195   99  100 1    
   196   99  220 1    
   197  100  101 1    
   198  100  102 1    
   199  100  221 1    
   200  101  222 1    
   201  101  223 1    
   202  101  224 1    
   203  102  103 2    
   204  102  104 am   BACKBONE|DICT|INTERRES
   205  104  105 1    
   206  104  225 1    
   207  105  106 1    
   208  105  107 1    
   209  105  226 1    
   210  106  227 1    
   211  106  228 1    
   212  106  229 1    
   213  107  108 2    
   214  107  109 am   BACKBONE|DICT|INTERRES
   215  109  110 1    
   216  109  230 1    
   217  110  111 1    
   218  110  112 1    
   219  110  231 1    
   220  111  232 1    
   221  111  233 1    
   222  111  234 1    
   223  112  113 2    
   224  112  114 am   BACKBONE|DICT|INTERRES
   225  114  115 1    
   226  114  235 1    
   227  115  116 1    
   228  115  117 1    
   229  115  236 1    
   230  116  237 1    
   231  116  238 1    
   232  116  239 1    
   233  117  118 2    
   234  117  119 am   BACKBONE|DICT|INTERRES
   235  119  120 1    
   236  119  240 1    
   237  120  121 1    
   238  120  124 1    
   239  120  241 1    
   240  121  122 am   BACKBONE|DICT|INTERRES
   241  121  123 2    
   242  122  242 1    
   243  122  243 1    
   244  124  125 1    
   245  124  244 1    
   246  124  245 1    
   247  125  126 1    
   248  126  246 1    
   249  126  247 1    
@<TRIPOS>SUBSTRUCTURE
     1 UNK         1 GROUP             0       ****    0 ROOT    
