@<TRIPOS>MOLECULE
3R540
247   249    1
SMALL
USER_CHARGES


@<TRIPOS>ATOM
      1 CA         -3.9782  -10.4687  -48.0970 C.3       0 UNK        -0.1800 
      2 C          -3.2317  -11.7435  -47.7346 C.2       0 UNK         0.5000 
      3 O          -2.1023  -11.6730  -47.2513 O.2       0 UNK        -0.5000 
      4 N          -3.8623  -12.9064  -47.9472 N.am      1 UNK        -0.5000 
      5 CA         -3.3030  -14.2430  -47.7003 C.3       1 UNK         0.1400 
      6 C6         -4.2944  -15.3639  -48.0904 C.3       23 UNK        -0.0398 
      7 S7         -4.6559  -15.4074  -49.8763 S.3       23 UNK        -0.2404 
      8 C8         -3.7888  -16.9281  -50.3794 C.3       23 UNK        -0.0205 
      9 C9         -2.2996  -16.6962  -50.5922 C.ar      23 UNK        -0.0193 
     10 C10        -1.8195  -16.4077  -51.8719 C.ar      23 UNK        -0.1150 
     11 C11        -0.4522  -16.2285  -52.0952 C.ar      23 UNK        -0.0193 
     12 C12         0.4391  -16.3452  -51.0257 C.ar      23 UNK        -0.1150 
     13 C13        -0.0241  -16.6378  -49.7396 C.ar      23 UNK        -0.0193 
     14 C14        -1.3978  -16.7984  -49.5277 C.ar      23 UNK        -0.1150 
     15 C15         0.9673  -16.7621  -48.5899 C.3       23 UNK        -0.0205 
     16 S16         1.0131  -18.4418  -47.8779 S.3       23 UNK        -0.2404 
     17 C17        -0.1725  -18.2790  -46.5045 C.3       23 UNK        -0.0398 
     18 CA         -1.3700  -19.2425  -46.6102 C.3       11 UNK         0.1400 
     19 N          -0.9639  -20.6238  -46.3494 N.am      11 UNK        -0.5000 
     20 C          -1.7367  -21.7055  -46.5053 C.2       10 UNK         0.5000 
     21 O          -2.8893  -21.6708  -46.9328 O.2       10 UNK        -0.5000 
     22 CA         -1.1289  -23.0417  -46.0408 C.3       10 UNK         0.1400 
     23 CB         -0.2303  -23.6347  -47.1371 C.3       10 UNK        -0.1800 
     24 N          -0.3511  -22.9273  -44.8018 N.am      10 UNK        -0.5000 
     25 C          -0.7882  -22.4398  -43.6333 C.2       9 UNK         0.5000 
     26 O          -1.9307  -22.0109  -43.4691 O.2       9 UNK        -0.5000 
     27 CA          0.2049  -22.3687  -42.4537 C.3       9 UNK         0.1400 
     28 CB         -0.0840  -23.4823  -41.4303 C.3       9 UNK        -0.1800 
     29 N           1.6353  -22.3331  -42.8004 N.am      9 UNK        -0.5000 
     30 C           2.3940  -23.2889  -43.3630 C.2       8 UNK         0.5000 
     31 O           1.9434  -24.3422  -43.8128 O.2       8 UNK        -0.5000 
     32 CA          3.9131  -23.0271  -43.4555 C.3       8 UNK         0.1400 
     33 CB          4.2805  -22.5279  -44.8616 C.3       8 UNK        -0.1800 
     34 N           4.4065  -22.0635  -42.4690 N.am      8 UNK        -0.5000 
     35 C           4.3843  -22.2296  -41.1388 C.2       7 UNK         0.5000 
     36 O           4.0613  -23.2856  -40.5935 O.2       7 UNK        -0.5000 
     37 CA          4.7578  -21.0133  -40.2609 C.3       7 UNK         0.1400 
     38 CB          6.1067  -21.2513  -39.5634 C.3       7 UNK        -0.1800 
     39 N           4.8104  -19.7138  -40.9467 N.am      7 UNK        -0.5000 
     40 C           3.8148  -19.1197  -41.6191 C.2       6 UNK         0.5000 
     41 O           2.7141  -19.6462  -41.8183 O.2       6 UNK        -0.5000 
     42 CA          4.1145  -17.7218  -42.1917 C.3       6 UNK         0.1400 
     43 CB          5.4014  -17.6992  -43.0404 C.3       6 UNK        -0.1800 
     44 N           2.9852  -17.3156  -43.0162 N.am      6 UNK        -0.5000 
     45 C           2.5844  -16.0680  -43.2735 C.2       5 UNK         0.5000 
     46 O           3.1322  -15.0554  -42.8313 O.2       5 UNK        -0.5000 
     47 CA          1.3286  -15.9741  -44.1577 C.3       5 UNK         0.1400 
     48 CB          0.0726  -16.3712  -43.3625 C.3       5 UNK        -0.1800 
     49 N           1.1141  -14.6710  -44.7823 N.am      5 UNK        -0.5000 
     50 C           1.8889  -14.1326  -45.7337 C.2       4 UNK         0.5000 
     51 O           2.9146  -14.6671  -46.1579 O.2       4 UNK        -0.5000 
     52 CA          1.4274  -12.7995  -46.3612 C.3       4 UNK         0.1400 
     53 CB          1.0102  -13.0099  -47.8267 C.3       4 UNK        -0.1800 
     54 N           0.3102  -12.1707  -45.6567 N.am      4 UNK        -0.5000 
     55 C           0.3986  -11.4938  -44.5047 C.2       3 UNK         0.5000 
     56 O           1.4560  -11.2850  -43.9101 O.2       3 UNK        -0.5000 
     57 CA         -0.9280  -10.9929  -43.9064 C.3       3 UNK         0.1400 
     58 CB         -1.3139   -9.6259  -44.4927 C.3       3 UNK        -0.1800 
     59 N          -2.0150  -11.9480  -44.1335 N.am      3 UNK        -0.5000 
     60 C          -2.1937  -13.0665  -43.4167 C.2       2 UNK         0.5000 
     61 O          -1.4959  -13.3712  -42.4503 O.2       2 UNK        -0.5000 
     62 CA         -3.3290  -14.0128  -43.8519 C.3       2 UNK         0.1400 
     63 CB         -4.6107  -13.7188  -43.0588 C.3       2 UNK        -0.1800 
     64 N          -3.6249  -13.9408  -45.2833 N.am      2 UNK        -0.5000 
     65 C          -2.8366  -14.4437  -46.2440 C.2       1 UNK         0.5000 
     66 O          -1.7703  -15.0149  -46.0245 O.2       1 UNK        -0.5000 
     67 C          -2.4901  -18.7715  -45.6628 C.2       11 UNK         0.5000 
     68 O          -3.4417  -18.1461  -46.1247 O.2       11 UNK        -0.5000 
     69 N          -2.3655  -19.0843  -44.3648 N.am      12 UNK        -0.5000 
     70 CA         -3.3405  -18.7140  -43.3357 C.3       12 UNK         0.1400 
     71 CB         -2.7298  -18.9314  -41.9428 C.3       12 UNK        -0.1800 
     72 C          -4.6644  -19.4842  -43.4857 C.2       12 UNK         0.5000 
     73 O          -5.7325  -18.9104  -43.2715 O.2       12 UNK        -0.5000 
     74 N          -4.5667  -20.7574  -43.8906 N.am      13 UNK        -0.5000 
     75 CA         -5.7009  -21.6003  -44.2688 C.3       13 UNK         0.1400 
     76 CB         -5.2273  -23.0613  -44.3283 C.3       13 UNK        -0.1800 
     77 C          -6.3329  -21.1914  -45.6157 C.2       13 UNK         0.5000 
     78 O          -7.5081  -21.4826  -45.8402 O.2       13 UNK        -0.5000 
     79 N          -5.5321  -20.5513  -46.4823 N.am      14 UNK        -0.5000 
     80 CA         -5.7936  -20.2187  -47.8858 C.3       14 UNK         0.1400 
     81 CB         -6.8754  -19.1269  -48.0050 C.3       14 UNK        -0.1800 
     82 C          -6.0932  -21.4880  -48.7090 C.2       14 UNK         0.5000 
     83 O          -7.0960  -21.5531  -49.4225 O.2       14 UNK        -0.5000 
     84 N          -5.2283  -22.4933  -48.5401 N.am      15 UNK        -0.5000 
     85 CA         -5.3755  -23.8444  -49.0678 C.3       15 UNK         0.1400 
     86 CB         -5.9262  -24.7445  -47.9473 C.3       15 UNK        -0.1800 
     87 C          -4.0232  -24.3589  -49.5804 C.2       15 UNK         0.5000 
     88 O          -2.9987  -23.6981  -49.3989 O.2       15 UNK        -0.5000 
     89 N          -4.0436  -25.5378  -50.2177 N.am      16 UNK        -0.5000 
     90 CA         -2.8947  -26.2062  -50.8378 C.3       16 UNK         0.1400 
     91 CB         -1.9114  -26.7138  -49.7582 C.3       16 UNK        -0.1800 
     92 C          -2.2522  -25.3064  -51.9137 C.2       16 UNK         0.5000 
     93 O          -2.9823  -24.7714  -52.7501 O.2       16 UNK        -0.5000 
     94 N          -0.9269  -25.1150  -51.8665 N.am      17 UNK        -0.5000 
     95 CA         -0.1613  -24.2770  -52.7938 C.3       17 UNK         0.1400 
     96 CB          1.3320  -24.3760  -52.4521 C.3       17 UNK        -0.1800 
     97 C          -0.6061  -22.8019  -52.8285 C.2       17 UNK         0.5000 
     98 O          -0.5306  -22.1799  -53.8887 O.2       17 UNK        -0.5000 
     99 N          -1.1132  -22.2814  -51.7008 N.am      18 UNK        -0.5000 
    100 CA        -1.6444  -20.9200  -51.5902 C.3       18 UNK         0.1400 
    101 CB        -1.8840  -20.5798  -50.1138 C.3       18 UNK        -0.1800 
    102 C         -2.9275  -20.6951  -52.4152 C.2       18 UNK         0.5000 
    103 O         -3.2283  -19.5522  -52.7560 O.2       18 UNK        -0.5000 
    104 N         -3.6439  -21.7804  -52.7340 N.am      19 UNK        -0.5000 
    105 CA        -4.8056  -21.7762  -53.6156 C.3       19 UNK         0.1400 
    106 CB        -5.9105  -22.6455  -52.9931 C.3       19 UNK        -0.1800 
    107 C         -4.4278  -22.2894  -55.0150 C.2       19 UNK         0.5000 
    108 O         -4.7587  -21.6436  -56.0093 O.2       19 UNK        -0.5000 
    109 N         -3.7562  -23.4475  -55.0704 N.am      20 UNK        -0.5000 
    110 CA        -3.4915  -24.1989  -56.2966 C.3       20 UNK         0.1400 
    111 CB        -3.0733  -25.6310  -55.9282 C.3       20 UNK        -0.1800 
    112 C         -2.4420  -23.5577  -57.2188 C.2       20 UNK         0.5000 
    113 O         -2.6156  -23.5987  -58.4378 O.2       20 UNK        -0.5000 
    114 N         -1.3733  -23.0006  -56.6353 N.am      21 UNK        -0.5000 
    115 CA        -0.2598  -22.4018  -57.3728 C.3       21 UNK         0.1400 
    116 CB         1.0720  -22.9442  -56.8267 C.3       21 UNK        -0.1800 
    117 C         -0.3069  -20.8707  -57.2872 C.2       21 UNK         0.5000 
    118 O         -0.1578  -20.2012  -58.3101 O.2       21 UNK        -0.5000 
    119 N         -0.5185  -20.3465  -56.0741 N.am      22 UNK        -0.5000 
    120 CA        -0.5717  -18.9048  -55.7852 C.3       22 UNK         0.1400 
    121 C         -1.9274  -18.2206  -56.1359 C.2       22 UNK         0.5000 
    122 N         -2.9797  -18.9542  -56.4777 N.am      22 UNK        -0.7600 
    123 O         -2.0234  -16.9973  -56.1215 O.2       22 UNK        -0.5000 
    124 C124       -0.1260  -18.6133  -54.3256 C.3       23 UNK        -0.0398 
    125 S125        1.0707  -17.2410  -54.1988 S.3       23 UNK        -0.2404 
    126 C126        0.0597  -15.9010  -53.4907 C.3       23 UNK        -0.0205 
    127 H127       -4.9722  -10.6787  -48.4925 H         1 UNK         0.0600 
    128 H128       -3.4218   -9.9117  -48.8507 H         1 UNK         0.0600 
    129 H129       -4.0878   -9.8361  -47.2161 H         1 UNK         0.0600 
    130 H130       -4.7837  -12.8952  -48.3613 H         1 UNK         0.3000 
    131 H131       -2.4151  -14.3361  -48.3291 H         1 UNK         0.0600 
    132 H132       -5.2376  -15.2450  -47.5546 H         1 UNK         0.0800 
    133 H133       -3.9108  -16.3379  -47.7926 H         1 UNK         0.0800 
    134 H134       -3.9511  -17.7194  -49.6464 H         1 UNK         0.0800 
    135 H135       -4.2375  -17.2905  -51.3059 H         1 UNK         0.0800 
    136 H136       -2.5130  -16.3317  -52.6980 H         1 UNK         0.1150 
    137 H137        1.4973  -16.2115  -51.2017 H         1 UNK         0.1150 
    138 H138       -1.7644  -17.0138  -48.5361 H         1 UNK         0.1150 
    139 H139        1.9741  -16.5187  -48.9327 H         1 UNK         0.0800 
    140 H140        0.7341  -16.0226  -47.8245 H         1 UNK         0.0800 
    141 H141       -0.5098  -17.2438  -46.4471 H         1 UNK         0.0800 
    142 H142        0.3638  -18.4742  -45.5762 H         1 UNK         0.0800 
    143 H143       -1.7715  -19.1973  -47.6231 H         1 UNK         0.0600 
    144 H144       -0.0244  -20.7605  -46.0081 H         1 UNK         0.3000 
    145 H145       -1.9539  -23.7323  -45.8562 H         1 UNK         0.0600 
    146 H146        0.1071  -24.6364  -46.8704 H         1 UNK         0.0600 
    147 H147       -0.7630  -23.7142  -48.0842 H         1 UNK         0.0600 
    148 H148        0.6525  -23.0186  -47.3117 H         1 UNK         0.0600 
    149 H149        0.5772  -23.3353  -44.8044 H         1 UNK         0.3000 
    150 H150        0.0091  -21.4163  -41.9583 H         1 UNK         0.0600 
    151 H151       -1.1160  -23.4322  -41.0805 H         1 UNK         0.0600 
    152 H152        0.5602  -23.3899  -40.5557 H         1 UNK         0.0600 
    153 H153        0.0671  -24.4750  -41.8553 H         1 UNK         0.0600 
    154 H154        2.1114  -21.4865  -42.5035 H         1 UNK         0.3000 
    155 H155        4.4213  -23.9777  -43.2818 H         1 UNK         0.0600 
    156 H156        3.8144  -21.5666  -45.0823 H         1 UNK         0.0600 
    157 H157        3.9535  -23.2344  -45.6258 H         1 UNK         0.0600 
    158 H158        5.3590  -22.4116  -44.9699 H         1 UNK         0.0600 
    159 H159        4.6940  -21.1637  -42.8229 H         1 UNK         0.3000 
    160 H160        3.9869  -20.9381  -39.4914 H         1 UNK         0.0600 
    161 H161        6.9257  -21.3026  -40.2819 H         1 UNK         0.0600 
    162 H162        6.1016  -22.1881  -39.0044 H         1 UNK         0.0600 
    163 H163        6.3309  -20.4552  -38.8530 H         1 UNK         0.0600 
    164 H164        5.6826  -19.2133  -40.8543 H         1 UNK         0.3000 
    165 H165        4.2164  -17.0335  -41.3503 H         1 UNK         0.0600 
    166 H166        5.5660  -16.7150  -43.4796 H         1 UNK         0.0600 
    167 H167        6.2825  -17.9288  -42.4408 H         1 UNK         0.0600 
    168 H168        5.3568  -18.4223  -43.8558 H         1 UNK         0.0600 
    169 H169        2.4208  -18.0954  -43.3275 H         1 UNK         0.3000 
    170 H170        1.4742  -16.6813  -44.9722 H         1 UNK         0.0600 
    171 H171       -0.1045  -15.6892  -42.5307 H         1 UNK         0.0600 
    172 H172       -0.8173  -16.3725  -43.9904 H         1 UNK         0.0600 
    173 H173        0.1685  -17.3740  -42.9452 H         1 UNK         0.0600 
    174 H174        0.2839  -14.1680  -44.5069 H         1 UNK         0.3000 
    175 H175        2.2808  -12.1187  -46.3422 H         1 UNK         0.0600 
    176 H176        0.1319  -13.6519  -47.9046 H         1 UNK         0.0600 
    177 H177        0.7699  -12.0611  -48.3068 H         1 UNK         0.0600 
    178 H178        1.8104  -13.4730  -48.4054 H         1 UNK         0.0600 
    179 H179       -0.5966  -12.2328  -46.1101 H         1 UNK         0.3000 
    180 H180       -0.7855  -10.8682  -42.8307 H         1 UNK         0.0600 
    181 H181       -2.2342   -9.2507  -44.0449 H         1 UNK         0.0600 
    182 H182       -1.4608   -9.6723  -45.5721 H         1 UNK         0.0600 
    183 H183       -0.5345   -8.8874  -44.3009 H         1 UNK         0.0600 
    184 H184       -2.5943  -11.7910  -44.9461 H         1 UNK         0.3000 
    185 H185       -3.0136  -15.0323  -43.6189 H         1 UNK         0.0600 
    186 H186       -5.3973  -14.4335  -43.3020 H         1 UNK         0.0600 
    187 H187       -4.4304  -13.7894  -41.9852 H         1 UNK         0.0600 
    188 H188       -4.9904  -12.7169  -43.2629 H         1 UNK         0.0600 
    189 H189       -4.4764  -13.4689  -45.5510 H         1 UNK         0.3000 
    190 H190       -1.5995  -19.6709  -44.0698 H         1 UNK         0.3000 
    191 H191       -3.5615  -17.6499  -43.4455 H         1 UNK         0.0600 
    192 H192       -3.4300  -18.6331  -41.1615 H         1 UNK         0.0600 
    193 H193       -1.8257  -18.3380  -41.8095 H         1 UNK         0.0600 
    194 H194       -2.4744  -19.9771  -41.7697 H         1 UNK         0.0600 
    195 H195       -3.6418  -21.1708  -43.9681 H         1 UNK         0.3000 
    196 H196       -6.4694  -21.5164  -43.4977 H         1 UNK         0.0600 
    197 H197       -4.4502  -23.2004  -45.0810 H         1 UNK         0.0600 
    198 H198       -4.8242  -23.3852  -43.3686 H         1 UNK         0.0600 
    199 H199       -6.0512  -23.7304  -44.5796 H         1 UNK         0.0600 
    200 H200       -4.5720  -20.4156  -46.1946 H         1 UNK         0.3000 
    201 H201       -4.8639  -19.8066  -48.2813 H         1 UNK         0.0600 
    202 H202       -7.8463  -19.4754  -47.6523 H         1 UNK         0.0600 
    203 H203       -6.9962  -18.8112  -49.0418 H         1 UNK         0.0600 
    204 H204       -6.6041  -18.2435  -47.4266 H         1 UNK         0.0600 
    205 H205       -4.3798  -22.3288  -48.0016 H         1 UNK         0.3000 
    206 H206       -6.0693  -23.8468  -49.9109 H         1 UNK         0.0600 
    207 H207       -6.1046  -25.7600  -48.3018 H         1 UNK         0.0600 
    208 H208       -5.2335  -24.8049  -47.1069 H         1 UNK         0.0600 
    209 H209       -6.8752  -24.3640  -47.5683 H         1 UNK         0.0600 
    210 H210       -4.9328  -25.9985  -50.3488 H         1 UNK         0.3000 
    211 H211       -3.2876  -27.0761  -51.3657 H         1 UNK         0.0600 
    212 H212       -1.1182  -27.3193  -50.1981 H         1 UNK         0.0600 
    213 H213       -2.4256  -27.3446  -49.0330 H         1 UNK         0.0600 
    214 H214       -1.4436  -25.8976  -49.2069 H         1 UNK         0.0600 
    215 H215       -0.4028  -25.5713  -51.1343 H         1 UNK         0.3000 
    216 H216       -0.3072  -24.6812  -53.7975 H         1 UNK         0.0600 
    217 H217        1.5386  -24.0159  -51.4435 H         1 UNK         0.0600 
    218 H218        1.9311  -23.7808  -53.1430 H         1 UNK         0.0600 
    219 H219        1.6858  -25.4047  -52.5217 H         1 UNK         0.0600 
    220 H220       -1.2078  -22.8720  -50.8850 H         1 UNK         0.3000 
    221 H221       -0.8838  -20.2348  -51.9669 H         1 UNK         0.0600 
    222 H222       -0.9852  -20.7374  -49.5175 H         1 UNK         0.0600 
    223 H223       -2.6871  -21.1763  -49.6839 H         1 UNK         0.0600 
    224 H224       -2.1680  -19.5346  -50.0036 H         1 UNK         0.0600 
    225 H225       -3.3045  -22.6876  -52.4389 H         1 UNK         0.3000 
    226 H226       -5.2007  -20.7641  -53.7261 H         1 UNK         0.0600 
    227 H227       -5.5793  -23.6714  -52.8275 H         1 UNK         0.0600 
    228 H228       -6.2303  -22.2404  -52.0331 H         1 UNK         0.0600 
    229 H229       -6.7888  -22.6826  -53.6386 H         1 UNK         0.0600 
    230 H230       -3.5143  -23.9196  -54.2008 H         1 UNK         0.3000 
    231 H231       -4.4268  -24.2589  -56.8574 H         1 UNK         0.0600 
    232 H232       -2.1493  -25.6444  -55.3491 H         1 UNK         0.0600 
    233 H233       -2.9095  -26.2337  -56.8225 H         1 UNK         0.0600 
    234 H234       -3.8441  -26.1274  -55.3383 H         1 UNK         0.0600 
    235 H235       -1.3222  -22.9593  -55.6246 H         1 UNK         0.3000 
    236 H236       -0.3092  -22.6724  -58.4296 H         1 UNK         0.0600 
    237 H237        1.1189  -24.0296  -56.9153 H         1 UNK         0.0600 
    238 H238        1.9149  -22.5361  -57.3856 H         1 UNK         0.0600 
    239 H239        1.2232  -22.6889  -55.7780 H         1 UNK         0.0600 
    240 H240       -0.6041  -20.9721  -55.2771 H         1 UNK         0.3000 
    241 H241        0.1558  -18.4372  -56.4516 H         1 UNK         0.0600 
    242 H242       -3.8465  -18.4949  -56.7061 H         1 UNK         0.3800 
    243 H243       -2.9330  -19.9609  -56.4907 H         1 UNK         0.3800 
    244 H244        0.3817  -19.4812  -53.9027 H         1 UNK         0.0800 
    245 H245       -0.9805  -18.4388  -53.6723 H         1 UNK         0.0800 
    246 H246        0.6644  -14.9946  -53.4410 H         1 UNK         0.0800 
    247 H247       -0.7668  -15.6769  -54.1660 H         1 UNK         0.0800 
@<TRIPOS>BOND
     1    1    2 1    
     2    1  127 1    
     3    1  128 1    
     4    1  129 1    
     5    2    3 2    
     6    2    4 am   BACKBONE|DICT|INTERRES
     7    4    5 1    
     8    4  130 1    
     9    5    6 1    
    10    5   65 1    
    11    5  131 1    
    12    6    7 1    
    13    6  132 1    
    14    6  133 1    
    15    7    8 1    
    16    8    9 1    
    17    8  134 1    
    18    8  135 1    
    19    9   10 ar   
    20    9   14 ar   
    21   10   11 ar   
    22   10  136 1    
    23   11   12 ar   
    24   11  126 1    
    25   12   13 ar   
    26   12  137 1    
    27   13   14 ar   
    28   13   15 1    
    29   14  138 1    
    30   15   16 1    
    31   15  139 1    
    32   15  140 1    
    33   16   17 1    
    34   17   18 1    
    35   17  141 1    
    36   17  142 1    
    37   18   19 1    
    38   18   67 1    
    39   18  143 1    
    40   19   20 am   BACKBONE|DICT|INTERRES
    41   19  144 1    
    42   20   21 2    
    43   20   22 1    
    44   22   23 1    
    45   22   24 1    
    46   22  145 1    
    47   23  146 1    
    48   23  147 1    
    49   23  148 1    
    50   24   25 am   BACKBONE|DICT|INTERRES
    51   24  149 1    
    52   25   26 2    
    53   25   27 1    
    54   27   28 1    
    55   27   29 1    
    56   27  150 1    
    57   28  151 1    
    58   28  152 1    
    59   28  153 1    
    60   29   30 am   BACKBONE|DICT|INTERRES
    61   29  154 1    
    62   30   31 2    
    63   30   32 1    
    64   32   33 1    
    65   32   34 1    
    66   32  155 1    
    67   33  156 1    
    68   33  157 1    
    69   33  158 1    
    70   34   35 am   BACKBONE|DICT|INTERRES
    71   34  159 1    
    72   35   36 2    
    73   35   37 1    
    74   37   38 1    
    75   37   39 1    
    76   37  160 1    
    77   38  161 1    
    78   38  162 1    
    79   38  163 1    
    80   39   40 am   BACKBONE|DICT|INTERRES
    81   39  164 1    
    82   40   41 2    
    83   40   42 1    
    84   42   43 1    
    85   42   44 1    
    86   42  165 1    
    87   43  166 1    
    88   43  167 1    
    89   43  168 1    
    90   44   45 am   BACKBONE|DICT|INTERRES
    91   44  169 1    
    92   45   46 2    
    93   45   47 1    
    94   47   48 1    
    95   47   49 1    
    96   47  170 1    
    97   48  171 1    
    98   48  172 1    
    99   48  173 1    
   100   49   50 am   BACKBONE|DICT|INTERRES
   101   49  174 1    
   102   50   51 2    
   103   50   52 1    
   104   52   53 1    
   105   52   54 1    
   106   52  175 1    
   107   53  176 1    
   108   53  177 1    
   109   53  178 1    
   110   54   55 am   BACKBONE|DICT|INTERRES
   111   54  179 1    
   112   55   56 2    
   113   55   57 1    
   114   57   58 1    
   115   57   59 1    
   116   57  180 1    
   117   58  181 1    
   118   58  182 1    
   119   58  183 1    
   120   59   60 am   BACKBONE|DICT|INTERRES
   121   59  184 1    
   122   60   61 2    
   123   60   62 1    
   124   62   63 1    
   125   62   64 1    
   126   62  185 1    
   127   63  186 1    
   128   63  187 1    
   129   63  188 1    
   130   64   65 am   BACKBONE|DICT|INTERRES
   131   64  189 1    
   132   65   66 2    
   133   67   68 2    
   134   67   69 am   BACKBONE|DICT|INTERRES
   135   69   70 1    
   136   69  190 1    
   137   70   71 1    
   138   70   72 1    
   139   70  191 1    
   140   71  192 1    
   141   71  193 1    
   142   71  194 1    
   143   72   73 2    
   144   72   74 am   BACKBONE|DICT|INTERRES
   145   74   75 1    
   146   74  195 1    
   147   75   76 1    
   148   75   77 1    
   149   75  196 1    
   150   76  197 1    
   151   76  198 1    
   152   76  199 1    
   153   77   78 2    
   154   77   79 am   BACKBONE|DICT|INTERRES
   155   79   80 1    
   156   79  200 1    
   157   80   81 1    
   158   80   82 1    
   159   80  201 1    
   160   81  202 1    
   161   81  203 1    
   162   81  204 1    
   163   82   83 2    
   164   82   84 am   BACKBONE|DICT|INTERRES
   165   84   85 1    
   166   84  205 1    
   167   85   86 1    
   168   85   87 1    
   169   85  206 1    
   170   86  207 1    
   171   86  208 1    
   172   86  209 1    
   173   87   88 2    
   174   87   89 am   BACKBONE|DICT|INTERRES
   175   89   90 1    
   176   89  210 1    
   177   90   91 1    
   178   90   92 1    
   179   90  211 1    
   180   91  212 1    
   181   91  213 1    
   182   91  214 1    
   183   92   93 2    
   184   92   94 am   BACKBONE|DICT|INTERRES
   185   94   95 1    
   186   94  215 1    
   187   95   96 1    
   188   95   97 1    
   189   95  216 1    
   190   96  217 1    
   191   96  218 1    
   192   96  219 1    
   193   97   98 2    
   194   97   99 am   BACKBONE|DICT|INTERRES
   195   99  100 1    
   196   99  220 1    
   197  100  101 1    
   198  100  102 1    
   199  100  221 1    
   200  101  222 1    
   201  101  223 1    
   202  101  224 1    
   203  102  103 2    
   204  102  104 am   BACKBONE|DICT|INTERRES
   205  104  105 1    
   206  104  225 1    
   207  105  106 1    
   208  105  107 1    
   209  105  226 1    
   210  106  227 1    
   211  106  228 1    
   212  106  229 1    
   213  107  108 2    
   214  107  109 am   BACKBONE|DICT|INTERRES
   215  109  110 1    
   216  109  230 1    
   217  110  111 1    
   218  110  112 1    
   219  110  231 1    
   220  111  232 1    
   221  111  233 1    
   222  111  234 1    
   223  112  113 2    
   224  112  114 am   BACKBONE|DICT|INTERRES
   225  114  115 1    
   226  114  235 1    
   227  115  116 1    
   228  115  117 1    
   229  115  236 1    
   230  116  237 1    
   231  116  238 1    
   232  116  239 1    
   233  117  118 2    
   234  117  119 am   BACKBONE|DICT|INTERRES
   235  119  120 1    
   236  119  240 1    
   237  120  121 1    
   238  120  124 1    
   239  120  241 1    
   240  121  122 am   BACKBONE|DICT|INTERRES
   241  121  123 2    
   242  122  242 1    
   243  122  243 1    
   244  124  125 1    
   245  124  244 1    
   246  124  245 1    
   247  125  126 1    
   248  126  246 1    
   249  126  247 1    
@<TRIPOS>SUBSTRUCTURE
     1 UNK         1 GROUP             0       ****    0 ROOT    
