@<TRIPOS>MOLECULE
3R540
247   249    1
SMALL
USER_CHARGES


@<TRIPOS>ATOM
      1 CA          5.8716  -12.0762  -46.9995 C.3       0 UNK        -0.1800 
      2 C           4.3932  -12.4099  -46.8719 C.2       0 UNK         0.5000 
      3 O           3.6667  -11.7059  -46.1709 O.2       0 UNK        -0.5000 
      4 N           3.9416  -13.4662  -47.5617 N.am      1 UNK        -0.5000 
      5 CA          2.5776  -14.0222  -47.5338 C.3       1 UNK         0.1400 
      6 C6          2.4704  -15.2918  -48.4083 C.3       23 UNK        -0.0398 
      7 S7          3.4953  -16.6668  -47.7873 S.3       23 UNK        -0.2404 
      8 C8          4.2149  -17.3039  -49.3335 C.3       23 UNK        -0.0205 
      9 C9          3.1950  -18.0687  -50.1669 C.ar      23 UNK        -0.0193 
     10 C10         2.3985  -17.4003  -51.1008 C.ar      23 UNK        -0.1150 
     11 C11         1.4793  -18.0984  -51.8867 C.ar      23 UNK        -0.0193 
     12 C12         1.3768  -19.4859  -51.7418 C.ar      23 UNK        -0.1150 
     13 C13         2.1657  -20.1756  -50.8165 C.ar      23 UNK        -0.0193 
     14 C14         3.0734  -19.4542  -50.0289 C.ar      23 UNK        -0.1150 
     15 C15         2.0191  -21.6965  -50.7426 C.3       23 UNK        -0.0205 
     16 S16         2.7215  -22.5050  -49.2658 S.3       23 UNK        -0.2404 
     17 C17         1.6045  -21.8669  -47.9768 C.3       23 UNK        -0.0398 
     18 CA          0.9004  -22.9816  -47.1697 C.3       11 UNK         0.1400 
     19 N           0.4364  -22.4675  -45.8788 N.am      11 UNK        -0.5000 
     20 C           0.0122  -23.2206  -44.8569 C.2       10 UNK         0.5000 
     21 O           0.0133  -24.4488  -44.8730 O.2       10 UNK        -0.5000 
     22 CA         -0.5575  -22.4819  -43.6320 C.3       10 UNK         0.1400 
     23 CB          0.5666  -22.0633  -42.6736 C.3       10 UNK        -0.1800 
     24 N          -1.3593  -21.3155  -44.0062 N.am      10 UNK        -0.5000 
     25 C          -2.5012  -21.3850  -44.7055 C.2       9 UNK         0.5000 
     26 O          -3.0303  -22.4462  -45.0320 O.2       9 UNK        -0.5000 
     27 CA         -3.1367  -20.0600  -45.1588 C.3       9 UNK         0.1400 
     28 CB         -4.0208  -19.4705  -44.0507 C.3       9 UNK        -0.1800 
     29 N          -2.1515  -19.0661  -45.5829 N.am      9 UNK        -0.5000 
     30 C          -1.3173  -19.2020  -46.6250 C.2       8 UNK         0.5000 
     31 O          -1.2785  -20.1945  -47.3521 O.2       8 UNK        -0.5000 
     32 CA         -0.3047  -18.0597  -46.8396 C.3       8 UNK         0.1400 
     33 CB         -0.9891  -16.8048  -47.4079 C.3       8 UNK        -0.1800 
     34 N           0.3816  -17.7172  -45.5942 N.am      8 UNK        -0.5000 
     35 C           1.1521  -18.5611  -44.8927 C.2       7 UNK         0.5000 
     36 O           1.4346  -19.7016  -45.2599 O.2       7 UNK        -0.5000 
     37 CA          1.6291  -18.0675  -43.5174 C.3       7 UNK         0.1400 
     38 CB          2.9235  -17.2493  -43.6461 C.3       7 UNK        -0.1800 
     39 N           0.5943  -17.2769  -42.8460 N.am      7 UNK        -0.5000 
     40 C          -0.5181  -17.8016  -42.3093 C.2       6 UNK         0.5000 
     41 O          -0.7529  -19.0088  -42.2825 O.2       6 UNK        -0.5000 
     42 CA         -1.5615  -16.8201  -41.7401 C.3       6 UNK         0.1400 
     43 CB         -1.2231  -16.4578  -40.2866 C.3       6 UNK        -0.1800 
     44 N          -1.6809  -15.5933  -42.5278 N.am      6 UNK        -0.5000 
     45 C          -2.1391  -15.5356  -43.7866 C.2       5 UNK         0.5000 
     46 O          -2.5905  -16.5071  -44.3895 O.2       5 UNK        -0.5000 
     47 CA         -2.0177  -14.1813  -44.5149 C.3       5 UNK         0.1400 
     48 CB         -3.3234  -13.3830  -44.3963 C.3       5 UNK        -0.1800 
     49 N          -0.8990  -13.3582  -44.0430 N.am      5 UNK        -0.5000 
     50 C           0.3869  -13.7297  -44.0731 C.2       4 UNK         0.5000 
     51 O           0.7641  -14.8173  -44.5126 O.2       4 UNK        -0.5000 
     52 CA          1.4030  -12.7270  -43.4983 C.3       4 UNK         0.1400 
     53 CB          2.7957  -13.3517  -43.2982 C.3       4 UNK        -0.1800 
     54 N           1.5279  -11.5579  -44.3623 N.am      4 UNK        -0.5000 
     55 C           0.6889  -10.5142  -44.3899 C.2       3 UNK         0.5000 
     56 O          -0.3073  -10.4220  -43.6707 O.2       3 UNK        -0.5000 
     57 CA          1.0048   -9.4053  -45.4057 C.3       3 UNK         0.1400 
     58 CB          2.1961   -8.5570  -44.9329 C.3       3 UNK        -0.1800 
     59 N           1.3154   -9.9894  -46.7085 N.am      3 UNK        -0.5000 
     60 C           0.4721  -10.0353  -47.7487 C.2       2 UNK         0.5000 
     61 O          -0.6333   -9.4924  -47.7620 O.2       2 UNK        -0.5000 
     62 CA          0.9331  -10.8367  -48.9842 C.3       2 UNK         0.1400 
     63 CB          1.6401   -9.9161  -49.9905 C.3       2 UNK        -0.1800 
     64 N           1.8237  -11.9494  -48.6480 N.am      2 UNK        -0.5000 
     65 C           1.4653  -13.0236  -47.9297 C.2       1 UNK         0.5000 
     66 O           0.3087  -13.2374  -47.5676 O.2       1 UNK        -0.5000 
     67 C          -0.2377  -23.6701  -47.9627 C.2       11 UNK         0.5000 
     68 O          -0.0242  -24.7383  -48.5449 O.2       11 UNK        -0.5000 
     69 N          -1.4413  -23.0786  -47.9280 N.am      12 UNK        -0.5000 
     70 CA         -2.6657  -23.6537  -48.4910 C.3       12 UNK         0.1400 
     71 CB         -3.7774  -22.5949  -48.5148 C.3       12 UNK        -0.1800 
     72 C          -3.1216  -24.9289  -47.7552 C.2       12 UNK         0.5000 
     73 O          -3.5584  -25.8827  -48.3969 O.2       12 UNK        -0.5000 
     74 N          -2.9851  -24.9487  -46.4232 N.am      13 UNK        -0.5000 
     75 CA         -3.2369  -26.1294  -45.5963 C.3       13 UNK         0.1400 
     76 CB         -3.2608  -25.7264  -44.1141 C.3       13 UNK        -0.1800 
     77 C          -2.2113  -27.2530  -45.8450 C.2       13 UNK         0.5000 
     78 O          -2.5851  -28.4266  -45.8334 O.2       13 UNK        -0.5000 
     79 N          -0.9448  -26.8741  -46.0652 N.am      14 UNK        -0.5000 
     80 CA          0.1690  -27.7832  -46.3154 C.3       14 UNK         0.1400 
     81 CB          1.5038  -27.0338  -46.1772 C.3       14 UNK        -0.1800 
     82 C           0.0840  -28.4953  -47.6750 C.2       14 UNK         0.5000 
     83 O           0.2156  -29.7206  -47.7057 O.2       14 UNK        -0.5000 
     84 N          -0.1073  -27.7409  -48.7694 N.am      15 UNK        -0.5000 
     85 CA         -0.0575  -28.3062  -50.1224 C.3       15 UNK         0.1400 
     86 CB          1.4073  -28.5590  -50.5345 C.3       15 UNK        -0.1800 
     87 C          -0.7640  -27.4808  -51.2089 C.2       15 UNK         0.5000 
     88 O          -1.2925  -28.0830  -52.1458 O.2       15 UNK        -0.5000 
     89 N          -0.7177  -26.1436  -51.1317 N.am      16 UNK        -0.5000 
     90 CA         -1.1870  -25.2707  -52.2148 C.3       16 UNK         0.1400 
     91 CB         -0.6023  -23.8651  -52.0188 C.3       16 UNK        -0.1800 
     92 C          -2.7217  -25.2196  -52.3472 C.2       16 UNK         0.5000 
     93 O          -3.4402  -25.4923  -51.3861 O.2       16 UNK        -0.5000 
     94 N          -3.2031  -24.8378  -53.5364 N.am      17 UNK        -0.5000 
     95 CA         -4.6164  -24.5539  -53.7866 C.3       17 UNK         0.1400 
     96 CB         -4.8629  -24.5045  -55.3022 C.3       17 UNK        -0.1800 
     97 C          -5.0106  -23.2192  -53.1314 C.2       17 UNK         0.5000 
     98 O          -4.2570  -22.2503  -53.2418 O.2       17 UNK        -0.5000 
     99 N          -6.1725  -23.1838  -52.4712 N.am      18 UNK        -0.5000 
    100 CA        -6.7088  -22.0002  -51.8007 C.3       18 UNK         0.1400 
    101 CB        -7.6278  -22.4527  -50.6524 C.3       18 UNK        -0.1800 
    102 C         -7.4332  -21.0912  -52.8116 C.2       18 UNK         0.5000 
    103 O         -8.6612  -21.1293  -52.9120 O.2       18 UNK        -0.5000 
    104 N         -6.6533  -20.3114  -53.5684 N.am      19 UNK        -0.5000 
    105 CA        -7.1416  -19.2757  -54.4807 C.3       19 UNK         0.1400 
    106 CB        -6.0096  -18.8801  -55.4410 C.3       19 UNK        -0.1800 
    107 C         -7.6642  -18.0441  -53.7157 C.2       19 UNK         0.5000 
    108 O         -8.6446  -17.4284  -54.1362 O.2       19 UNK        -0.5000 
    109 N         -7.0119  -17.7360  -52.5916 N.am      20 UNK        -0.5000 
    110 CA        -7.4042  -16.7423  -51.6012 C.3       20 UNK         0.1400 
    111 CB        -6.7879  -15.3748  -51.9629 C.3       20 UNK        -0.1800 
    112 C         -6.9730  -17.3053  -50.2366 C.2       20 UNK         0.5000 
    113 O         -7.3012  -18.4561  -49.9383 O.2       20 UNK        -0.5000 
    114 N         -6.2074  -16.5321  -49.4516 N.am      21 UNK        -0.5000 
    115 CA        -5.4361  -17.0561  -48.3195 C.3       21 UNK         0.1400 
    116 CB        -4.9030  -15.8984  -47.4594 C.3       21 UNK        -0.1800 
    117 C         -4.2902  -17.9513  -48.8287 C.2       21 UNK         0.5000 
    118 O         -4.1298  -19.0694  -48.3476 O.2       21 UNK        -0.5000 
    119 N         -3.5720  -17.4521  -49.8453 N.am      22 UNK        -0.5000 
    120 CA        -2.6496  -18.2097  -50.7035 C.3       22 UNK         0.1400 
    121 C         -3.4130  -19.3160  -51.4887 C.2       22 UNK         0.5000 
    122 N         -2.8574  -20.5142  -51.5892 N.am      22 UNK        -0.7600 
    123 O         -4.4841  -19.0761  -52.0428 O.2       22 UNK        -0.5000 
    124 C124       -1.8765  -17.2206  -51.6304 C.3       23 UNK        -0.0398 
    125 S125       -1.0547  -17.9197  -53.1115 S.3       23 UNK        -0.2404 
    126 C126        0.6668  -17.3455  -52.9360 C.3       23 UNK        -0.0205 
    127 H127        5.9950  -11.0704  -47.4007 H         1 UNK         0.0600 
    128 H128        6.3898  -12.7729  -47.6587 H         1 UNK         0.0600 
    129 H129        6.3483  -12.1148  -46.0202 H         1 UNK         0.0600 
    130 H130        4.6016  -13.9973  -48.1118 H         1 UNK         0.3000 
    131 H131        2.3774  -14.3076  -46.5007 H         1 UNK         0.0600 
    132 H132        1.4459  -15.6566  -48.4681 H         1 UNK         0.0800 
    133 H133        2.7600  -15.0438  -49.4291 H         1 UNK         0.0800 
    134 H134        5.0503  -17.9592  -49.0823 H         1 UNK         0.0800 
    135 H135        4.6425  -16.4840  -49.9124 H         1 UNK         0.0800 
    136 H136        2.5081  -16.3346  -51.2361 H         1 UNK         0.1150 
    137 H137        0.6905  -20.0384  -52.3683 H         1 UNK         0.1150 
    138 H138        3.7054  -19.9626  -49.3160 H         1 UNK         0.1150 
    139 H139        0.9599  -21.9451  -50.7876 H         1 UNK         0.0800 
    140 H140        2.4829  -22.1323  -51.6283 H         1 UNK         0.0800 
    141 H141        0.8797  -21.1747  -48.4063 H         1 UNK         0.0800 
    142 H142        2.2245  -21.2638  -47.3122 H         1 UNK         0.0800 
    143 H143        1.6438  -23.7491  -46.9449 H         1 UNK         0.0600 
    144 H144        0.4356  -21.4590  -45.7687 H         1 UNK         0.3000 
    145 H145       -1.2105  -23.1766  -43.1001 H         1 UNK         0.0600 
    146 H146        0.1647  -21.5986  -41.7732 H         1 UNK         0.0600 
    147 H147        1.1518  -22.9283  -42.3592 H         1 UNK         0.0600 
    148 H148        1.2524  -21.3560  -43.1388 H         1 UNK         0.0600 
    149 H149       -1.0197  -20.4085  -43.7037 H         1 UNK         0.3000 
    150 H150       -3.7736  -20.2810  -46.0166 H         1 UNK         0.0600 
    151 H151       -4.7801  -20.1867  -43.7342 H         1 UNK         0.0600 
    152 H152       -4.5404  -18.5767  -44.3966 H         1 UNK         0.0600 
    153 H153       -3.4363  -19.1996  -43.1714 H         1 UNK         0.0600 
    154 H154       -2.1456  -18.1909  -45.0652 H         1 UNK         0.3000 
    155 H155        0.4549  -18.3928  -47.5506 H         1 UNK         0.0600 
    156 H156       -1.9695  -16.6327  -46.9659 H         1 UNK         0.0600 
    157 H157       -0.4005  -15.9057  -47.2324 H         1 UNK         0.0600 
    158 H158       -1.1298  -16.8990  -48.4834 H         1 UNK         0.0600 
    159 H159        0.2354  -16.7854  -45.2248 H         1 UNK         0.3000 
    160 H160        1.8461  -18.9423  -42.9009 H         1 UNK         0.0600 
    161 H161        2.8046  -16.3953  -44.3128 H         1 UNK         0.0600 
    162 H162        3.7275  -17.8636  -44.0532 H         1 UNK         0.0600 
    163 H163        3.2561  -16.8777  -42.6771 H         1 UNK         0.0600 
    164 H164        0.6804  -16.2721  -42.9195 H         1 UNK         0.3000 
    165 H165       -2.5308  -17.3227  -41.7495 H         1 UNK         0.0600 
    166 H166       -1.9955  -15.8260  -39.8476 H         1 UNK         0.0600 
    167 H167       -1.1482  -17.3539  -39.6690 H         1 UNK         0.0600 
    168 H168       -0.2726  -15.9279  -40.2131 H         1 UNK         0.0600 
    169 H169       -1.3368  -14.7441  -42.1054 H         1 UNK         0.3000 
    170 H170       -1.8432  -14.3944  -45.5715 H         1 UNK         0.0600 
    171 H171       -4.1699  -13.9623  -44.7680 H         1 UNK         0.0600 
    172 H172       -3.5374  -13.1127  -43.3616 H         1 UNK         0.0600 
    173 H173       -3.2776  -12.4644  -44.9818 H         1 UNK         0.0600 
    174 H174       -1.1172  -12.4258  -43.7114 H         1 UNK         0.3000 
    175 H175        1.0398  -12.4105  -42.5183 H         1 UNK         0.0600 
    176 H176        3.2223  -13.7053  -44.2371 H         1 UNK         0.0600 
    177 H177        3.4917  -12.6322  -42.8669 H         1 UNK         0.0600 
    178 H178        2.7471  -14.2037  -42.6192 H         1 UNK         0.0600 
    179 H179        2.3179  -11.5685  -45.0043 H         1 UNK         0.3000 
    180 H180        0.1321   -8.7524  -45.4742 H         1 UNK         0.0600 
    181 H181        3.1091   -9.1482  -44.8505 H         1 UNK         0.0600 
    182 H182        1.9985   -8.1176  -43.9543 H         1 UNK         0.0600 
    183 H183        2.3915   -7.7371  -45.6242 H         1 UNK         0.0600 
    184 H184        2.1894  -10.5007  -46.7705 H         1 UNK         0.3000 
    185 H185        0.0422  -11.2489  -49.4627 H         1 UNK         0.0600 
    186 H186        0.9936   -9.0873  -50.2821 H         1 UNK         0.0600 
    187 H187        2.5530   -9.4892  -49.5731 H         1 UNK         0.0600 
    188 H188        1.9055  -10.4551  -50.9001 H         1 UNK         0.0600 
    189 H189        2.7942  -11.8503  -48.9074 H         1 UNK         0.3000 
    190 H190       -1.5252  -22.1719  -47.4775 H         1 UNK         0.3000 
    191 H191       -2.4560  -23.9334  -49.5217 H         1 UNK         0.0600 
    192 H192       -3.4622  -21.7030  -49.0558 H         1 UNK         0.0600 
    193 H193       -4.0685  -22.2880  -47.5107 H         1 UNK         0.0600 
    194 H194       -4.6678  -22.9790  -49.0135 H         1 UNK         0.0600 
    195 H195       -2.7083  -24.0967  -45.9432 H         1 UNK         0.3000 
    196 H196       -4.2245  -26.5175  -45.8545 H         1 UNK         0.0600 
    197 H197       -3.4965  -26.5829  -43.4815 H         1 UNK         0.0600 
    198 H198       -4.0163  -24.9635  -43.9248 H         1 UNK         0.0600 
    199 H199       -2.2989  -25.3327  -43.7867 H         1 UNK         0.0600 
    200 H200       -0.7109  -25.8912  -45.9668 H         1 UNK         0.3000 
    201 H201        0.1447  -28.5526  -45.5406 H         1 UNK         0.0600 
    202 H202        1.6249  -26.6259  -45.1738 H         1 UNK         0.0600 
    203 H203        1.5815  -26.2101  -46.8863 H         1 UNK         0.0600 
    204 H204        2.3470  -27.7016  -46.3581 H         1 UNK         0.0600 
    205 H205       -0.2219  -26.7366  -48.6740 H         1 UNK         0.3000 
    206 H206       -0.5747  -29.2685  -50.1076 H         1 UNK         0.0600 
    207 H207        1.8880  -29.2906  -49.8852 H         1 UNK         0.0600 
    208 H208        1.4695  -28.9474  -51.5520 H         1 UNK         0.0600 
    209 H209        1.9951  -27.6410  -50.4967 H         1 UNK         0.0600 
    210 H210       -0.3130  -25.6897  -50.3209 H         1 UNK         0.3000 
    211 H211       -0.7911  -25.6620  -53.1547 H         1 UNK         0.0600 
    212 H212       -0.9051  -23.4259  -51.0700 H         1 UNK         0.0600 
    213 H213       -0.9235  -23.1863  -52.8101 H         1 UNK         0.0600 
    214 H214        0.4866  -23.8981  -52.0441 H         1 UNK         0.0600 
    215 H215       -2.5596  -24.5863  -54.2723 H         1 UNK         0.3000 
    216 H216       -5.2205  -25.3590  -53.3625 H         1 UNK         0.0600 
    217 H217       -5.9141  -24.3113  -55.5197 H         1 UNK         0.0600 
    218 H218       -4.6017  -25.4511  -55.7756 H         1 UNK         0.0600 
    219 H219       -4.2792  -23.7167  -55.7805 H         1 UNK         0.0600 
    220 H220       -6.7521  -24.0103  -52.4487 H         1 UNK         0.3000 
    221 H221       -5.8910  -21.4284  -51.3560 H         1 UNK         0.0600 
    222 H222       -8.4609  -23.0584  -51.0111 H         1 UNK         0.0600 
    223 H223       -7.0782  -23.0412  -49.9177 H         1 UNK         0.0600 
    224 H224       -8.0462  -21.5911  -50.1301 H         1 UNK         0.0600 
    225 H225       -5.6532  -20.3279  -53.3963 H         1 UNK         0.3000 
    226 H226       -7.9654  -19.6853  -55.0689 H         1 UNK         0.0600 
    227 H227       -5.6712  -19.7365  -56.0245 H         1 UNK         0.0600 
    228 H228       -6.3434  -18.1167  -56.1448 H         1 UNK         0.0600 
    229 H229       -5.1484  -18.4799  -54.9038 H         1 UNK         0.0600 
    230 H230       -6.2163  -18.3152  -52.3279 H         1 UNK         0.3000 
    231 H231       -8.4920  -16.6505  -51.5814 H         1 UNK         0.0600 
    232 H232       -7.0814  -14.6048  -51.2486 H         1 UNK         0.0600 
    233 H233       -7.1295  -15.0432  -52.9437 H         1 UNK         0.0600 
    234 H234       -5.6983  -15.4156  -51.9929 H         1 UNK         0.0600 
    235 H235       -6.0088  -15.5871  -49.7454 H         1 UNK         0.3000 
    236 H236       -6.0952  -17.6656  -47.6972 H         1 UNK         0.0600 
    237 H237       -5.7172  -15.2742  -47.0910 H         1 UNK         0.0600 
    238 H238       -4.3701  -16.2798  -46.5875 H         1 UNK         0.0600 
    239 H239       -4.2140  -15.2593  -48.0127 H         1 UNK         0.0600 
    240 H240       -3.8169  -16.5337  -50.1795 H         1 UNK         0.3000 
    241 H241       -1.9237  -18.7031  -50.0539 H         1 UNK         0.0600 
    242 H242       -1.9724  -20.7257  -51.1622 H         1 UNK         0.3800 
    243 H243       -3.3303  -21.2118  -52.1616 H         1 UNK         0.3800 
    244 H244       -2.5654  -16.4650  -52.0113 H         1 UNK         0.0800 
    245 H245       -1.1429  -16.6737  -51.0369 H         1 UNK         0.0800 
    246 H246        0.6601  -16.2743  -52.7281 H         1 UNK         0.0800 
    247 H247        1.1667  -17.4662  -53.8977 H         1 UNK         0.0800 
@<TRIPOS>BOND
     1    1    2 1    
     2    1  127 1    
     3    1  128 1    
     4    1  129 1    
     5    2    3 2    
     6    2    4 am   BACKBONE|DICT|INTERRES
     7    4    5 1    
     8    4  130 1    
     9    5    6 1    
    10    5   65 1    
    11    5  131 1    
    12    6    7 1    
    13    6  132 1    
    14    6  133 1    
    15    7    8 1    
    16    8    9 1    
    17    8  134 1    
    18    8  135 1    
    19    9   10 ar   
    20    9   14 ar   
    21   10   11 ar   
    22   10  136 1    
    23   11   12 ar   
    24   11  126 1    
    25   12   13 ar   
    26   12  137 1    
    27   13   14 ar   
    28   13   15 1    
    29   14  138 1    
    30   15   16 1    
    31   15  139 1    
    32   15  140 1    
    33   16   17 1    
    34   17   18 1    
    35   17  141 1    
    36   17  142 1    
    37   18   19 1    
    38   18   67 1    
    39   18  143 1    
    40   19   20 am   BACKBONE|DICT|INTERRES
    41   19  144 1    
    42   20   21 2    
    43   20   22 1    
    44   22   23 1    
    45   22   24 1    
    46   22  145 1    
    47   23  146 1    
    48   23  147 1    
    49   23  148 1    
    50   24   25 am   BACKBONE|DICT|INTERRES
    51   24  149 1    
    52   25   26 2    
    53   25   27 1    
    54   27   28 1    
    55   27   29 1    
    56   27  150 1    
    57   28  151 1    
    58   28  152 1    
    59   28  153 1    
    60   29   30 am   BACKBONE|DICT|INTERRES
    61   29  154 1    
    62   30   31 2    
    63   30   32 1    
    64   32   33 1    
    65   32   34 1    
    66   32  155 1    
    67   33  156 1    
    68   33  157 1    
    69   33  158 1    
    70   34   35 am   BACKBONE|DICT|INTERRES
    71   34  159 1    
    72   35   36 2    
    73   35   37 1    
    74   37   38 1    
    75   37   39 1    
    76   37  160 1    
    77   38  161 1    
    78   38  162 1    
    79   38  163 1    
    80   39   40 am   BACKBONE|DICT|INTERRES
    81   39  164 1    
    82   40   41 2    
    83   40   42 1    
    84   42   43 1    
    85   42   44 1    
    86   42  165 1    
    87   43  166 1    
    88   43  167 1    
    89   43  168 1    
    90   44   45 am   BACKBONE|DICT|INTERRES
    91   44  169 1    
    92   45   46 2    
    93   45   47 1    
    94   47   48 1    
    95   47   49 1    
    96   47  170 1    
    97   48  171 1    
    98   48  172 1    
    99   48  173 1    
   100   49   50 am   BACKBONE|DICT|INTERRES
   101   49  174 1    
   102   50   51 2    
   103   50   52 1    
   104   52   53 1    
   105   52   54 1    
   106   52  175 1    
   107   53  176 1    
   108   53  177 1    
   109   53  178 1    
   110   54   55 am   BACKBONE|DICT|INTERRES
   111   54  179 1    
   112   55   56 2    
   113   55   57 1    
   114   57   58 1    
   115   57   59 1    
   116   57  180 1    
   117   58  181 1    
   118   58  182 1    
   119   58  183 1    
   120   59   60 am   BACKBONE|DICT|INTERRES
   121   59  184 1    
   122   60   61 2    
   123   60   62 1    
   124   62   63 1    
   125   62   64 1    
   126   62  185 1    
   127   63  186 1    
   128   63  187 1    
   129   63  188 1    
   130   64   65 am   BACKBONE|DICT|INTERRES
   131   64  189 1    
   132   65   66 2    
   133   67   68 2    
   134   67   69 am   BACKBONE|DICT|INTERRES
   135   69   70 1    
   136   69  190 1    
   137   70   71 1    
   138   70   72 1    
   139   70  191 1    
   140   71  192 1    
   141   71  193 1    
   142   71  194 1    
   143   72   73 2    
   144   72   74 am   BACKBONE|DICT|INTERRES
   145   74   75 1    
   146   74  195 1    
   147   75   76 1    
   148   75   77 1    
   149   75  196 1    
   150   76  197 1    
   151   76  198 1    
   152   76  199 1    
   153   77   78 2    
   154   77   79 am   BACKBONE|DICT|INTERRES
   155   79   80 1    
   156   79  200 1    
   157   80   81 1    
   158   80   82 1    
   159   80  201 1    
   160   81  202 1    
   161   81  203 1    
   162   81  204 1    
   163   82   83 2    
   164   82   84 am   BACKBONE|DICT|INTERRES
   165   84   85 1    
   166   84  205 1    
   167   85   86 1    
   168   85   87 1    
   169   85  206 1    
   170   86  207 1    
   171   86  208 1    
   172   86  209 1    
   173   87   88 2    
   174   87   89 am   BACKBONE|DICT|INTERRES
   175   89   90 1    
   176   89  210 1    
   177   90   91 1    
   178   90   92 1    
   179   90  211 1    
   180   91  212 1    
   181   91  213 1    
   182   91  214 1    
   183   92   93 2    
   184   92   94 am   BACKBONE|DICT|INTERRES
   185   94   95 1    
   186   94  215 1    
   187   95   96 1    
   188   95   97 1    
   189   95  216 1    
   190   96  217 1    
   191   96  218 1    
   192   96  219 1    
   193   97   98 2    
   194   97   99 am   BACKBONE|DICT|INTERRES
   195   99  100 1    
   196   99  220 1    
   197  100  101 1    
   198  100  102 1    
   199  100  221 1    
   200  101  222 1    
   201  101  223 1    
   202  101  224 1    
   203  102  103 2    
   204  102  104 am   BACKBONE|DICT|INTERRES
   205  104  105 1    
   206  104  225 1    
   207  105  106 1    
   208  105  107 1    
   209  105  226 1    
   210  106  227 1    
   211  106  228 1    
   212  106  229 1    
   213  107  108 2    
   214  107  109 am   BACKBONE|DICT|INTERRES
   215  109  110 1    
   216  109  230 1    
   217  110  111 1    
   218  110  112 1    
   219  110  231 1    
   220  111  232 1    
   221  111  233 1    
   222  111  234 1    
   223  112  113 2    
   224  112  114 am   BACKBONE|DICT|INTERRES
   225  114  115 1    
   226  114  235 1    
   227  115  116 1    
   228  115  117 1    
   229  115  236 1    
   230  116  237 1    
   231  116  238 1    
   232  116  239 1    
   233  117  118 2    
   234  117  119 am   BACKBONE|DICT|INTERRES
   235  119  120 1    
   236  119  240 1    
   237  120  121 1    
   238  120  124 1    
   239  120  241 1    
   240  121  122 am   BACKBONE|DICT|INTERRES
   241  121  123 2    
   242  122  242 1    
   243  122  243 1    
   244  124  125 1    
   245  124  244 1    
   246  124  245 1    
   247  125  126 1    
   248  126  246 1    
   249  126  247 1    
@<TRIPOS>SUBSTRUCTURE
     1 UNK         1 GROUP             0       ****    0 ROOT    
