@<TRIPOS>MOLECULE
3R540
247   249    1
SMALL
USER_CHARGES


@<TRIPOS>ATOM
      1 CA         -2.4630  -12.5440  -44.0965 C.3       0 UNK        -0.1800 
      2 C          -2.5001  -12.5715  -45.6184 C.2       0 UNK         0.5000 
      3 O          -2.3475  -11.5297  -46.2557 O.2       0 UNK        -0.5000 
      4 N          -2.7079  -13.7604  -46.2001 N.am      1 UNK        -0.5000 
      5 CA         -2.6919  -14.0025  -47.6493 C.3       1 UNK         0.1400 
      6 C6         -3.3543  -15.3624  -47.9839 C.3       23 UNK        -0.0398 
      7 S7         -3.9438  -15.4623  -49.7073 S.3       23 UNK        -0.2404 
      8 C8         -3.4847  -17.1631  -50.1658 C.3       23 UNK        -0.0205 
      9 C9         -1.9879  -17.3303  -50.3813 C.ar      23 UNK        -0.0193 
     10 C10        -1.3952  -16.8589  -51.5547 C.ar      23 UNK        -0.1150 
     11 C11        -0.0257  -17.0250  -51.7751 C.ar      23 UNK        -0.0193 
     12 C12         0.7507  -17.6892  -50.8214 C.ar      23 UNK        -0.1150 
     13 C13         0.1697  -18.1710  -49.6444 C.ar      23 UNK        -0.0193 
     14 C14        -1.1987  -17.9763  -49.4254 C.ar      23 UNK        -0.1150 
     15 C15         1.0305  -18.8685  -48.5994 C.3       23 UNK        -0.0205 
     16 S16         0.9354  -20.6825  -48.7042 S.3       23 UNK        -0.2404 
     17 C17        -0.6907  -20.9973  -47.9453 C.3       23 UNK        -0.0398 
     18 CA         -0.7060  -22.2657  -47.0651 C.3       11 UNK         0.1400 
     19 N           0.1012  -22.1376  -45.8458 N.am      11 UNK        -0.5000 
     20 C           0.3655  -23.1547  -45.0120 C.2       10 UNK         0.5000 
     21 O          -0.0040  -24.3116  -45.2095 O.2       10 UNK        -0.5000 
     22 CA          1.1039  -22.8214  -43.7044 C.3       10 UNK         0.1400 
     23 CB          2.6089  -22.6336  -43.9456 C.3       10 UNK        -0.1800 
     24 N           0.5429  -21.6482  -43.0334 N.am      10 UNK        -0.5000 
     25 C          -0.7077  -21.5852  -42.5525 C.2       9 UNK         0.5000 
     26 O          -1.4970  -22.5294  -42.5826 O.2       9 UNK        -0.5000 
     27 CA         -1.1734  -20.2361  -41.9756 C.3       9 UNK         0.1400 
     28 CB         -0.7197  -20.0853  -40.5163 C.3       9 UNK        -0.1800 
     29 N          -0.7119  -19.0881  -42.7561 N.am      9 UNK        -0.5000 
     30 C          -1.0461  -18.8415  -44.0310 C.2       8 UNK         0.5000 
     31 O          -1.8148  -19.5419  -44.6893 O.2       8 UNK        -0.5000 
     32 CA         -0.3491  -17.6457  -44.7061 C.3       8 UNK         0.1400 
     33 CB         -0.9770  -16.3148  -44.2661 C.3       8 UNK        -0.1800 
     34 N           1.0918  -17.6247  -44.4488 N.am      8 UNK        -0.5000 
     35 C           1.9381  -18.6074  -44.7934 C.2       7 UNK         0.5000 
     36 O           1.5990  -19.6201  -45.4044 O.2       7 UNK        -0.5000 
     37 CA          3.3936  -18.4618  -44.3225 C.3       7 UNK         0.1400 
     38 CB          4.1883  -17.5239  -45.2438 C.3       7 UNK        -0.1800 
     39 N           3.4658  -17.9863  -42.9415 N.am      7 UNK        -0.5000 
     40 C           3.1048  -18.7168  -41.8764 C.2       6 UNK         0.5000 
     41 O           2.7230  -19.8847  -41.9455 O.2       6 UNK        -0.5000 
     42 CA          3.1341  -18.0073  -40.5106 C.3       6 UNK         0.1400 
     43 CB          4.5509  -18.0295  -39.9180 C.3       6 UNK        -0.1800 
     44 N           2.6615  -16.6243  -40.5879 N.am      6 UNK        -0.5000 
     45 C           1.4047  -16.2681  -40.8905 C.2       5 UNK         0.5000 
     46 O           0.4975  -17.0730  -41.0939 O.2       5 UNK        -0.5000 
     47 CA          1.1273  -14.7610  -41.0390 C.3       5 UNK         0.1400 
     48 CB          0.7215  -14.1504  -39.6898 C.3       5 UNK        -0.1800 
     49 N           2.2663  -14.0199  -41.5871 N.am      5 UNK        -0.5000 
     50 C           2.7583  -14.1932  -42.8200 C.2       4 UNK         0.5000 
     51 O           2.3131  -15.0127  -43.6289 O.2       4 UNK        -0.5000 
     52 CA          3.9848  -13.3511  -43.1886 C.3       4 UNK         0.1400 
     53 CB          5.2764  -14.1474  -42.9429 C.3       4 UNK        -0.1800 
     54 N           3.8980  -12.9980  -44.5998 N.am      4 UNK        -0.5000 
     55 C           4.0762  -11.7724  -45.1069 C.2       3 UNK         0.5000 
     56 O           4.4341  -10.8029  -44.4362 O.2       3 UNK        -0.5000 
     57 CA          3.8135  -11.5827  -46.6172 C.3       3 UNK         0.1400 
     58 CB          5.1412  -11.4339  -47.3770 C.3       3 UNK        -0.1800 
     59 N           3.0357  -12.6595  -47.2392 N.am      3 UNK        -0.5000 
     60 C           1.7510  -12.9332  -46.9783 C.2       2 UNK         0.5000 
     61 O           1.0688  -12.2979  -46.1709 O.2       2 UNK        -0.5000 
     62 CA          1.1591  -14.1429  -47.7223 C.3       2 UNK         0.1400 
     63 CB          1.8548  -15.4378  -47.2790 C.3       2 UNK        -0.1800 
     64 N          -0.2651  -14.2714  -47.4303 N.am      2 UNK        -0.5000 
     65 C          -1.2641  -13.8932  -48.2364 C.2       1 UNK         0.5000 
     66 O          -1.0978  -13.4481  -49.3730 O.2       1 UNK        -0.5000 
     67 C          -2.1615  -22.6623  -46.7532 C.2       11 UNK         0.5000 
     68 O          -2.7137  -23.5072  -47.4576 O.2       11 UNK        -0.5000 
     69 N          -2.7614  -22.0689  -45.7114 N.am      12 UNK        -0.5000 
     70 CA         -4.1131  -22.3908  -45.2464 C.3       12 UNK         0.1400 
     71 CB         -4.5292  -21.4252  -44.1280 C.3       12 UNK        -0.1800 
     72 C          -4.2589  -23.8557  -44.7960 C.2       12 UNK         0.5000 
     73 O          -5.2708  -24.4852  -45.1033 O.2       12 UNK        -0.5000 
     74 N          -3.2359  -24.3746  -44.1067 N.am      13 UNK        -0.5000 
     75 CA         -3.1646  -25.7594  -43.6541 C.3       13 UNK         0.1400 
     76 CB         -2.1117  -25.8754  -42.5400 C.3       13 UNK        -0.1800 
     77 C          -2.8653  -26.7456  -44.7979 C.2       13 UNK         0.5000 
     78 O          -3.6043  -27.7159  -44.9694 O.2       13 UNK        -0.5000 
     79 N          -1.7709  -26.5076  -45.5330 N.am      14 UNK        -0.5000 
     80 CA         -1.1975  -27.4781  -46.4672 C.3       14 UNK         0.1400 
     81 CB          0.3194  -27.2494  -46.5597 C.3       14 UNK        -0.1800 
     82 C          -1.8175  -27.4410  -47.8728 C.2       14 UNK         0.5000 
     83 O          -1.8854  -28.4871  -48.5199 O.2       14 UNK        -0.5000 
     84 N          -2.2238  -26.2528  -48.3362 N.am      15 UNK        -0.5000 
     85 CA         -2.6556  -26.0057  -49.7152 C.3       15 UNK         0.1400 
     86 CB         -1.6758  -25.0085  -50.3624 C.3       15 UNK        -0.1800 
     87 C          -4.1012  -25.4875  -49.8002 C.2       15 UNK         0.5000 
     88 O          -4.5283  -25.0952  -50.8863 O.2       15 UNK        -0.5000 
     89 N          -4.8187  -25.4464  -48.6662 N.am      16 UNK        -0.5000 
     90 CA         -6.1750  -24.9022  -48.5040 C.3       16 UNK         0.1400 
     91 CB         -7.2069  -25.7970  -49.2219 C.3       16 UNK        -0.1800 
     92 C          -6.2810  -23.4147  -48.9145 C.2       16 UNK         0.5000 
     93 O          -7.3079  -22.9901  -49.4457 O.2       16 UNK        -0.5000 
     94 N          -5.1917  -22.6651  -48.6840 N.am      17 UNK        -0.5000 
     95 CA         -4.9593  -21.2667  -49.0646 C.3       17 UNK         0.1400 
     96 CB         -5.9847  -20.3201  -48.4062 C.3       17 UNK        -0.1800 
     97 C          -4.8328  -21.0539  -50.5886 C.2       17 UNK         0.5000 
     98 O          -4.9931  -19.9268  -51.0579 O.2       17 UNK        -0.5000 
     99 N          -4.5258  -22.1297  -51.3296 N.am      18 UNK        -0.5000 
    100 CA        -4.3118  -22.2292  -52.7771 C.3       18 UNK         0.1400 
    101 CB        -3.1327  -21.3497  -53.2413 C.3       18 UNK        -0.1800 
    102 C         -5.5755  -21.9735  -53.6190 C.2       18 UNK         0.5000 
    103 O         -5.9590  -22.8404  -54.4049 O.2       18 UNK        -0.5000 
    104 N         -6.1817  -20.7889  -53.4512 N.am      19 UNK        -0.5000 
    105 CA        -7.3532  -20.2623  -54.1658 C.3       19 UNK         0.1400 
    106 CB        -8.6178  -21.0589  -53.7846 C.3       19 UNK        -0.1800 
    107 C         -7.1510  -20.1590  -55.6963 C.2       19 UNK         0.5000 
    108 O         -8.1210  -20.2071  -56.4552 O.2       19 UNK        -0.5000 
    109 N         -5.8899  -20.0219  -56.1180 N.am      20 UNK        -0.5000 
    110 CA        -5.4015  -20.0252  -57.4915 C.3       20 UNK         0.1400 
    111 CB        -5.5770  -21.4281  -58.1141 C.3       20 UNK        -0.1800 
    112 C         -3.9218  -19.6025  -57.4650 C.2       20 UNK         0.5000 
    113 O         -3.3990  -19.2698  -56.3949 O.2       20 UNK        -0.5000 
    114 N         -3.2709  -19.6347  -58.6367 N.am      21 UNK        -0.5000 
    115 CA        -1.8550  -19.3307  -58.8673 C.3       21 UNK         0.1400 
    116 CB        -0.9572  -20.4177  -58.2316 C.3       21 UNK        -0.1800 
    117 C         -1.5084  -17.8922  -58.4336 C.2       21 UNK         0.5000 
    118 O         -1.9426  -16.9479  -59.0958 O.2       21 UNK        -0.5000 
    119 N         -0.7574  -17.7486  -57.3359 N.am      22 UNK        -0.5000 
    120 CA        -0.4283  -16.4628  -56.7055 C.3       22 UNK         0.1400 
    121 C         -1.6133  -15.7782  -55.9573 C.2       22 UNK         0.5000 
    122 N         -2.7262  -16.4573  -55.7008 N.am      22 UNK        -0.7600 
    123 O         -1.5217  -14.6029  -55.6138 O.2       22 UNK        -0.5000 
    124 C124        0.8405  -16.5793  -55.8210 C.3       23 UNK        -0.0398 
    125 S125        0.6373  -17.6866  -54.3788 S.3       23 UNK        -0.2404 
    126 C126        0.6107  -16.4621  -53.0339 C.3       23 UNK        -0.0205 
    127 H127       -1.4847  -12.2062  -43.7541 H         1 UNK         0.0600 
    128 H128       -2.6510  -13.5283  -43.6667 H         1 UNK         0.0600 
    129 H129       -3.2168  -11.8559  -43.7138 H         1 UNK         0.0600 
    130 H130       -2.8767  -14.5673  -45.6183 H         1 UNK         0.3000 
    131 H131       -3.2910  -13.2132  -48.1092 H         1 UNK         0.0600 
    132 H132       -2.6825  -16.1903  -47.7546 H         1 UNK         0.0800 
    133 H133       -4.2323  -15.5122  -47.3540 H         1 UNK         0.0800 
    134 H134       -4.0050  -17.4239  -51.0885 H         1 UNK         0.0800 
    135 H135       -3.8486  -17.8578  -49.4078 H         1 UNK         0.0800 
    136 H136       -2.0012  -16.3547  -52.2950 H         1 UNK         0.1150 
    137 H137        1.8094  -17.8237  -50.9936 H         1 UNK         0.1150 
    138 H138       -1.6552  -18.3310  -48.5140 H         1 UNK         0.1150 
    139 H139        2.0739  -18.5714  -48.7141 H         1 UNK         0.0800 
    140 H140        0.7351  -18.5428  -47.6043 H         1 UNK         0.0800 
    141 H141       -1.4090  -21.0767  -48.7639 H         1 UNK         0.0800 
    142 H142       -0.9942  -20.1394  -47.3446 H         1 UNK         0.0800 
    143 H143       -0.2799  -23.0841  -47.6501 H         1 UNK         0.0600 
    144 H144        0.4755  -21.2163  -45.6342 H         1 UNK         0.3000 
    145 H145        0.9799  -23.6730  -43.0320 H         1 UNK         0.0600 
    146 H146        3.1391  -22.4593  -43.0094 H         1 UNK         0.0600 
    147 H147        3.0421  -23.5236  -44.4036 H         1 UNK         0.0600 
    148 H148        2.8147  -21.7938  -44.6080 H         1 UNK         0.0600 
    149 H149        1.1522  -20.8444  -42.9315 H         1 UNK         0.3000 
    150 H150       -2.2647  -20.2276  -41.9916 H         1 UNK         0.0600 
    151 H151       -1.1215  -19.1748  -40.0713 H         1 UNK         0.0600 
    152 H152       -1.0655  -20.9236  -39.9104 H         1 UNK         0.0600 
    153 H153        0.3668  -20.0457  -40.4346 H         1 UNK         0.0600 
    154 H154       -0.1061  -18.4294  -42.2734 H         1 UNK         0.3000 
    155 H155       -0.4919  -17.7423  -45.7834 H         1 UNK         0.0600 
    156 H156       -0.9254  -16.1811  -43.1862 H         1 UNK         0.0600 
    157 H157       -2.0295  -16.2745  -44.5471 H         1 UNK         0.0600 
    158 H158       -0.4749  -15.4654  -44.7281 H         1 UNK         0.0600 
    159 H159        1.4624  -16.8100  -43.9704 H         1 UNK         0.3000 
    160 H160        3.8570  -19.4496  -44.3694 H         1 UNK         0.0600 
    161 H161        3.8180  -16.5005  -45.2037 H         1 UNK         0.0600 
    162 H162        4.1277  -17.8539  -46.2817 H         1 UNK         0.0600 
    163 H163        5.2431  -17.5066  -44.9695 H         1 UNK         0.0600 
    164 H164        3.7181  -17.0193  -42.8049 H         1 UNK         0.3000 
    165 H165        2.4723  -18.5551  -39.8363 H         1 UNK         0.0600 
    166 H166        4.5663  -17.5973  -38.9173 H         1 UNK         0.0600 
    167 H167        4.9227  -19.0517  -39.8351 H         1 UNK         0.0600 
    168 H168        5.2566  -17.4724  -40.5357 H         1 UNK         0.0600 
    169 H169        3.3430  -15.8973  -40.4296 H         1 UNK         0.3000 
    170 H170        0.2898  -14.6454  -41.7298 H         1 UNK         0.0600 
    171 H171       -0.1396  -14.6717  -39.2692 H         1 UNK         0.0600 
    172 H172        1.5299  -14.2097  -38.9600 H         1 UNK         0.0600 
    173 H173        0.4429  -13.1022  -39.7991 H         1 UNK         0.0600 
    174 H174        2.6913  -13.3347  -40.9788 H         1 UNK         0.3000 
    175 H175        3.9908  -12.4539  -42.5661 H         1 UNK         0.0600 
    176 H176        5.3101  -15.0584  -43.5418 H         1 UNK         0.0600 
    177 H177        6.1555  -13.5530  -43.1923 H         1 UNK         0.0600 
    178 H178        5.3669  -14.4371  -41.8953 H         1 UNK         0.0600 
    179 H179        3.5342  -13.7251  -45.1994 H         1 UNK         0.3000 
    180 H180        3.2499  -10.6543  -46.7309 H         1 UNK         0.0600 
    181 H181        5.7439  -12.3408  -47.3140 H         1 UNK         0.0600 
    182 H182        5.7366  -10.6157  -46.9696 H         1 UNK         0.0600 
    183 H183        4.9712  -11.2144  -48.4313 H         1 UNK         0.0600 
    184 H184        3.5295  -13.2304  -47.9101 H         1 UNK         0.3000 
    185 H185        1.3201  -14.0043  -48.7934 H         1 UNK         0.0600 
    186 H186        2.9151  -15.4361  -47.5331 H         1 UNK         0.0600 
    187 H187        1.7704  -15.5876  -46.2037 H         1 UNK         0.0600 
    188 H188        1.4090  -16.2975  -47.7713 H         1 UNK         0.0600 
    189 H189       -0.4945  -14.5097  -46.4782 H         1 UNK         0.3000 
    190 H190       -2.2717  -21.3324  -45.2099 H         1 UNK         0.3000 
    191 H191       -4.7976  -22.2357  -46.0793 H         1 UNK         0.0600 
    192 H192       -4.4839  -20.3891  -44.4639 H         1 UNK         0.0600 
    193 H193       -5.5538  -21.6186  -43.8085 H         1 UNK         0.0600 
    194 H194       -3.8902  -21.5227  -43.2514 H         1 UNK         0.0600 
    195 H195       -2.4632  -23.7684  -43.8494 H         1 UNK         0.3000 
    196 H196       -4.1318  -26.0308  -43.2255 H         1 UNK         0.0600 
    197 H197       -2.0319  -26.9022  -42.1811 H         1 UNK         0.0600 
    198 H198       -2.3747  -25.2512  -41.6858 H         1 UNK         0.0600 
    199 H199       -1.1230  -25.5675  -42.8826 H         1 UNK         0.0600 
    200 H200       -1.2112  -25.6774  -45.3450 H         1 UNK         0.3000 
    201 H201       -1.3520  -28.4828  -46.0671 H         1 UNK         0.0600 
    202 H202        0.7882  -27.3031  -45.5770 H         1 UNK         0.0600 
    203 H203        0.5543  -26.2752  -46.9903 H         1 UNK         0.0600 
    204 H204        0.7912  -28.0064  -47.1875 H         1 UNK         0.0600 
    205 H205       -2.1704  -25.4347  -47.7382 H         1 UNK         0.3000 
    206 H206       -2.6292  -26.9264  -50.3009 H         1 UNK         0.0600 
    207 H207       -0.6509  -25.3767  -50.3136 H         1 UNK         0.0600 
    208 H208       -1.9108  -24.8511  -51.4158 H         1 UNK         0.0600 
    209 H209       -1.7043  -24.0347  -49.8732 H         1 UNK         0.0600 
    210 H210       -4.3704  -25.7682  -47.8199 H         1 UNK         0.3000 
    211 H211       -6.3987  -24.9390  -47.4381 H         1 UNK         0.0600 
    212 H212       -7.0916  -25.7608  -50.3056 H         1 UNK         0.0600 
    213 H213       -8.2253  -25.4821  -48.9913 H         1 UNK         0.0600 
    214 H214       -7.1121  -26.8367  -48.9087 H         1 UNK         0.0600 
    215 H215       -4.3906  -23.1302  -48.2633 H         1 UNK         0.3000 
    216 H216       -3.9822  -21.0095  -48.6551 H         1 UNK         0.0600 
    217 H217       -5.7025  -19.2768  -48.5488 H         1 UNK         0.0600 
    218 H218       -6.0501  -20.4908  -47.3319 H         1 UNK         0.0600 
    219 H219       -6.9821  -20.4440  -48.8282 H         1 UNK         0.0600 
    220 H220       -4.4950  -23.0255  -50.8558 H         1 UNK         0.3000 
    221 H221       -4.0251  -23.2668  -52.9556 H         1 UNK         0.0600 
    222 H222       -3.3251  -20.2864  -53.0965 H         1 UNK         0.0600 
    223 H223       -2.2199  -21.5992  -52.7004 H         1 UNK         0.0600 
    224 H224       -2.9322  -21.4980  -54.3032 H         1 UNK         0.0600 
    225 H225       -5.7895  -20.1840  -52.7327 H         1 UNK         0.3000 
    226 H226       -7.4883  -19.2399  -53.8109 H         1 UNK         0.0600 
    227 H227       -8.7391  -21.1107  -52.7025 H         1 UNK         0.0600 
    228 H228       -9.5150  -20.5885  -54.1883 H         1 UNK         0.0600 
    229 H229       -8.5831  -22.0794  -54.1672 H         1 UNK         0.0600 
    230 H230       -5.1500  -19.9266  -55.4328 H         1 UNK         0.3000 
    231 H231       -5.9599  -19.2869  -58.0697 H         1 UNK         0.0600 
    232 H232       -5.0129  -22.1812  -57.5622 H         1 UNK         0.0600 
    233 H233       -5.2373  -21.4542  -59.1497 H         1 UNK         0.0600 
    234 H234       -6.6218  -21.7375  -58.1212 H         1 UNK         0.0600 
    235 H235       -3.7948  -19.8813  -59.4645 H         1 UNK         0.3000 
    236 H236       -1.6990  -19.3690  -59.9465 H         1 UNK         0.0600 
    237 H237       -1.0858  -20.4875  -57.1510 H         1 UNK         0.0600 
    238 H238       -1.1828  -21.3984  -58.6505 H         1 UNK         0.0600 
    239 H239        0.0973  -20.2209  -58.4294 H         1 UNK         0.0600 
    240 H240       -0.4834  -18.5737  -56.8225 H         1 UNK         0.3000 
    241 H241       -0.1724  -15.7767  -57.5153 H         1 UNK         0.0600 
    242 H242       -2.8132  -17.4349  -55.9606 H         1 UNK         0.3800 
    243 H243       -3.4847  -15.9990  -55.2232 H         1 UNK         0.3800 
    244 H244        1.6663  -16.9632  -56.4212 H         1 UNK         0.0800 
    245 H245        1.1634  -15.5905  -55.4912 H         1 UNK         0.0800 
    246 H246        0.0579  -15.5758  -53.3493 H         1 UNK         0.0800 
    247 H247        1.6292  -16.1301  -52.8271 H         1 UNK         0.0800 
@<TRIPOS>BOND
     1    1    2 1    
     2    1  127 1    
     3    1  128 1    
     4    1  129 1    
     5    2    3 2    
     6    2    4 am   BACKBONE|DICT|INTERRES
     7    4    5 1    
     8    4  130 1    
     9    5    6 1    
    10    5   65 1    
    11    5  131 1    
    12    6    7 1    
    13    6  132 1    
    14    6  133 1    
    15    7    8 1    
    16    8    9 1    
    17    8  134 1    
    18    8  135 1    
    19    9   10 ar   
    20    9   14 ar   
    21   10   11 ar   
    22   10  136 1    
    23   11   12 ar   
    24   11  126 1    
    25   12   13 ar   
    26   12  137 1    
    27   13   14 ar   
    28   13   15 1    
    29   14  138 1    
    30   15   16 1    
    31   15  139 1    
    32   15  140 1    
    33   16   17 1    
    34   17   18 1    
    35   17  141 1    
    36   17  142 1    
    37   18   19 1    
    38   18   67 1    
    39   18  143 1    
    40   19   20 am   BACKBONE|DICT|INTERRES
    41   19  144 1    
    42   20   21 2    
    43   20   22 1    
    44   22   23 1    
    45   22   24 1    
    46   22  145 1    
    47   23  146 1    
    48   23  147 1    
    49   23  148 1    
    50   24   25 am   BACKBONE|DICT|INTERRES
    51   24  149 1    
    52   25   26 2    
    53   25   27 1    
    54   27   28 1    
    55   27   29 1    
    56   27  150 1    
    57   28  151 1    
    58   28  152 1    
    59   28  153 1    
    60   29   30 am   BACKBONE|DICT|INTERRES
    61   29  154 1    
    62   30   31 2    
    63   30   32 1    
    64   32   33 1    
    65   32   34 1    
    66   32  155 1    
    67   33  156 1    
    68   33  157 1    
    69   33  158 1    
    70   34   35 am   BACKBONE|DICT|INTERRES
    71   34  159 1    
    72   35   36 2    
    73   35   37 1    
    74   37   38 1    
    75   37   39 1    
    76   37  160 1    
    77   38  161 1    
    78   38  162 1    
    79   38  163 1    
    80   39   40 am   BACKBONE|DICT|INTERRES
    81   39  164 1    
    82   40   41 2    
    83   40   42 1    
    84   42   43 1    
    85   42   44 1    
    86   42  165 1    
    87   43  166 1    
    88   43  167 1    
    89   43  168 1    
    90   44   45 am   BACKBONE|DICT|INTERRES
    91   44  169 1    
    92   45   46 2    
    93   45   47 1    
    94   47   48 1    
    95   47   49 1    
    96   47  170 1    
    97   48  171 1    
    98   48  172 1    
    99   48  173 1    
   100   49   50 am   BACKBONE|DICT|INTERRES
   101   49  174 1    
   102   50   51 2    
   103   50   52 1    
   104   52   53 1    
   105   52   54 1    
   106   52  175 1    
   107   53  176 1    
   108   53  177 1    
   109   53  178 1    
   110   54   55 am   BACKBONE|DICT|INTERRES
   111   54  179 1    
   112   55   56 2    
   113   55   57 1    
   114   57   58 1    
   115   57   59 1    
   116   57  180 1    
   117   58  181 1    
   118   58  182 1    
   119   58  183 1    
   120   59   60 am   BACKBONE|DICT|INTERRES
   121   59  184 1    
   122   60   61 2    
   123   60   62 1    
   124   62   63 1    
   125   62   64 1    
   126   62  185 1    
   127   63  186 1    
   128   63  187 1    
   129   63  188 1    
   130   64   65 am   BACKBONE|DICT|INTERRES
   131   64  189 1    
   132   65   66 2    
   133   67   68 2    
   134   67   69 am   BACKBONE|DICT|INTERRES
   135   69   70 1    
   136   69  190 1    
   137   70   71 1    
   138   70   72 1    
   139   70  191 1    
   140   71  192 1    
   141   71  193 1    
   142   71  194 1    
   143   72   73 2    
   144   72   74 am   BACKBONE|DICT|INTERRES
   145   74   75 1    
   146   74  195 1    
   147   75   76 1    
   148   75   77 1    
   149   75  196 1    
   150   76  197 1    
   151   76  198 1    
   152   76  199 1    
   153   77   78 2    
   154   77   79 am   BACKBONE|DICT|INTERRES
   155   79   80 1    
   156   79  200 1    
   157   80   81 1    
   158   80   82 1    
   159   80  201 1    
   160   81  202 1    
   161   81  203 1    
   162   81  204 1    
   163   82   83 2    
   164   82   84 am   BACKBONE|DICT|INTERRES
   165   84   85 1    
   166   84  205 1    
   167   85   86 1    
   168   85   87 1    
   169   85  206 1    
   170   86  207 1    
   171   86  208 1    
   172   86  209 1    
   173   87   88 2    
   174   87   89 am   BACKBONE|DICT|INTERRES
   175   89   90 1    
   176   89  210 1    
   177   90   91 1    
   178   90   92 1    
   179   90  211 1    
   180   91  212 1    
   181   91  213 1    
   182   91  214 1    
   183   92   93 2    
   184   92   94 am   BACKBONE|DICT|INTERRES
   185   94   95 1    
   186   94  215 1    
   187   95   96 1    
   188   95   97 1    
   189   95  216 1    
   190   96  217 1    
   191   96  218 1    
   192   96  219 1    
   193   97   98 2    
   194   97   99 am   BACKBONE|DICT|INTERRES
   195   99  100 1    
   196   99  220 1    
   197  100  101 1    
   198  100  102 1    
   199  100  221 1    
   200  101  222 1    
   201  101  223 1    
   202  101  224 1    
   203  102  103 2    
   204  102  104 am   BACKBONE|DICT|INTERRES
   205  104  105 1    
   206  104  225 1    
   207  105  106 1    
   208  105  107 1    
   209  105  226 1    
   210  106  227 1    
   211  106  228 1    
   212  106  229 1    
   213  107  108 2    
   214  107  109 am   BACKBONE|DICT|INTERRES
   215  109  110 1    
   216  109  230 1    
   217  110  111 1    
   218  110  112 1    
   219  110  231 1    
   220  111  232 1    
   221  111  233 1    
   222  111  234 1    
   223  112  113 2    
   224  112  114 am   BACKBONE|DICT|INTERRES
   225  114  115 1    
   226  114  235 1    
   227  115  116 1    
   228  115  117 1    
   229  115  236 1    
   230  116  237 1    
   231  116  238 1    
   232  116  239 1    
   233  117  118 2    
   234  117  119 am   BACKBONE|DICT|INTERRES
   235  119  120 1    
   236  119  240 1    
   237  120  121 1    
   238  120  124 1    
   239  120  241 1    
   240  121  122 am   BACKBONE|DICT|INTERRES
   241  121  123 2    
   242  122  242 1    
   243  122  243 1    
   244  124  125 1    
   245  124  244 1    
   246  124  245 1    
   247  125  126 1    
   248  126  246 1    
   249  126  247 1    
@<TRIPOS>SUBSTRUCTURE
     1 UNK         1 GROUP             0       ****    0 ROOT    
