@<TRIPOS>MOLECULE
3R540
247   249    1
SMALL
USER_CHARGES


@<TRIPOS>ATOM
      1 CA          0.2690  -10.1272  -46.0404 C.3       0 UNK        -0.1800 
      2 C           1.5204  -10.5201  -46.8117 C.2       0 UNK         0.5000 
      3 O           1.8137   -9.9252  -47.8488 O.2       0 UNK        -0.5000 
      4 N           2.2599  -11.5123  -46.3044 N.am      1 UNK        -0.5000 
      5 CA          3.5531  -11.9493  -46.8424 C.3       1 UNK         0.1400 
      6 C6          3.8617  -13.4223  -46.4865 C.3       23 UNK        -0.0398 
      7 S7          2.6613  -14.5765  -47.2272 S.3       23 UNK        -0.2404 
      8 C8          3.6171  -15.1848  -48.6527 C.3       23 UNK        -0.0205 
      9 C9          2.8755  -16.2734  -49.4147 C.ar      23 UNK        -0.0193 
     10 C10         1.8373  -15.9362  -50.2861 C.ar      23 UNK        -0.1150 
     11 C11         1.1701  -16.9291  -51.0068 C.ar      23 UNK        -0.0193 
     12 C12         1.5554  -18.2643  -50.8612 C.ar      23 UNK        -0.1150 
     13 C13         2.5756  -18.6266  -49.9727 C.ar      23 UNK        -0.0193 
     14 C14         3.2367  -17.6165  -49.2649 C.ar      23 UNK        -0.1150 
     15 C15         3.0033  -20.0808  -49.7406 C.3       23 UNK        -0.0205 
     16 S16         1.8979  -21.3815  -50.4046 S.3       23 UNK        -0.2404 
     17 C17         0.3370  -21.0817  -49.5082 C.3       23 UNK        -0.0398 
     18 CA         -0.0878  -22.2698  -48.5971 C.3       11 UNK         0.1400 
     19 N           0.0799  -21.9630  -47.1707 N.am      11 UNK        -0.5000 
     20 C          -0.1455  -22.8116  -46.1566 C.2       10 UNK         0.5000 
     21 O          -0.4517  -23.9934  -46.3087 O.2       10 UNK        -0.5000 
     22 CA         -0.0752  -22.2326  -44.7304 C.3       10 UNK         0.1400 
     23 CB          1.3762  -22.1562  -44.2350 C.3       10 UNK        -0.1800 
     24 N          -0.7148  -20.9192  -44.6228 N.am      10 UNK        -0.5000 
     25 C          -2.0250  -20.7008  -44.8115 C.2       9 UNK         0.5000 
     26 O          -2.8379  -21.5962  -45.0352 O.2       9 UNK        -0.5000 
     27 CA         -2.5052  -19.2377  -44.8085 C.3       9 UNK         0.1400 
     28 CB         -2.7107  -18.7222  -43.3767 C.3       9 UNK        -0.1800 
     29 N          -1.5942  -18.3490  -45.5270 N.am      9 UNK        -0.5000 
     30 C          -1.3077  -18.4444  -46.8333 C.2       8 UNK         0.5000 
     31 O          -1.8353  -19.2548  -47.5957 O.2       8 UNK        -0.5000 
     32 CA         -0.1941  -17.5204  -47.3526 C.3       8 UNK         0.1400 
     33 CB         -0.7418  -16.1131  -47.6356 C.3       8 UNK        -0.1800 
     34 N           0.9347  -17.4557  -46.4189 N.am      8 UNK        -0.5000 
     35 C           1.7318  -18.4949  -46.1274 C.2       7 UNK         0.5000 
     36 O           1.6219  -19.6002  -46.6536 O.2       7 UNK        -0.5000 
     37 CA          2.7843  -18.3003  -45.0199 C.3       7 UNK         0.1400 
     38 CB          4.1075  -17.7550  -45.5734 C.3       7 UNK        -0.1800 
     39 N           2.3022  -17.4438  -43.9372 N.am      7 UNK        -0.5000 
     40 C           1.3783  -17.8337  -43.0481 C.2       6 UNK         0.5000 
     41 O           0.8711  -18.9552  -43.0413 O.2       6 UNK        -0.5000 
     42 CA          0.9126  -16.7846  -42.0222 C.3       6 UNK         0.1400 
     43 CB          1.8592  -16.7499  -40.8131 C.3       6 UNK        -0.1800 
     44 N           0.7861  -15.4332  -42.5742 N.am      6 UNK        -0.5000 
     45 C          -0.0290  -15.0830  -43.5799 C.2       5 UNK         0.5000 
     46 O          -0.7217  -15.8944  -44.1940 O.2       5 UNK        -0.5000 
     47 CA         -0.0920  -13.5851  -43.9450 C.3       5 UNK         0.1400 
     48 CB         -1.4875  -13.1841  -44.4564 C.3       5 UNK        -0.1800 
     49 N           0.2439  -12.7461  -42.7912 N.am      5 UNK        -0.5000 
     50 C           1.3842  -12.0707  -42.6158 C.2       4 UNK         0.5000 
     51 O           2.2955  -12.0256  -43.4492 O.2       4 UNK        -0.5000 
     52 CA          1.5279  -11.3475  -41.2676 C.3       4 UNK         0.1400 
     53 CB          1.6942  -12.3520  -40.1130 C.3       4 UNK        -0.1800 
     54 N           2.6929  -10.4733  -41.3107 N.am      4 UNK        -0.5000 
     55 C           2.7994   -9.2705  -40.7342 C.2       3 UNK         0.5000 
     56 O           1.9176   -8.7683  -40.0359 O.2       3 UNK        -0.5000 
     57 CA          4.1125   -8.4924  -40.9712 C.3       3 UNK         0.1400 
     58 CB          4.9900   -8.5226  -39.7099 C.3       3 UNK        -0.1800 
     59 N           4.8953   -9.0028  -42.1011 N.am      3 UNK        -0.5000 
     60 C           4.5616   -8.8573  -43.3899 C.2       2 UNK         0.5000 
     61 O           3.5842   -8.2100  -43.7694 O.2       2 UNK        -0.5000 
     62 CA          5.4155   -9.5987  -44.4299 C.3       2 UNK         0.1400 
     63 CB          6.6436  -10.3378  -43.8539 C.3       2 UNK        -0.1800 
     64 N           4.5303  -10.5421  -45.0981 N.am      2 UNK        -0.5000 
     65 C           4.6819  -11.0315  -46.3331 C.2       1 UNK         0.5000 
     66 O           5.6441  -10.7807  -47.0601 O.2       1 UNK        -0.5000 
     67 C          -1.5311  -22.7174  -48.9145 C.2       11 UNK         0.5000 
     68 O          -1.7233  -23.7393  -49.5746 O.2       11 UNK        -0.5000 
     69 N          -2.5179  -21.9597  -48.4151 N.am      12 UNK        -0.5000 
     70 CA         -3.9406  -22.2668  -48.5494 C.3       12 UNK         0.1400 
     71 CB         -4.7802  -21.0778  -48.0620 C.3       12 UNK        -0.1800 
     72 C          -4.3415  -23.5646  -47.8277 C.2       12 UNK         0.5000 
     73 O          -5.0697  -24.3696  -48.4066 O.2       12 UNK        -0.5000 
     74 N          -3.8352  -23.7671  -46.6034 N.am      13 UNK        -0.5000 
     75 CA         -4.0516  -24.9727  -45.8013 C.3       13 UNK         0.1400 
     76 CB         -3.4811  -24.7709  -44.3900 C.3       13 UNK        -0.1800 
     77 C          -3.4650  -26.2375  -46.4525 C.2       13 UNK         0.5000 
     78 O          -4.1377  -27.2682  -46.4803 O.2       13 UNK        -0.5000 
     79 N          -2.2522  -26.1282  -47.0143 N.am      14 UNK        -0.5000 
     80 CA         -1.5847  -27.1893  -47.7750 C.3       14 UNK         0.1400 
     81 CB         -0.1483  -26.7558  -48.1037 C.3       14 UNK        -0.1800 
     82 C          -2.3419  -27.5780  -49.0603 C.2       14 UNK         0.5000 
     83 O          -2.3298  -28.7473  -49.4456 O.2       14 UNK        -0.5000 
     84 N          -3.0198  -26.5988  -49.6716 N.am      15 UNK        -0.5000 
     85 CA         -3.9055  -26.7697  -50.8226 C.3       15 UNK         0.1400 
     86 CB         -3.9062  -25.4639  -51.6296 C.3       15 UNK        -0.1800 
     87 C          -5.3449  -27.1695  -50.4337 C.2       15 UNK         0.5000 
     88 O          -6.2025  -27.2287  -51.3154 O.2       15 UNK        -0.5000 
     89 N          -5.6073  -27.3972  -49.1362 N.am      16 UNK        -0.5000 
     90 CA         -6.8988  -27.7581  -48.5363 C.3       16 UNK         0.1400 
     91 CB         -7.3050  -29.1854  -48.9578 C.3       16 UNK        -0.1800 
     92 C          -8.0130  -26.7190  -48.7954 C.2       16 UNK         0.5000 
     93 O          -9.1865  -27.0832  -48.8880 O.2       16 UNK        -0.5000 
     94 N          -7.6143  -25.4450  -48.9293 N.am      17 UNK        -0.5000 
     95 CA         -8.4261  -24.2744  -49.2754 C.3       17 UNK         0.1400 
     96 CB         -9.4432  -23.9639  -48.1578 C.3       17 UNK        -0.1800 
     97 C          -9.0769  -24.3433  -50.6766 C.2       17 UNK         0.5000 
     98 O         -10.0308  -23.6065  -50.9343 O.2       17 UNK        -0.5000 
     99 N          -8.5539  -25.2068  -51.5594 N.am      18 UNK        -0.5000 
    100 CA        -8.9901  -25.3582  -52.9445 C.3       18 UNK         0.1400 
    101 CB        -8.9897  -26.8562  -53.3116 C.3       18 UNK        -0.1800 
    102 C         -8.1052  -24.4826  -53.8524 C.2       18 UNK         0.5000 
    103 O         -8.1624  -23.2551  -53.7521 O.2       18 UNK        -0.5000 
    104 N         -7.3007  -25.1083  -54.7210 N.am      19 UNK        -0.5000 
    105 CA        -6.3954  -24.4609  -55.6723 C.3       19 UNK         0.1400 
    106 CB        -6.0915  -25.4518  -56.8107 C.3       19 UNK        -0.1800 
    107 C         -5.1172  -23.9328  -54.9868 C.2       19 UNK         0.5000 
    108 O         -4.0185  -24.4236  -55.2541 O.2       19 UNK        -0.5000 
    109 N         -5.2915  -22.9578  -54.0870 N.am      20 UNK        -0.5000 
    110 CA        -4.2232  -22.2699  -53.3651 C.3       20 UNK         0.1400 
    111 CB        -4.8484  -21.3692  -52.2886 C.3       20 UNK        -0.1800 
    112 C         -3.3259  -21.4463  -54.3050 C.2       20 UNK         0.5000 
    113 O         -3.8210  -20.8503  -55.2659 O.2       20 UNK        -0.5000 
    114 N         -2.0280  -21.3901  -53.9772 N.am      21 UNK        -0.5000 
    115 CA        -0.9859  -20.6903  -54.7380 C.3       21 UNK         0.1400 
    116 CB         0.3748  -20.9680  -54.0809 C.3       21 UNK        -0.1800 
    117 C         -1.2115  -19.1716  -54.8824 C.2       21 UNK         0.5000 
    118 O         -0.7039  -18.5707  -55.8299 O.2       21 UNK        -0.5000 
    119 N         -1.9762  -18.5877  -53.9526 N.am      22 UNK        -0.5000 
    120 CA        -2.4052  -17.1819  -53.9721 C.3       22 UNK         0.1400 
    121 C         -3.5591  -16.8803  -54.9752 C.2       22 UNK         0.5000 
    122 N         -4.1868  -17.8715  -55.5997 N.am      22 UNK        -0.7600 
    123 O         -3.8883  -15.7182  -55.1967 O.2       22 UNK        -0.5000 
    124 C124       -2.7607  -16.6640  -52.5513 C.3       23 UNK        -0.0398 
    125 S125       -1.5689  -17.0933  -51.2317 S.3       23 UNK        -0.2404 
    126 C126        0.0263  -16.5737  -51.9404 C.3       23 UNK        -0.0205 
    127 H127        0.1950   -9.0419  -45.9702 H         1 UNK         0.0600 
    128 H128        0.2797  -10.5267  -45.0269 H         1 UNK         0.0600 
    129 H129       -0.6194  -10.4998  -46.5499 H         1 UNK         0.0600 
    130 H130        2.0029  -11.9211  -45.4131 H         1 UNK         0.3000 
    131 H131        3.5323  -11.8649  -47.9313 H         1 UNK         0.0600 
    132 H132        4.8673  -13.6963  -46.8110 H         1 UNK         0.0800 
    133 H133        3.8463  -13.5661  -45.4045 H         1 UNK         0.0800 
    134 H134        3.8324  -14.3520  -49.3238 H         1 UNK         0.0800 
    135 H135        4.5816  -15.5616  -48.3090 H         1 UNK         0.0800 
    136 H136        1.5467  -14.9008  -50.3959 H         1 UNK         0.1150 
    137 H137        1.0317  -19.0146  -51.4326 H         1 UNK         0.1150 
    138 H138        4.0377  -17.8797  -48.5900 H         1 UNK         0.1150 
    139 H139        3.9883  -20.2180  -50.1879 H         1 UNK         0.0800 
    140 H140        3.1293  -20.2561  -48.6719 H         1 UNK         0.0800 
    141 H141       -0.4109  -20.8557  -50.2713 H         1 UNK         0.0800 
    142 H142        0.4208  -20.1629  -48.9309 H         1 UNK         0.0800 
    143 H143        0.5504  -23.1308  -48.8062 H         1 UNK         0.0600 
    144 H144        0.4001  -21.0242  -46.9481 H         1 UNK         0.3000 
    145 H145       -0.6151  -22.9142  -44.0703 H         1 UNK         0.0600 
    146 H146        1.4257  -21.7785  -43.2136 H         1 UNK         0.0600 
    147 H147        1.8396  -23.1435  -44.2401 H         1 UNK         0.0600 
    148 H148        1.9863  -21.5077  -44.8622 H         1 UNK         0.0600 
    149 H149       -0.1168  -20.1358  -44.3831 H         1 UNK         0.3000 
    150 H150       -3.4688  -19.2047  -45.3209 H         1 UNK         0.0600 
    151 H151       -3.4268  -19.3441  -42.8384 H         1 UNK         0.0600 
    152 H152       -3.0982  -17.7032  -43.3768 H         1 UNK         0.0600 
    153 H153       -1.7815  -18.7250  -42.8076 H         1 UNK         0.0600 
    154 H154       -1.1442  -17.6156  -44.9862 H         1 UNK         0.3000 
    155 H155        0.1689  -17.9301  -48.2956 H         1 UNK         0.0600 
    156 H156        0.0089  -15.4827  -48.1086 H         1 UNK         0.0600 
    157 H157       -1.0781  -15.6132  -46.7295 H         1 UNK         0.0600 
    158 H158       -1.5935  -16.1588  -48.3148 H         1 UNK         0.0600 
    159 H159        1.0673  -16.5843  -45.9287 H         1 UNK         0.3000 
    160 H160        2.9956  -19.2856  -44.5989 H         1 UNK         0.0600 
    161 H161        4.5026  -18.4115  -46.3489 H         1 UNK         0.0600 
    162 H162        4.8634  -17.6916  -44.7906 H         1 UNK         0.0600 
    163 H163        3.9924  -16.7633  -46.0049 H         1 UNK         0.0600 
    164 H164        2.6689  -16.5051  -43.8856 H         1 UNK         0.3000 
    165 H165       -0.0756  -17.0892  -41.6712 H         1 UNK         0.0600 
    166 H166        2.8586  -16.4142  -41.0925 H         1 UNK         0.0600 
    167 H167        1.4848  -16.0811  -40.0377 H         1 UNK         0.0600 
    168 H168        1.9580  -17.7401  -40.3661 H         1 UNK         0.0600 
    169 H169        1.3254  -14.7094  -42.1246 H         1 UNK         0.3000 
    170 H170        0.6227  -13.4282  -44.7546 H         1 UNK         0.0600 
    171 H171       -1.7364  -13.7097  -45.3786 H         1 UNK         0.0600 
    172 H172       -2.2640  -13.4155  -43.7264 H         1 UNK         0.0600 
    173 H173       -1.5419  -12.1175  -44.6711 H         1 UNK         0.0600 
    174 H174       -0.4417  -12.7365  -42.0483 H         1 UNK         0.3000 
    175 H175        0.6242  -10.7548  -41.1108 H         1 UNK         0.0600 
    176 H176        1.8015  -11.8370  -39.1581 H         1 UNK         0.0600 
    177 H177        0.8281  -13.0091  -40.0266 H         1 UNK         0.0600 
    178 H178        2.5741  -12.9816  -40.2515 H         1 UNK         0.0600 
    179 H179        3.4368  -10.7940  -41.9145 H         1 UNK         0.3000 
    180 H180        3.8449   -7.4538  -41.1770 H         1 UNK         0.0600 
    181 H181        5.2950   -9.5386  -39.4561 H         1 UNK         0.0600 
    182 H182        4.4545   -8.1166  -38.8506 H         1 UNK         0.0600 
    183 H183        5.8911   -7.9232  -39.8412 H         1 UNK         0.0600 
    184 H184        5.7113   -9.5520  -41.8718 H         1 UNK         0.3000 
    185 H185        5.7582   -8.8525  -45.1496 H         1 UNK         0.0600 
    186 H186        7.2300  -10.7977  -44.6495 H         1 UNK         0.0600 
    187 H187        7.3091   -9.6513  -43.3290 H         1 UNK         0.0600 
    188 H188        6.3560  -11.1300  -43.1615 H         1 UNK         0.0600 
    189 H189        3.6872  -10.7831  -44.5896 H         1 UNK         0.3000 
    190 H190       -2.2779  -21.1036  -47.9214 H         1 UNK         0.3000 
    191 H191       -4.1460  -22.4111  -49.6110 H         1 UNK         0.0600 
    192 H192       -4.5488  -20.1754  -48.6284 H         1 UNK         0.0600 
    193 H193       -5.8457  -21.2759  -48.1845 H         1 UNK         0.0600 
    194 H194       -4.6037  -20.8640  -47.0077 H         1 UNK         0.0600 
    195 H195       -3.2880  -23.0269  -46.1707 H         1 UNK         0.3000 
    196 H196       -5.1301  -25.1185  -45.7114 H         1 UNK         0.0600 
    197 H197       -3.6553  -25.6502  -43.7685 H         1 UNK         0.0600 
    198 H198       -3.9516  -23.9228  -43.8924 H         1 UNK         0.0600 
    199 H199       -2.4062  -24.5918  -44.4120 H         1 UNK         0.0600 
    200 H200       -1.7378  -25.2572  -46.9053 H         1 UNK         0.3000 
    201 H201       -1.5369  -28.0758  -47.1394 H         1 UNK         0.0600 
    202 H202        0.4220  -26.5618  -47.1951 H         1 UNK         0.0600 
    203 H203       -0.1308  -25.8487  -48.7088 H         1 UNK         0.0600 
    204 H204        0.3785  -27.5328  -48.6589 H         1 UNK         0.0600 
    205 H205       -2.9429  -25.6587  -49.3024 H         1 UNK         0.3000 
    206 H206       -3.5129  -27.5619  -51.4631 H         1 UNK         0.0600 
    207 H207       -2.8955  -25.1891  -51.9317 H         1 UNK         0.0600 
    208 H208       -4.4992  -25.5653  -52.5388 H         1 UNK         0.0600 
    209 H209       -4.3227  -24.6359  -51.0552 H         1 UNK         0.0600 
    210 H210       -4.8492  -27.2863  -48.4735 H         1 UNK         0.3000 
    211 H211       -6.7406  -27.7650  -47.4572 H         1 UNK         0.0600 
    212 H212       -7.5419  -29.2410  -50.0208 H         1 UNK         0.0600 
    213 H213       -8.1850  -29.5217  -48.4084 H         1 UNK         0.0600 
    214 H214       -6.5059  -29.8983  -48.7542 H         1 UNK         0.0600 
    215 H215       -6.6218  -25.2458  -48.8106 H         1 UNK         0.3000 
    216 H216       -7.7271  -23.4379  -49.3189 H         1 UNK         0.0600 
    217 H217       -8.9541  -23.9067  -47.1853 H         1 UNK         0.0600 
    218 H218      -10.2237  -24.7226  -48.0977 H         1 UNK         0.0600 
    219 H219       -9.9334  -23.0048  -48.3284 H         1 UNK         0.0600 
    220 H220       -7.7641  -25.7771  -51.2781 H         1 UNK         0.3000 
    221 H221      -10.0145  -24.9975  -53.0569 H         1 UNK         0.0600 
    222 H222       -7.9993  -27.3043  -53.2320 H         1 UNK         0.0600 
    223 H223       -9.6534  -27.4153  -52.6516 H         1 UNK         0.0600 
    224 H224       -9.3475  -27.0119  -54.3302 H         1 UNK         0.0600 
    225 H225       -7.2860  -26.1178  -54.7118 H         1 UNK         0.3000 
    226 H226       -6.9046  -23.6008  -56.1123 H         1 UNK         0.0600 
    227 H227       -7.0047  -25.7554  -57.3230 H         1 UNK         0.0600 
    228 H228       -5.4372  -25.0005  -57.5577 H         1 UNK         0.0600 
    229 H229       -5.5987  -26.3523  -56.4419 H         1 UNK         0.0600 
    230 H230       -6.2408  -22.6455  -53.9132 H         1 UNK         0.3000 
    231 H231       -3.6069  -23.0229  -52.8735 H         1 UNK         0.0600 
    232 H232       -4.0792  -20.8841  -51.6859 H         1 UNK         0.0600 
    233 H233       -5.4796  -21.9448  -51.6111 H         1 UNK         0.0600 
    234 H234       -5.4636  -20.5841  -52.7304 H         1 UNK         0.0600 
    235 H235       -1.7103  -21.9034  -53.1681 H         1 UNK         0.3000 
    236 H236       -0.9737  -21.1118  -55.7452 H         1 UNK         0.0600 
    237 H237        1.1820  -20.4720  -54.6217 H         1 UNK         0.0600 
    238 H238        0.4014  -20.6105  -53.0518 H         1 UNK         0.0600 
    239 H239        0.6001  -22.0346  -54.0710 H         1 UNK         0.0600 
    240 H240       -2.3419  -19.1541  -53.2030 H         1 UNK         0.3000 
    241 H241       -1.5626  -16.5886  -54.3304 H         1 UNK         0.0600 
    242 H242       -4.9272  -17.6533  -56.2474 H         1 UNK         0.3800 
    243 H243       -3.9368  -18.8417  -55.4395 H         1 UNK         0.3800 
    244 H244       -2.8691  -15.5781  -52.5650 H         1 UNK         0.0800 
    245 H245       -3.7307  -17.0579  -52.2427 H         1 UNK         0.0800 
    246 H246        0.1972  -17.0693  -52.8959 H         1 UNK         0.0800 
    247 H247        0.0035  -15.5013  -52.1399 H         1 UNK         0.0800 
@<TRIPOS>BOND
     1    1    2 1    
     2    1  127 1    
     3    1  128 1    
     4    1  129 1    
     5    2    3 2    
     6    2    4 am   BACKBONE|DICT|INTERRES
     7    4    5 1    
     8    4  130 1    
     9    5    6 1    
    10    5   65 1    
    11    5  131 1    
    12    6    7 1    
    13    6  132 1    
    14    6  133 1    
    15    7    8 1    
    16    8    9 1    
    17    8  134 1    
    18    8  135 1    
    19    9   10 ar   
    20    9   14 ar   
    21   10   11 ar   
    22   10  136 1    
    23   11   12 ar   
    24   11  126 1    
    25   12   13 ar   
    26   12  137 1    
    27   13   14 ar   
    28   13   15 1    
    29   14  138 1    
    30   15   16 1    
    31   15  139 1    
    32   15  140 1    
    33   16   17 1    
    34   17   18 1    
    35   17  141 1    
    36   17  142 1    
    37   18   19 1    
    38   18   67 1    
    39   18  143 1    
    40   19   20 am   BACKBONE|DICT|INTERRES
    41   19  144 1    
    42   20   21 2    
    43   20   22 1    
    44   22   23 1    
    45   22   24 1    
    46   22  145 1    
    47   23  146 1    
    48   23  147 1    
    49   23  148 1    
    50   24   25 am   BACKBONE|DICT|INTERRES
    51   24  149 1    
    52   25   26 2    
    53   25   27 1    
    54   27   28 1    
    55   27   29 1    
    56   27  150 1    
    57   28  151 1    
    58   28  152 1    
    59   28  153 1    
    60   29   30 am   BACKBONE|DICT|INTERRES
    61   29  154 1    
    62   30   31 2    
    63   30   32 1    
    64   32   33 1    
    65   32   34 1    
    66   32  155 1    
    67   33  156 1    
    68   33  157 1    
    69   33  158 1    
    70   34   35 am   BACKBONE|DICT|INTERRES
    71   34  159 1    
    72   35   36 2    
    73   35   37 1    
    74   37   38 1    
    75   37   39 1    
    76   37  160 1    
    77   38  161 1    
    78   38  162 1    
    79   38  163 1    
    80   39   40 am   BACKBONE|DICT|INTERRES
    81   39  164 1    
    82   40   41 2    
    83   40   42 1    
    84   42   43 1    
    85   42   44 1    
    86   42  165 1    
    87   43  166 1    
    88   43  167 1    
    89   43  168 1    
    90   44   45 am   BACKBONE|DICT|INTERRES
    91   44  169 1    
    92   45   46 2    
    93   45   47 1    
    94   47   48 1    
    95   47   49 1    
    96   47  170 1    
    97   48  171 1    
    98   48  172 1    
    99   48  173 1    
   100   49   50 am   BACKBONE|DICT|INTERRES
   101   49  174 1    
   102   50   51 2    
   103   50   52 1    
   104   52   53 1    
   105   52   54 1    
   106   52  175 1    
   107   53  176 1    
   108   53  177 1    
   109   53  178 1    
   110   54   55 am   BACKBONE|DICT|INTERRES
   111   54  179 1    
   112   55   56 2    
   113   55   57 1    
   114   57   58 1    
   115   57   59 1    
   116   57  180 1    
   117   58  181 1    
   118   58  182 1    
   119   58  183 1    
   120   59   60 am   BACKBONE|DICT|INTERRES
   121   59  184 1    
   122   60   61 2    
   123   60   62 1    
   124   62   63 1    
   125   62   64 1    
   126   62  185 1    
   127   63  186 1    
   128   63  187 1    
   129   63  188 1    
   130   64   65 am   BACKBONE|DICT|INTERRES
   131   64  189 1    
   132   65   66 2    
   133   67   68 2    
   134   67   69 am   BACKBONE|DICT|INTERRES
   135   69   70 1    
   136   69  190 1    
   137   70   71 1    
   138   70   72 1    
   139   70  191 1    
   140   71  192 1    
   141   71  193 1    
   142   71  194 1    
   143   72   73 2    
   144   72   74 am   BACKBONE|DICT|INTERRES
   145   74   75 1    
   146   74  195 1    
   147   75   76 1    
   148   75   77 1    
   149   75  196 1    
   150   76  197 1    
   151   76  198 1    
   152   76  199 1    
   153   77   78 2    
   154   77   79 am   BACKBONE|DICT|INTERRES
   155   79   80 1    
   156   79  200 1    
   157   80   81 1    
   158   80   82 1    
   159   80  201 1    
   160   81  202 1    
   161   81  203 1    
   162   81  204 1    
   163   82   83 2    
   164   82   84 am   BACKBONE|DICT|INTERRES
   165   84   85 1    
   166   84  205 1    
   167   85   86 1    
   168   85   87 1    
   169   85  206 1    
   170   86  207 1    
   171   86  208 1    
   172   86  209 1    
   173   87   88 2    
   174   87   89 am   BACKBONE|DICT|INTERRES
   175   89   90 1    
   176   89  210 1    
   177   90   91 1    
   178   90   92 1    
   179   90  211 1    
   180   91  212 1    
   181   91  213 1    
   182   91  214 1    
   183   92   93 2    
   184   92   94 am   BACKBONE|DICT|INTERRES
   185   94   95 1    
   186   94  215 1    
   187   95   96 1    
   188   95   97 1    
   189   95  216 1    
   190   96  217 1    
   191   96  218 1    
   192   96  219 1    
   193   97   98 2    
   194   97   99 am   BACKBONE|DICT|INTERRES
   195   99  100 1    
   196   99  220 1    
   197  100  101 1    
   198  100  102 1    
   199  100  221 1    
   200  101  222 1    
   201  101  223 1    
   202  101  224 1    
   203  102  103 2    
   204  102  104 am   BACKBONE|DICT|INTERRES
   205  104  105 1    
   206  104  225 1    
   207  105  106 1    
   208  105  107 1    
   209  105  226 1    
   210  106  227 1    
   211  106  228 1    
   212  106  229 1    
   213  107  108 2    
   214  107  109 am   BACKBONE|DICT|INTERRES
   215  109  110 1    
   216  109  230 1    
   217  110  111 1    
   218  110  112 1    
   219  110  231 1    
   220  111  232 1    
   221  111  233 1    
   222  111  234 1    
   223  112  113 2    
   224  112  114 am   BACKBONE|DICT|INTERRES
   225  114  115 1    
   226  114  235 1    
   227  115  116 1    
   228  115  117 1    
   229  115  236 1    
   230  116  237 1    
   231  116  238 1    
   232  116  239 1    
   233  117  118 2    
   234  117  119 am   BACKBONE|DICT|INTERRES
   235  119  120 1    
   236  119  240 1    
   237  120  121 1    
   238  120  124 1    
   239  120  241 1    
   240  121  122 am   BACKBONE|DICT|INTERRES
   241  121  123 2    
   242  122  242 1    
   243  122  243 1    
   244  124  125 1    
   245  124  244 1    
   246  124  245 1    
   247  125  126 1    
   248  126  246 1    
   249  126  247 1    
@<TRIPOS>SUBSTRUCTURE
     1 UNK         1 GROUP             0       ****    0 ROOT    
