@<TRIPOS>MOLECULE
3R540
247   249    1
SMALL
USER_CHARGES


@<TRIPOS>ATOM
      1 CA         -4.6013  -16.6351  -45.5937 C.3       0 UNK        -0.1800 
      2 C          -3.7709  -15.3732  -45.4059 C.2       0 UNK         0.5000 
      3 O          -4.2039  -14.4463  -44.7210 O.2       0 UNK        -0.5000 
      4 N          -2.5712  -15.3382  -45.9970 N.am      1 UNK        -0.5000 
      5 CA         -1.5763  -14.2563  -45.9440 C.3       1 UNK         0.1400 
      6 C6         -0.6038  -14.3074  -47.1601 C.3       23 UNK        -0.0398 
      7 S7         -0.0418  -15.9916  -47.5837 S.3       23 UNK        -0.2404 
      8 C8          1.2221  -15.6876  -48.8496 C.3       23 UNK        -0.0205 
      9 C9          1.5273  -16.9566  -49.6370 C.ar      23 UNK        -0.0193 
     10 C10         0.8867  -17.1835  -50.8586 C.ar      23 UNK        -0.1150 
     11 C11         1.1919  -18.3126  -51.6229 C.ar      23 UNK        -0.0193 
     12 C12         2.1329  -19.2298  -51.1508 C.ar      23 UNK        -0.1150 
     13 C13         2.7717  -19.0277  -49.9249 C.ar      23 UNK        -0.0193 
     14 C14         2.4644  -17.8876  -49.1705 C.ar      23 UNK        -0.1150 
     15 C15         3.8341  -20.0169  -49.4588 C.3       23 UNK        -0.0205 
     16 S16         3.1487  -21.6588  -49.0524 S.3       23 UNK        -0.2404 
     17 C17         2.4017  -21.3154  -47.4281 C.3       23 UNK        -0.0398 
     18 CA          1.1329  -22.1401  -47.0981 C.3       11 UNK         0.1400 
     19 N           0.7407  -21.9510  -45.6969 N.am      11 UNK        -0.5000 
     20 C          -0.2275  -22.6186  -45.0549 C.2       10 UNK         0.5000 
     21 O          -0.8730  -23.5358  -45.5597 O.2       10 UNK        -0.5000 
     22 CA         -0.5626  -22.1575  -43.6216 C.3       10 UNK         0.1400 
     23 CB          0.3988  -22.7859  -42.6024 C.3       10 UNK        -0.1800 
     24 N          -0.5550  -20.7005  -43.4745 N.am      10 UNK        -0.5000 
     25 C          -1.3996  -19.8703  -44.1041 C.2       9 UNK         0.5000 
     26 O          -2.3209  -20.2495  -44.8247 O.2       9 UNK        -0.5000 
     27 CA         -1.1307  -18.3605  -43.9639 C.3       9 UNK         0.1400 
     28 CB         -1.7212  -17.8208  -42.6556 C.3       9 UNK        -0.1800 
     29 N           0.2930  -18.0265  -44.0602 N.am      9 UNK        -0.5000 
     30 C           1.0497  -18.3106  -45.1309 C.2       8 UNK         0.5000 
     31 O           0.6039  -18.8298  -46.1518 O.2       8 UNK        -0.5000 
     32 CA          2.5630  -18.0634  -45.0158 C.3       8 UNK         0.1400 
     33 CB          2.9230  -16.5905  -45.2504 C.3       8 UNK        -0.1800 
     34 N           3.0710  -18.5061  -43.7194 N.am      8 UNK        -0.5000 
     35 C           3.1912  -19.7928  -43.3624 C.2       7 UNK         0.5000 
     36 O           2.9498  -20.7325  -44.1186 O.2       7 UNK        -0.5000 
     37 CA          3.6127  -20.0777  -41.9085 C.3       7 UNK         0.1400 
     38 CB          5.1432  -20.1281  -41.7926 C.3       7 UNK        -0.1800 
     39 N           3.0906  -19.0856  -40.9680 N.am      7 UNK        -0.5000 
     40 C           1.7919  -18.9194  -40.6774 C.2       6 UNK         0.5000 
     41 O           0.8987  -19.6453  -41.1132 O.2       6 UNK        -0.5000 
     42 CA          1.4341  -17.6955  -39.8087 C.3       6 UNK         0.1400 
     43 CB          1.4891  -18.0542  -38.3168 C.3       6 UNK        -0.1800 
     44 N           2.3137  -16.5495  -40.0703 N.am      6 UNK        -0.5000 
     45 C           2.3634  -15.9028  -41.2419 C.2       5 UNK         0.5000 
     46 O           1.6086  -16.1532  -42.1833 O.2       5 UNK        -0.5000 
     47 CA          3.5041  -14.8936  -41.4255 C.3       5 UNK         0.1400 
     48 CB          4.8173  -15.6552  -41.7123 C.3       5 UNK        -0.1800 
     49 N           3.1788  -13.9862  -42.5252 N.am      5 UNK        -0.5000 
     50 C           3.8922  -12.9128  -42.8922 C.2       4 UNK         0.5000 
     51 O           4.9355  -12.5576  -42.3423 O.2       4 UNK        -0.5000 
     52 CA          3.3228  -12.0629  -44.0398 C.3       4 UNK         0.1400 
     53 CB          3.3753  -12.8052  -45.3854 C.3       4 UNK        -0.1800 
     54 N           1.9521  -11.6577  -43.7384 N.am      4 UNK        -0.5000 
     55 C           1.6385  -10.6194  -42.9473 C.2       3 UNK         0.5000 
     56 O           2.4698   -9.8313  -42.4944 O.2       3 UNK        -0.5000 
     57 CA          0.1521  -10.4230  -42.5860 C.3       3 UNK         0.1400 
     58 CB         -0.5044   -9.4127  -43.5391 C.3       3 UNK        -0.1800 
     59 N          -0.6166  -11.6662  -42.6102 N.am      3 UNK        -0.5000 
     60 C          -0.4366  -12.7028  -41.7800 C.2       2 UNK         0.5000 
     61 O           0.3352  -12.6873  -40.8209 O.2       2 UNK        -0.5000 
     62 CA         -1.2302  -13.9846  -42.0939 C.3       2 UNK         0.1400 
     63 CB         -2.4626  -14.0943  -41.1839 C.3       2 UNK        -0.1800 
     64 N          -1.6607  -14.0988  -43.4920 N.am      2 UNK        -0.5000 
     65 C          -0.8655  -14.1612  -44.5692 C.2       1 UNK         0.5000 
     66 O           0.3624  -14.1003  -44.4959 O.2       1 UNK        -0.5000 
     67 C          -0.0393  -21.8492  -48.0631 C.2       11 UNK         0.5000 
     68 O          -0.3310  -22.6725  -48.9317 O.2       11 UNK        -0.5000 
     69 N          -0.7303  -20.7200  -47.8545 N.am      12 UNK        -0.5000 
     70 CA         -1.9326  -20.3468  -48.5984 C.3       12 UNK         0.1400 
     71 CB         -2.3068  -18.8924  -48.2908 C.3       12 UNK        -0.1800 
     72 C          -3.1185  -21.2904  -48.3304 C.2       12 UNK         0.5000 
     73 O          -3.8212  -21.6524  -49.2737 O.2       12 UNK        -0.5000 
     74 N          -3.3129  -21.7033  -47.0695 N.am      13 UNK        -0.5000 
     75 CA         -4.3408  -22.6639  -46.6573 C.3       13 UNK         0.1400 
     76 CB         -4.3941  -22.7587  -45.1264 C.3       13 UNK        -0.1800 
     77 C          -4.1462  -24.0564  -47.2845 C.2       13 UNK         0.5000 
     78 O          -5.1261  -24.6651  -47.7140 O.2       13 UNK        -0.5000 
     79 N          -2.8882  -24.5083  -47.3906 N.am      14 UNK        -0.5000 
     80 CA         -2.4943  -25.7327  -48.0953 C.3       14 UNK         0.1400 
     81 CB         -1.0156  -26.0346  -47.8103 C.3       14 UNK        -0.1800 
     82 C          -2.7595  -25.6712  -49.6142 C.2       14 UNK         0.5000 
     83 O          -2.9969  -26.7096  -50.2309 O.2       14 UNK        -0.5000 
     84 N          -2.7732  -24.4550  -50.1753 N.am      15 UNK        -0.5000 
     85 CA         -3.1848  -24.1430  -51.5441 C.3       15 UNK         0.1400 
     86 CB         -2.3239  -22.9789  -52.0652 C.3       15 UNK        -0.1800 
     87 C          -4.6980  -23.8397  -51.6489 C.2       15 UNK         0.5000 
     88 O          -5.1189  -23.1812  -52.6007 O.2       15 UNK        -0.5000 
     89 N          -5.4901  -24.3065  -50.6704 N.am      16 UNK        -0.5000 
     90 CA         -6.9480  -24.1874  -50.5625 C.3       16 UNK         0.1400 
     91 CB         -7.6428  -24.9993  -51.6757 C.3       16 UNK        -0.1800 
     92 C          -7.4268  -22.7240  -50.4743 C.2       16 UNK         0.5000 
     93 O          -8.4028  -22.3509  -51.1248 O.2       16 UNK        -0.5000 
     94 N          -6.7083  -21.9262  -49.6711 N.am      17 UNK        -0.5000 
     95 CA         -6.8390  -20.4737  -49.5065 C.3       17 UNK         0.1400 
     96 CB         -8.2317  -20.0759  -48.9736 C.3       17 UNK        -0.1800 
     97 C          -6.4233  -19.7260  -50.7893 C.2       17 UNK         0.5000 
     98 O          -7.1111  -18.8019  -51.2265 O.2       17 UNK        -0.5000 
     99 N          -5.2914  -20.1651  -51.3603 N.am      18 UNK        -0.5000 
    100 CA        -4.6550  -19.6791  -52.5882 C.3       18 UNK         0.1400 
    101 CB        -4.0945  -18.2575  -52.3733 C.3       18 UNK        -0.1800 
    102 C         -5.5537  -19.7923  -53.8406 C.2       18 UNK         0.5000 
    103 O         -5.5071  -18.9280  -54.7183 O.2       18 UNK        -0.5000 
    104 N         -6.3561  -20.8609  -53.9103 N.am      19 UNK        -0.5000 
    105 CA        -7.3046  -21.1286  -54.9873 C.3       19 UNK         0.1400 
    106 CB        -8.4978  -21.9156  -54.4223 C.3       19 UNK        -0.1800 
    107 C         -6.6038  -21.8753  -56.1331 C.2       19 UNK         0.5000 
    108 O         -6.6503  -23.1054  -56.1896 O.2       19 UNK        -0.5000 
    109 N         -5.9262  -21.1120  -57.0018 N.am      20 UNK        -0.5000 
    110 CA        -5.1920  -21.5119  -58.2141 C.3       20 UNK         0.1400 
    111 CB        -6.1139  -22.2221  -59.2233 C.3       20 UNK        -0.1800 
    112 C         -3.9104  -22.3325  -57.9632 C.2       20 UNK         0.5000 
    113 O         -2.9197  -22.1287  -58.6664 O.2       20 UNK        -0.5000 
    114 N         -3.9186  -23.2009  -56.9439 N.am      21 UNK        -0.5000 
    115 CA        -2.7947  -24.0330  -56.4998 C.3       21 UNK         0.1400 
    116 CB        -3.2911  -24.9833  -55.4002 C.3       21 UNK        -0.1800 
    117 C         -1.5669  -23.2308  -56.0184 C.2       21 UNK         0.5000 
    118 O         -0.4610  -23.7716  -55.9927 O.2       21 UNK        -0.5000 
    119 N         -1.7810  -21.9535  -55.6788 N.am      22 UNK        -0.5000 
    120 CA        -0.7350  -20.9541  -55.4185 C.3       22 UNK         0.1400 
    121 C          0.0602  -20.5101  -56.6852 C.2       22 UNK         0.5000 
    122 N         -0.3774  -20.8152  -57.9022 N.am      22 UNK        -0.7600 
    123 O          1.1027  -19.8742  -56.5582 O.2       22 UNK        -0.5000 
    124 C124       -1.3142  -19.7259  -54.6569 C.3       23 UNK        -0.0398 
    125 S125       -0.8295  -19.7068  -52.8998 S.3       23 UNK        -0.2404 
    126 C126        0.5436  -18.5202  -52.9802 C.3       23 UNK        -0.0205 
    127 H127       -4.7023  -17.1612  -44.6445 H         1 UNK         0.0600 
    128 H128       -4.1481  -17.3161  -46.3135 H         1 UNK         0.0600 
    129 H129       -5.5984  -16.3793  -45.9519 H         1 UNK         0.0600 
    130 H130       -2.2655  -16.1364  -46.5363 H         1 UNK         0.3000 
    131 H131       -2.1241  -13.3161  -46.0358 H         1 UNK         0.0600 
    132 H132       -1.1203  -13.9168  -48.0379 H         1 UNK         0.0800 
    133 H133        0.2603  -13.6555  -47.0193 H         1 UNK         0.0800 
    134 H134        0.8752  -14.9045  -49.5256 H         1 UNK         0.0800 
    135 H135        2.1291  -15.3066  -48.3791 H         1 UNK         0.0800 
    136 H136        0.1630  -16.4688  -51.2247 H         1 UNK         0.1150 
    137 H137        2.3759  -20.1004  -51.7441 H         1 UNK         0.1150 
    138 H138        2.9636  -17.7149  -48.2285 H         1 UNK         0.1150 
    139 H139        4.5716  -20.1364  -50.2536 H         1 UNK         0.0800 
    140 H140        4.3793  -19.6271  -48.5977 H         1 UNK         0.0800 
    141 H141        2.1871  -20.2517  -47.3703 H         1 UNK         0.0800 
    142 H142        3.1701  -21.5077  -46.6785 H         1 UNK         0.0800 
    143 H143        1.3863  -23.1963  -47.2102 H         1 UNK         0.0600 
    144 H144        1.2510  -21.2405  -45.1848 H         1 UNK         0.3000 
    145 H145       -1.5700  -22.5057  -43.3877 H         1 UNK         0.0600 
    146 H146        0.1341  -22.5021  -41.5836 H         1 UNK         0.0600 
    147 H147        0.3656  -23.8747  -42.6568 H         1 UNK         0.0600 
    148 H148        1.4302  -22.4812  -42.7766 H         1 UNK         0.0600 
    149 H149        0.1380  -20.3043  -42.8474 H         1 UNK         0.3000 
    150 H150       -1.6362  -17.8605  -44.7919 H         1 UNK         0.0600 
    151 H151       -2.7908  -18.0259  -42.5974 H         1 UNK         0.0600 
    152 H152       -1.5959  -16.7442  -42.5893 H         1 UNK         0.0600 
    153 H153       -1.2530  -18.2685  -41.7800 H         1 UNK         0.0600 
    154 H154        0.7185  -17.5474  -43.2729 H         1 UNK         0.3000 
    155 H155        3.0609  -18.6494  -45.7906 H         1 UNK         0.0600 
    156 H156        3.9901  -16.4127  -45.1187 H         1 UNK         0.0600 
    157 H157        2.6680  -16.2880  -46.2643 H         1 UNK         0.0600 
    158 H158        2.3840  -15.9279  -44.5771 H         1 UNK         0.0600 
    159 H159        3.2259  -17.7909  -43.0263 H         1 UNK         0.3000 
    160 H160        3.2140  -21.0554  -41.6301 H         1 UNK         0.0600 
    161 H161        5.5990  -19.1684  -42.0398 H         1 UNK         0.0600 
    162 H162        5.5609  -20.8743  -42.4698 H         1 UNK         0.0600 
    163 H163        5.4535  -20.3977  -40.7829 H         1 UNK         0.0600 
    164 H164        3.7607  -18.4574  -40.5511 H         1 UNK         0.3000 
    165 H165        0.4110  -17.4018  -40.0531 H         1 UNK         0.0600 
    166 H166        1.1697  -17.2155  -37.6980 H         1 UNK         0.0600 
    167 H167        0.8274  -18.8922  -38.0931 H         1 UNK         0.0600 
    168 H168        2.4952  -18.3381  -38.0059 H         1 UNK         0.0600 
    169 H169        2.9597  -16.2969  -39.3360 H         1 UNK         0.3000 
    170 H170        3.6028  -14.3107  -40.5079 H         1 UNK         0.0600 
    171 H171        4.7789  -16.1763  -42.6692 H         1 UNK         0.0600 
    172 H172        5.6766  -14.9860  -41.7356 H         1 UNK         0.0600 
    173 H173        5.0250  -16.3977  -40.9412 H         1 UNK         0.0600 
    174 H174        2.3176  -14.2115  -43.0123 H         1 UNK         0.3000 
    175 H175        3.9464  -11.1715  -44.1380 H         1 UNK         0.0600 
    176 H176        3.0342  -12.1652  -46.1991 H         1 UNK         0.0600 
    177 H177        2.7559  -13.7000  -45.3878 H         1 UNK         0.0600 
    178 H178        4.3948  -13.1140  -45.6195 H         1 UNK         0.0600 
    179 H179        1.2215  -12.2957  -44.0330 H         1 UNK         0.3000 
    180 H180        0.1088  -10.0188  -41.5724 H         1 UNK         0.0600 
    181 H181       -0.5067   -9.7731  -44.5686 H         1 UNK         0.0600 
    182 H182        0.0280   -8.4607  -43.5259 H         1 UNK         0.0600 
    183 H183       -1.5361   -9.2100  -43.2506 H         1 UNK         0.0600 
    184 H184       -1.2865  -11.7702  -43.3575 H         1 UNK         0.3000 
    185 H185       -0.5709  -14.8241  -41.8768 H         1 UNK         0.0600 
    186 H186       -2.1780  -14.0478  -40.1319 H         1 UNK         0.0600 
    187 H187       -3.1713  -13.2864  -41.3699 H         1 UNK         0.0600 
    188 H188       -2.9845  -15.0392  -41.3364 H         1 UNK         0.0600 
    189 H189       -2.6626  -14.1438  -43.6589 H         1 UNK         0.3000 
    190 H190       -0.4010  -20.0681  -47.1454 H         1 UNK         0.3000 
    191 H191       -1.7004  -20.4115  -49.6638 H         1 UNK         0.0600 
    192 H192       -1.5463  -18.2151  -48.6772 H         1 UNK         0.0600 
    193 H193       -3.2525  -18.6179  -48.7602 H         1 UNK         0.0600 
    194 H194       -2.4004  -18.7200  -47.2187 H         1 UNK         0.0600 
    195 H195       -2.7396  -21.3072  -46.3287 H         1 UNK         0.3000 
    196 H196       -5.3038  -22.2802  -46.9994 H         1 UNK         0.0600 
    197 H197       -5.1823  -23.4407  -44.8053 H         1 UNK         0.0600 
    198 H198       -4.6028  -21.7877  -44.6774 H         1 UNK         0.0600 
    199 H199       -3.4555  -23.1262  -44.7133 H         1 UNK         0.0600 
    200 H200       -2.1400  -23.9767  -46.9529 H         1 UNK         0.3000 
    201 H201       -3.0911  -26.5538  -47.6929 H         1 UNK         0.0600 
    202 H202       -0.8371  -26.1550  -46.7417 H         1 UNK         0.0600 
    203 H203       -0.3647  -25.2376  -48.1697 H         1 UNK         0.0600 
    204 H204       -0.7038  -26.9587  -48.2984 H         1 UNK         0.0600 
    205 H205       -2.5626  -23.6579  -49.5883 H         1 UNK         0.3000 
    206 H206       -2.9936  -25.0068  -52.1833 H         1 UNK         0.0600 
    207 H207       -1.2638  -23.2317  -52.0426 H         1 UNK         0.0600 
    208 H208       -2.5729  -22.7301  -53.0959 H         1 UNK         0.0600 
    209 H209       -2.4597  -22.0759  -51.4717 H         1 UNK         0.0600 
    210 H210       -5.0471  -24.7753  -49.8902 H         1 UNK         0.3000 
    211 H211       -7.2214  -24.6454  -49.6110 H         1 UNK         0.0600 
    212 H212       -7.4043  -24.6176  -52.6678 H         1 UNK         0.0600 
    213 H213       -8.7273  -24.9728  -51.5648 H         1 UNK         0.0600 
    214 H214       -7.3407  -26.0459  -51.6422 H         1 UNK         0.0600 
    215 H215       -5.8743  -22.3233  -49.2568 H         1 UNK         0.3000 
    216 H216       -6.1137  -20.1887  -48.7432 H         1 UNK         0.0600 
    217 H217       -8.2564  -19.0181  -48.7098 H         1 UNK         0.0600 
    218 H218       -8.4866  -20.6402  -48.0766 H         1 UNK         0.0600 
    219 H219       -9.0171  -20.2426  -49.7110 H         1 UNK         0.0600 
    220 H220       -4.8058  -20.9205  -50.8881 H         1 UNK         0.3000 
    221 H221       -3.8116  -20.3454  -52.7676 H         1 UNK         0.0600 
    222 H222       -4.8891  -17.5283  -52.2138 H         1 UNK         0.0600 
    223 H223       -3.4291  -18.2244  -51.5103 H         1 UNK         0.0600 
    224 H224       -3.5167  -17.9261  -53.2365 H         1 UNK         0.0600 
    225 H225       -6.2477  -21.5905  -53.2127 H         1 UNK         0.3000 
    226 H226       -7.6929  -20.1862  -55.3796 H         1 UNK         0.0600 
    227 H227       -9.0205  -21.3394  -53.6586 H         1 UNK         0.0600 
    228 H228       -9.2196  -22.1489  -55.2058 H         1 UNK         0.0600 
    229 H229       -8.1843  -22.8569  -53.9720 H         1 UNK         0.0600 
    230 H230       -5.8957  -20.1202  -56.8005 H         1 UNK         0.3000 
    231 H231       -4.8686  -20.5775  -58.6756 H         1 UNK         0.0600 
    232 H232       -6.4622  -23.1862  -58.8519 H         1 UNK         0.0600 
    233 H233       -5.5909  -22.4072  -60.1624 H         1 UNK         0.0600 
    234 H234       -6.9890  -21.6145  -59.4537 H         1 UNK         0.0600 
    235 H235       -4.8004  -23.3204  -56.4516 H         1 UNK         0.3000 
    236 H236       -2.4703  -24.6339  -57.3516 H         1 UNK         0.0600 
    237 H237       -4.0618  -25.6545  -55.7793 H         1 UNK         0.0600 
    238 H238       -2.4803  -25.6030  -55.0149 H         1 UNK         0.0600 
    239 H239       -3.7147  -24.4322  -54.5618 H         1 UNK         0.0600 
    240 H240       -2.7259  -21.6088  -55.7448 H         1 UNK         0.3000 
    241 H241        0.0100  -21.4410  -54.7860 H         1 UNK         0.0600 
    242 H242       -1.2394  -21.3311  -58.0472 H         1 UNK         0.3800 
    243 H243        0.1581  -20.5189  -58.7027 H         1 UNK         0.3800 
    244 H244       -1.0149  -18.7773  -55.1072 H         1 UNK         0.0800 
    245 H245       -2.4030  -19.7123  -54.7073 H         1 UNK         0.0800 
    246 H246        1.2900  -18.8790  -53.6909 H         1 UNK         0.0800 
    247 H247        0.1781  -17.5692  -53.3709 H         1 UNK         0.0800 
@<TRIPOS>BOND
     1    1    2 1    
     2    1  127 1    
     3    1  128 1    
     4    1  129 1    
     5    2    3 2    
     6    2    4 am   BACKBONE|DICT|INTERRES
     7    4    5 1    
     8    4  130 1    
     9    5    6 1    
    10    5   65 1    
    11    5  131 1    
    12    6    7 1    
    13    6  132 1    
    14    6  133 1    
    15    7    8 1    
    16    8    9 1    
    17    8  134 1    
    18    8  135 1    
    19    9   10 ar   
    20    9   14 ar   
    21   10   11 ar   
    22   10  136 1    
    23   11   12 ar   
    24   11  126 1    
    25   12   13 ar   
    26   12  137 1    
    27   13   14 ar   
    28   13   15 1    
    29   14  138 1    
    30   15   16 1    
    31   15  139 1    
    32   15  140 1    
    33   16   17 1    
    34   17   18 1    
    35   17  141 1    
    36   17  142 1    
    37   18   19 1    
    38   18   67 1    
    39   18  143 1    
    40   19   20 am   BACKBONE|DICT|INTERRES
    41   19  144 1    
    42   20   21 2    
    43   20   22 1    
    44   22   23 1    
    45   22   24 1    
    46   22  145 1    
    47   23  146 1    
    48   23  147 1    
    49   23  148 1    
    50   24   25 am   BACKBONE|DICT|INTERRES
    51   24  149 1    
    52   25   26 2    
    53   25   27 1    
    54   27   28 1    
    55   27   29 1    
    56   27  150 1    
    57   28  151 1    
    58   28  152 1    
    59   28  153 1    
    60   29   30 am   BACKBONE|DICT|INTERRES
    61   29  154 1    
    62   30   31 2    
    63   30   32 1    
    64   32   33 1    
    65   32   34 1    
    66   32  155 1    
    67   33  156 1    
    68   33  157 1    
    69   33  158 1    
    70   34   35 am   BACKBONE|DICT|INTERRES
    71   34  159 1    
    72   35   36 2    
    73   35   37 1    
    74   37   38 1    
    75   37   39 1    
    76   37  160 1    
    77   38  161 1    
    78   38  162 1    
    79   38  163 1    
    80   39   40 am   BACKBONE|DICT|INTERRES
    81   39  164 1    
    82   40   41 2    
    83   40   42 1    
    84   42   43 1    
    85   42   44 1    
    86   42  165 1    
    87   43  166 1    
    88   43  167 1    
    89   43  168 1    
    90   44   45 am   BACKBONE|DICT|INTERRES
    91   44  169 1    
    92   45   46 2    
    93   45   47 1    
    94   47   48 1    
    95   47   49 1    
    96   47  170 1    
    97   48  171 1    
    98   48  172 1    
    99   48  173 1    
   100   49   50 am   BACKBONE|DICT|INTERRES
   101   49  174 1    
   102   50   51 2    
   103   50   52 1    
   104   52   53 1    
   105   52   54 1    
   106   52  175 1    
   107   53  176 1    
   108   53  177 1    
   109   53  178 1    
   110   54   55 am   BACKBONE|DICT|INTERRES
   111   54  179 1    
   112   55   56 2    
   113   55   57 1    
   114   57   58 1    
   115   57   59 1    
   116   57  180 1    
   117   58  181 1    
   118   58  182 1    
   119   58  183 1    
   120   59   60 am   BACKBONE|DICT|INTERRES
   121   59  184 1    
   122   60   61 2    
   123   60   62 1    
   124   62   63 1    
   125   62   64 1    
   126   62  185 1    
   127   63  186 1    
   128   63  187 1    
   129   63  188 1    
   130   64   65 am   BACKBONE|DICT|INTERRES
   131   64  189 1    
   132   65   66 2    
   133   67   68 2    
   134   67   69 am   BACKBONE|DICT|INTERRES
   135   69   70 1    
   136   69  190 1    
   137   70   71 1    
   138   70   72 1    
   139   70  191 1    
   140   71  192 1    
   141   71  193 1    
   142   71  194 1    
   143   72   73 2    
   144   72   74 am   BACKBONE|DICT|INTERRES
   145   74   75 1    
   146   74  195 1    
   147   75   76 1    
   148   75   77 1    
   149   75  196 1    
   150   76  197 1    
   151   76  198 1    
   152   76  199 1    
   153   77   78 2    
   154   77   79 am   BACKBONE|DICT|INTERRES
   155   79   80 1    
   156   79  200 1    
   157   80   81 1    
   158   80   82 1    
   159   80  201 1    
   160   81  202 1    
   161   81  203 1    
   162   81  204 1    
   163   82   83 2    
   164   82   84 am   BACKBONE|DICT|INTERRES
   165   84   85 1    
   166   84  205 1    
   167   85   86 1    
   168   85   87 1    
   169   85  206 1    
   170   86  207 1    
   171   86  208 1    
   172   86  209 1    
   173   87   88 2    
   174   87   89 am   BACKBONE|DICT|INTERRES
   175   89   90 1    
   176   89  210 1    
   177   90   91 1    
   178   90   92 1    
   179   90  211 1    
   180   91  212 1    
   181   91  213 1    
   182   91  214 1    
   183   92   93 2    
   184   92   94 am   BACKBONE|DICT|INTERRES
   185   94   95 1    
   186   94  215 1    
   187   95   96 1    
   188   95   97 1    
   189   95  216 1    
   190   96  217 1    
   191   96  218 1    
   192   96  219 1    
   193   97   98 2    
   194   97   99 am   BACKBONE|DICT|INTERRES
   195   99  100 1    
   196   99  220 1    
   197  100  101 1    
   198  100  102 1    
   199  100  221 1    
   200  101  222 1    
   201  101  223 1    
   202  101  224 1    
   203  102  103 2    
   204  102  104 am   BACKBONE|DICT|INTERRES
   205  104  105 1    
   206  104  225 1    
   207  105  106 1    
   208  105  107 1    
   209  105  226 1    
   210  106  227 1    
   211  106  228 1    
   212  106  229 1    
   213  107  108 2    
   214  107  109 am   BACKBONE|DICT|INTERRES
   215  109  110 1    
   216  109  230 1    
   217  110  111 1    
   218  110  112 1    
   219  110  231 1    
   220  111  232 1    
   221  111  233 1    
   222  111  234 1    
   223  112  113 2    
   224  112  114 am   BACKBONE|DICT|INTERRES
   225  114  115 1    
   226  114  235 1    
   227  115  116 1    
   228  115  117 1    
   229  115  236 1    
   230  116  237 1    
   231  116  238 1    
   232  116  239 1    
   233  117  118 2    
   234  117  119 am   BACKBONE|DICT|INTERRES
   235  119  120 1    
   236  119  240 1    
   237  120  121 1    
   238  120  124 1    
   239  120  241 1    
   240  121  122 am   BACKBONE|DICT|INTERRES
   241  121  123 2    
   242  122  242 1    
   243  122  243 1    
   244  124  125 1    
   245  124  244 1    
   246  124  245 1    
   247  125  126 1    
   248  126  246 1    
   249  126  247 1    
@<TRIPOS>SUBSTRUCTURE
     1 UNK         1 GROUP             0       ****    0 ROOT    
