@<TRIPOS>MOLECULE
3R540
247   249    1
SMALL
USER_CHARGES


@<TRIPOS>ATOM
      1 CA         -5.3328  -12.1786  -50.2073 C.3       0 UNK        -0.1800 
      2 C          -4.0091  -11.6003  -49.7273 C.2       0 UNK         0.5000 
      3 O          -3.9979  -10.7274  -48.8596 O.2       0 UNK        -0.5000 
      4 N          -2.8932  -12.0884  -50.2828 N.am      1 UNK        -0.5000 
      5 CA         -1.5254  -11.6749  -49.9404 C.3       1 UNK         0.1400 
      6 C6         -0.5241  -12.0226  -51.0728 C.3       23 UNK        -0.0398 
      7 S7         -0.4763  -13.7954  -51.5265 S.3       23 UNK        -0.2404 
      8 C8          0.9811  -14.3498  -50.5887 C.3       23 UNK        -0.0205 
      9 C9          1.2433  -15.8350  -50.7759 C.ar      23 UNK        -0.0193 
     10 C10         2.3056  -16.2659  -51.5708 C.ar      23 UNK        -0.1150 
     11 C11         2.5943  -17.6258  -51.6994 C.ar      23 UNK        -0.0193 
     12 C12         1.7921  -18.5577  -51.0277 C.ar      23 UNK        -0.1150 
     13 C13         0.7086  -18.1513  -50.2400 C.ar      23 UNK        -0.0193 
     14 C14         0.4498  -16.7775  -50.1180 C.ar      23 UNK        -0.1150 
     15 C15        -0.1214  -19.2273  -49.5259 C.3       23 UNK        -0.0205 
     16 S16        -1.5985  -18.6056  -48.6422 S.3       23 UNK        -0.2404 
     17 C17        -2.4563  -20.0255  -47.8732 C.3       23 UNK        -0.0398 
     18 CA         -1.8048  -21.4296  -47.9192 C.3       11 UNK         0.1400 
     19 N          -0.5345  -21.4974  -47.1937 N.am      11 UNK        -0.5000 
     20 C           0.2512  -22.5814  -47.1162 C.2       10 UNK         0.5000 
     21 O           0.0095  -23.6456  -47.6862 O.2       10 UNK        -0.5000 
     22 CA          1.4868  -22.4754  -46.2057 C.3       10 UNK         0.1400 
     23 CB          2.6286  -21.7286  -46.9122 C.3       10 UNK        -0.1800 
     24 N           1.1835  -21.8342  -44.9244 N.am      10 UNK        -0.5000 
     25 C           0.3546  -22.3485  -44.0034 C.2       9 UNK         0.5000 
     26 O          -0.2125  -23.4341  -44.1252 O.2       9 UNK        -0.5000 
     27 CA          0.0766  -21.4943  -42.7535 C.3       9 UNK         0.1400 
     28 CB          1.2373  -21.5987  -41.7531 C.3       9 UNK        -0.1800 
     29 N          -0.1786  -20.0895  -43.0706 N.am      9 UNK        -0.5000 
     30 C          -1.2029  -19.6522  -43.8165 C.2       8 UNK         0.5000 
     31 O          -2.0761  -20.3865  -44.2782 O.2       8 UNK        -0.5000 
     32 CA         -1.2256  -18.1517  -44.1607 C.3       8 UNK         0.1400 
     33 CB         -1.8091  -17.3270  -43.0050 C.3       8 UNK        -0.1800 
     34 N           0.0878  -17.6197  -44.5296 N.am      8 UNK        -0.5000 
     35 C           0.8422  -18.0889  -45.5343 C.2       7 UNK         0.5000 
     36 O           0.5193  -19.0328  -46.2501 O.2       7 UNK        -0.5000 
     37 CA          2.2243  -17.4490  -45.7210 C.3       7 UNK         0.1400 
     38 CB          2.1133  -16.0522  -46.3528 C.3       7 UNK        -0.1800 
     39 N           2.9445  -17.3813  -44.4505 N.am      7 UNK        -0.5000 
     40 C           3.3960  -18.4567  -43.7869 C.2       6 UNK         0.5000 
     41 O           3.3129  -19.6103  -44.2100 O.2       6 UNK        -0.5000 
     42 CA          4.0051  -18.2011  -42.3964 C.3       6 UNK         0.1400 
     43 CB          5.4803  -17.7907  -42.5170 C.3       6 UNK        -0.1800 
     44 N           3.2768  -17.1790  -41.6426 N.am      6 UNK        -0.5000 
     45 C           2.0189  -17.3166  -41.1989 C.2       5 UNK         0.5000 
     46 O           1.3468  -18.3349  -41.3528 O.2       5 UNK        -0.5000 
     47 CA          1.3923  -16.0936  -40.5048 C.3       5 UNK         0.1400 
     48 CB          1.7294  -16.0912  -39.0065 C.3       5 UNK        -0.1800 
     49 N           1.8036  -14.8189  -41.0993 N.am      5 UNK        -0.5000 
     50 C           1.5279  -14.4453  -42.3551 C.2       4 UNK         0.5000 
     51 O           0.9251  -15.1536  -43.1659 O.2       4 UNK        -0.5000 
     52 CA          2.0689  -13.0767  -42.7967 C.3       4 UNK         0.1400 
     53 CB          3.3757  -13.2505  -43.5861 C.3       4 UNK        -0.1800 
     54 N           1.0927  -12.3888  -43.6360 N.am      4 UNK        -0.5000 
     55 C           0.0154  -11.7383  -43.1757 C.2       3 UNK         0.5000 
     56 O          -0.2191  -11.5617  -41.9794 O.2       3 UNK        -0.5000 
     57 CA         -0.9680  -11.1991  -44.2318 C.3       3 UNK         0.1400 
     58 CB         -0.6017   -9.7615  -44.6305 C.3       3 UNK        -0.1800 
     59 N          -0.9996  -12.0338  -45.4327 N.am      3 UNK        -0.5000 
     60 C          -1.5938  -13.2290  -45.5194 C.2       2 UNK         0.5000 
     61 O          -2.2688  -13.7137  -44.6099 O.2       2 UNK        -0.5000 
     62 CA         -1.3971  -14.0018  -46.8428 C.3       2 UNK         0.1400 
     63 CB         -2.1898  -15.3174  -46.8785 C.3       2 UNK        -0.1800 
     64 N          -1.7424  -13.2313  -48.0384 N.am      2 UNK        -0.5000 
     65 C          -1.0399  -12.2270  -48.5805 C.2       1 UNK         0.5000 
     66 O          -0.0235  -11.7573  -48.0659 O.2       1 UNK        -0.5000 
     67 C          -2.8085  -22.4657  -47.3722 C.2       11 UNK         0.5000 
     68 O          -3.3945  -23.2164  -48.1551 O.2       11 UNK        -0.5000 
     69 N          -2.9764  -22.4947  -46.0415 N.am      12 UNK        -0.5000 
     70 CA         -3.8780  -23.3998  -45.3289 C.3       12 UNK         0.1400 
     71 CB         -3.9583  -22.9942  -43.8502 C.3       12 UNK        -0.1800 
     72 C          -3.4919  -24.8806  -45.4672 C.2       12 UNK         0.5000 
     73 O          -4.3785  -25.7225  -45.6129 O.2       12 UNK        -0.5000 
     74 N          -2.1827  -25.1674  -45.4496 N.am      13 UNK        -0.5000 
     75 CA         -1.6261  -26.4992  -45.6864 C.3       13 UNK         0.1400 
     76 CB         -0.1234  -26.4939  -45.3678 C.3       13 UNK        -0.1800 
     77 C          -1.8768  -27.0033  -47.1198 C.2       13 UNK         0.5000 
     78 O          -2.0825  -28.2032  -47.3075 O.2       13 UNK        -0.5000 
     79 N          -1.8676  -26.0847  -48.0961 N.am      14 UNK        -0.5000 
     80 CA         -2.1770  -26.3693  -49.4933 C.3       14 UNK         0.1400 
     81 CB         -1.6344  -25.2493  -50.3915 C.3       14 UNK        -0.1800 
     82 C          -3.6792  -26.6179  -49.7194 C.2       14 UNK         0.5000 
     83 O          -4.0343  -27.7014  -50.1862 O.2       14 UNK        -0.5000 
     84 N          -4.5306  -25.6372  -49.3773 N.am      15 UNK        -0.5000 
     85 CA         -5.9913  -25.7326  -49.5352 C.3       15 UNK         0.1400 
     86 CB         -6.3843  -25.7840  -51.0303 C.3       15 UNK        -0.1800 
     87 C          -6.7897  -24.6026  -48.8575 C.2       15 UNK         0.5000 
     88 O          -8.0043  -24.7492  -48.7215 O.2       15 UNK        -0.5000 
     89 N          -6.1388  -23.4824  -48.5056 N.am      16 UNK        -0.5000 
     90 CA         -6.7203  -22.2196  -48.0145 C.3       16 UNK         0.1400 
     91 CB         -7.5797  -22.4325  -46.7490 C.3       16 UNK        -0.1800 
     92 C          -7.4877  -21.4131  -49.0882 C.2       16 UNK         0.5000 
     93 O          -8.0550  -20.3663  -48.7701 O.2       16 UNK        -0.5000 
     94 N          -7.4847  -21.8875  -50.3405 N.am      17 UNK        -0.5000 
     95 CA         -8.1232  -21.2691  -51.5014 C.3       17 UNK         0.1400 
     96 CB         -8.3767  -22.3634  -52.5543 C.3       17 UNK        -0.1800 
     97 C          -7.2642  -20.1107  -52.0458 C.2       17 UNK         0.5000 
     98 O          -6.6314  -20.2508  -53.0941 O.2       17 UNK        -0.5000 
     99 N          -7.2242  -19.0065  -51.2865 N.am      18 UNK        -0.5000 
    100 CA        -6.3505  -17.8418  -51.4672 C.3       18 UNK         0.1400 
    101 CB        -6.7028  -17.0719  -52.7602 C.3       18 UNK        -0.1800 
    102 C         -4.8688  -18.2570  -51.3503 C.2       18 UNK         0.5000 
    103 O         -4.5409  -19.0246  -50.4435 O.2       18 UNK        -0.5000 
    104 N         -4.0048  -17.7925  -52.2636 N.am      19 UNK        -0.5000 
    105 CA        -2.5804  -18.1360  -52.3493 C.3       19 UNK         0.1400 
    106 CB        -1.8584  -17.0641  -53.1838 C.3       19 UNK        -0.1800 
    107 C         -2.3443  -19.5646  -52.8922 C.2       19 UNK         0.5000 
    108 O         -1.5783  -19.7508  -53.8383 O.2       19 UNK        -0.5000 
    109 N         -3.0246  -20.5520  -52.2974 N.am      20 UNK        -0.5000 
    110 CA        -3.1668  -21.9319  -52.7711 C.3       20 UNK         0.1400 
    111 CB        -4.0532  -22.6997  -51.7801 C.3       20 UNK        -0.1800 
    112 C         -1.8505  -22.6948  -53.0054 C.2       20 UNK         0.5000 
    113 O         -1.8045  -23.5711  -53.8689 O.2       20 UNK        -0.5000 
    114 N         -0.8111  -22.3521  -52.2357 N.am      21 UNK        -0.5000 
    115 CA         0.5176  -22.9533  -52.3348 C.3       21 UNK         0.1400 
    116 CB         1.2613  -22.7385  -51.0074 C.3       21 UNK        -0.1800 
    117 C          1.3495  -22.4270  -53.5217 C.2       21 UNK         0.5000 
    118 O          2.3172  -23.0905  -53.8980 O.2       21 UNK        -0.5000 
    119 N          0.9844  -21.2624  -54.0773 N.am      22 UNK        -0.5000 
    120 CA         1.7298  -20.5775  -55.1497 C.3       22 UNK         0.1400 
    121 C          0.8775  -20.2730  -56.4124 C.2       22 UNK         0.5000 
    122 N         -0.4432  -20.1867  -56.3307 N.am      22 UNK        -0.7600 
    123 O          1.4286  -20.1293  -57.5005 O.2       22 UNK        -0.5000 
    124 C124        2.4237  -19.2904  -54.6353 C.3       23 UNK        -0.0398 
    125 S125        3.6805  -19.6496  -53.3616 S.3       23 UNK        -0.2404 
    126 C126        3.8177  -18.0408  -52.5161 C.3       23 UNK        -0.0205 
    127 H127       -5.9539  -11.3905  -50.6333 H         1 UNK         0.0600 
    128 H128       -5.1883  -12.9464  -50.9681 H         1 UNK         0.0600 
    129 H129       -5.8722  -12.6253  -49.3719 H         1 UNK         0.0600 
    130 H130       -2.9592  -12.8053  -50.9922 H         1 UNK         0.3000 
    131 H131       -1.5272  -10.5874  -49.8393 H         1 UNK         0.0600 
    132 H132        0.4807  -11.6778  -50.8211 H         1 UNK         0.0800 
    133 H133       -0.7980  -11.4663  -51.9701 H         1 UNK         0.0800 
    134 H134        1.8503  -13.7672  -50.8981 H         1 UNK         0.0800 
    135 H135        0.8412  -14.1502  -49.5264 H         1 UNK         0.0800 
    136 H136        2.9278  -15.5363  -52.0702 H         1 UNK         0.1150 
    137 H137        2.0246  -19.6077  -51.1072 H         1 UNK         0.1150 
    138 H138       -0.3616  -16.4167  -49.5050 H         1 UNK         0.1150 
    139 H139       -0.4410  -19.9686  -50.2569 H         1 UNK         0.0800 
    140 H140        0.5363  -19.7335  -48.8211 H         1 UNK         0.0800 
    141 H141       -3.4399  -20.0661  -48.3431 H         1 UNK         0.0800 
    142 H142       -2.6479  -19.7409  -46.8378 H         1 UNK         0.0800 
    143 H143       -1.6085  -21.6892  -48.9610 H         1 UNK         0.0600 
    144 H144       -0.2362  -20.6449  -46.7218 H         1 UNK         0.3000 
    145 H145        1.8291  -23.4908  -45.9957 H         1 UNK         0.0600 
    146 H146        3.5289  -21.7154  -46.2977 H         1 UNK         0.0600 
    147 H147        2.8844  -22.2115  -47.8562 H         1 UNK         0.0600 
    148 H148        2.3640  -20.6953  -47.1354 H         1 UNK         0.0600 
    149 H149        1.6107  -20.9312  -44.7542 H         1 UNK         0.3000 
    150 H150       -0.8198  -21.8929  -42.2742 H         1 UNK         0.0600 
    151 H151        1.4454  -22.6395  -41.5021 H         1 UNK         0.0600 
    152 H152        1.0024  -21.0809  -40.8231 H         1 UNK         0.0600 
    153 H153        2.1547  -21.1661  -42.1536 H         1 UNK         0.0600 
    154 H154        0.4700  -19.4108  -42.6812 H         1 UNK         0.3000 
    155 H155       -1.8796  -18.0341  -45.0261 H         1 UNK         0.0600 
    156 H156       -1.1947  -17.4019  -42.1080 H         1 UNK         0.0600 
    157 H157       -2.8114  -17.6710  -42.7473 H         1 UNK         0.0600 
    158 H158       -1.8843  -16.2724  -43.2721 H         1 UNK         0.0600 
    159 H159        0.4293  -16.8308  -43.9872 H         1 UNK         0.3000 
    160 H160        2.7958  -18.0813  -46.4042 H         1 UNK         0.0600 
    161 H161        3.0984  -15.6238  -46.5367 H         1 UNK         0.0600 
    162 H162        1.5588  -15.3601  -45.7200 H         1 UNK         0.0600 
    163 H163        1.5973  -16.1027  -47.3127 H         1 UNK         0.0600 
    164 H164        3.0029  -16.4777  -44.0065 H         1 UNK         0.3000 
    165 H165        3.9550  -19.1364  -41.8347 H         1 UNK         0.0600 
    166 H166        5.9412  -17.6836  -41.5348 H         1 UNK         0.0600 
    167 H167        6.0509  -18.5440  -43.0620 H         1 UNK         0.0600 
    168 H168        5.5950  -16.8445  -43.0473 H         1 UNK         0.0600 
    169 H169        3.7565  -16.3085  -41.4685 H         1 UNK         0.3000 
    170 H170        0.3085  -16.1748  -40.6087 H         1 UNK         0.0600 
    171 H171        1.4150  -17.0232  -38.5346 H         1 UNK         0.0600 
    172 H172        2.8006  -15.9807  -38.8334 H         1 UNK         0.0600 
    173 H173        1.2193  -15.2788  -38.4886 H         1 UNK         0.0600 
    174 H174        2.3114  -14.1859  -40.4981 H         1 UNK         0.3000 
    175 H175        2.2742  -12.4667  -41.9143 H         1 UNK         0.0600 
    176 H176        3.2284  -13.8426  -44.4899 H         1 UNK         0.0600 
    177 H177        3.7863  -12.2852  -43.8833 H         1 UNK         0.0600 
    178 H178        4.1339  -13.7527  -42.9839 H         1 UNK         0.0600 
    179 H179        1.1812  -12.5202  -44.6320 H         1 UNK         0.3000 
    180 H180       -1.9652  -11.1874  -43.7867 H         1 UNK         0.0600 
    181 H181        0.3830   -9.7111  -45.0971 H         1 UNK         0.0600 
    182 H182       -0.5871   -9.1061  -43.7587 H         1 UNK         0.0600 
    183 H183       -1.3270   -9.3512  -45.3334 H         1 UNK         0.0600 
    184 H184       -0.4925  -11.7011  -46.2488 H         1 UNK         0.3000 
    185 H185       -0.3374  -14.2557  -46.9043 H         1 UNK         0.0600 
    186 H186       -1.8836  -15.9750  -46.0667 H         1 UNK         0.0600 
    187 H187       -3.2626  -15.1469  -46.7813 H         1 UNK         0.0600 
    188 H188       -2.0202  -15.8522  -47.8114 H         1 UNK         0.0600 
    189 H189       -2.5768  -13.5231  -48.5249 H         1 UNK         0.3000 
    190 H190       -2.4741  -21.8231  -45.4656 H         1 UNK         0.3000 
    191 H191       -4.8685  -23.2821  -45.7658 H         1 UNK         0.0600 
    192 H192       -2.9816  -23.0426  -43.3673 H         1 UNK         0.0600 
    193 H193       -4.6322  -23.6512  -43.2991 H         1 UNK         0.0600 
    194 H194       -4.3354  -21.9772  -43.7414 H         1 UNK         0.0600 
    195 H195       -1.5177  -24.4241  -45.2577 H         1 UNK         0.3000 
    196 H196       -2.1159  -27.1939  -45.0009 H         1 UNK         0.0600 
    197 H197        0.4189  -25.7877  -45.9971 H         1 UNK         0.0600 
    198 H198        0.3141  -27.4802  -45.5273 H         1 UNK         0.0600 
    199 H199        0.0577  -26.2227  -44.3277 H         1 UNK         0.0600 
    200 H200       -1.6467  -25.1244  -47.8606 H         1 UNK         0.3000 
    201 H201       -1.6521  -27.2848  -49.7752 H         1 UNK         0.0600 
    202 H202       -2.0047  -24.2688  -50.0979 H         1 UNK         0.0600 
    203 H203       -1.9125  -25.4119  -51.4334 H         1 UNK         0.0600 
    204 H204       -0.5464  -25.2176  -50.3478 H         1 UNK         0.0600 
    205 H205       -4.1526  -24.8041  -48.9378 H         1 UNK         0.3000 
    206 H206       -6.3135  -26.6615  -49.0603 H         1 UNK         0.0600 
    207 H207       -7.4659  -25.8610  -51.1496 H         1 UNK         0.0600 
    208 H208       -6.0666  -24.8880  -51.5611 H         1 UNK         0.0600 
    209 H209       -5.9566  -26.6445  -51.5430 H         1 UNK         0.0600 
    210 H210       -5.1288  -23.4492  -48.6096 H         1 UNK         0.3000 
    211 H211       -5.8689  -21.6002  -47.7289 H         1 UNK         0.0600 
    212 H212       -8.5522  -22.8635  -46.9879 H         1 UNK         0.0600 
    213 H213       -7.7659  -21.4837  -46.2449 H         1 UNK         0.0600 
    214 H214       -7.0956  -23.0921  -46.0310 H         1 UNK         0.0600 
    215 H215       -6.9820  -22.7438  -50.5120 H         1 UNK         0.3000 
    216 H216       -9.0909  -20.8594  -51.2040 H         1 UNK         0.0600 
    217 H217       -8.8616  -21.9487  -53.4389 H         1 UNK         0.0600 
    218 H218       -9.0300  -23.1430  -52.1617 H         1 UNK         0.0600 
    219 H219       -7.4495  -22.8376  -52.8790 H         1 UNK         0.0600 
    220 H220       -7.7080  -19.0523  -50.3963 H         1 UNK         0.3000 
    221 H221       -6.5461  -17.1787  -50.6235 H         1 UNK         0.0600 
    222 H222       -6.4718  -17.6447  -53.6590 H         1 UNK         0.0600 
    223 H223       -7.7649  -16.8286  -52.7896 H         1 UNK         0.0600 
    224 H224       -6.1599  -16.1278  -52.8175 H         1 UNK         0.0600 
    225 H225       -4.3635  -17.2059  -53.0025 H         1 UNK         0.3000 
    226 H226       -2.1602  -18.0989  -51.3464 H         1 UNK         0.0600 
    227 H227       -2.0243  -16.0690  -52.7726 H         1 UNK         0.0600 
    228 H228       -0.7804  -17.2335  -53.1887 H         1 UNK         0.0600 
    229 H229       -2.1984  -17.0609  -54.2200 H         1 UNK         0.0600 
    230 H230       -3.6295  -20.2752  -51.5287 H         1 UNK         0.3000 
    231 H231       -3.6855  -21.8911  -53.7310 H         1 UNK         0.0600 
    232 H232       -5.0690  -22.3086  -51.7831 H         1 UNK         0.0600 
    233 H233       -3.6704  -22.6300  -50.7625 H         1 UNK         0.0600 
    234 H234       -4.1081  -23.7569  -52.0409 H         1 UNK         0.0600 
    235 H235       -0.9368  -21.6131  -51.5631 H         1 UNK         0.3000 
    236 H236        0.4014  -24.0297  -52.4788 H         1 UNK         0.0600 
    237 H237        2.2586  -23.1788  -51.0391 H         1 UNK         0.0600 
    238 H238        1.3763  -21.6833  -50.7709 H         1 UNK         0.0600 
    239 H239        0.7297  -23.2059  -50.1808 H         1 UNK         0.0600 
    240 H240        0.1424  -20.7995  -53.7561 H         1 UNK         0.3000 
    241 H241        2.5197  -21.2373  -55.5135 H         1 UNK         0.0600 
    242 H242       -0.9134  -20.1816  -55.4278 H         1 UNK         0.3800 
    243 H243       -0.9751  -20.0015  -57.1656 H         1 UNK         0.3800 
    244 H244        2.9234  -18.7647  -55.4510 H         1 UNK         0.0800 
    245 H245        1.6806  -18.6005  -54.2313 H         1 UNK         0.0800 
    246 H246        4.6750  -18.0802  -51.8432 H         1 UNK         0.0800 
    247 H247        4.0495  -17.2810  -53.2643 H         1 UNK         0.0800 
@<TRIPOS>BOND
     1    1    2 1    
     2    1  127 1    
     3    1  128 1    
     4    1  129 1    
     5    2    3 2    
     6    2    4 am   BACKBONE|DICT|INTERRES
     7    4    5 1    
     8    4  130 1    
     9    5    6 1    
    10    5   65 1    
    11    5  131 1    
    12    6    7 1    
    13    6  132 1    
    14    6  133 1    
    15    7    8 1    
    16    8    9 1    
    17    8  134 1    
    18    8  135 1    
    19    9   10 ar   
    20    9   14 ar   
    21   10   11 ar   
    22   10  136 1    
    23   11   12 ar   
    24   11  126 1    
    25   12   13 ar   
    26   12  137 1    
    27   13   14 ar   
    28   13   15 1    
    29   14  138 1    
    30   15   16 1    
    31   15  139 1    
    32   15  140 1    
    33   16   17 1    
    34   17   18 1    
    35   17  141 1    
    36   17  142 1    
    37   18   19 1    
    38   18   67 1    
    39   18  143 1    
    40   19   20 am   BACKBONE|DICT|INTERRES
    41   19  144 1    
    42   20   21 2    
    43   20   22 1    
    44   22   23 1    
    45   22   24 1    
    46   22  145 1    
    47   23  146 1    
    48   23  147 1    
    49   23  148 1    
    50   24   25 am   BACKBONE|DICT|INTERRES
    51   24  149 1    
    52   25   26 2    
    53   25   27 1    
    54   27   28 1    
    55   27   29 1    
    56   27  150 1    
    57   28  151 1    
    58   28  152 1    
    59   28  153 1    
    60   29   30 am   BACKBONE|DICT|INTERRES
    61   29  154 1    
    62   30   31 2    
    63   30   32 1    
    64   32   33 1    
    65   32   34 1    
    66   32  155 1    
    67   33  156 1    
    68   33  157 1    
    69   33  158 1    
    70   34   35 am   BACKBONE|DICT|INTERRES
    71   34  159 1    
    72   35   36 2    
    73   35   37 1    
    74   37   38 1    
    75   37   39 1    
    76   37  160 1    
    77   38  161 1    
    78   38  162 1    
    79   38  163 1    
    80   39   40 am   BACKBONE|DICT|INTERRES
    81   39  164 1    
    82   40   41 2    
    83   40   42 1    
    84   42   43 1    
    85   42   44 1    
    86   42  165 1    
    87   43  166 1    
    88   43  167 1    
    89   43  168 1    
    90   44   45 am   BACKBONE|DICT|INTERRES
    91   44  169 1    
    92   45   46 2    
    93   45   47 1    
    94   47   48 1    
    95   47   49 1    
    96   47  170 1    
    97   48  171 1    
    98   48  172 1    
    99   48  173 1    
   100   49   50 am   BACKBONE|DICT|INTERRES
   101   49  174 1    
   102   50   51 2    
   103   50   52 1    
   104   52   53 1    
   105   52   54 1    
   106   52  175 1    
   107   53  176 1    
   108   53  177 1    
   109   53  178 1    
   110   54   55 am   BACKBONE|DICT|INTERRES
   111   54  179 1    
   112   55   56 2    
   113   55   57 1    
   114   57   58 1    
   115   57   59 1    
   116   57  180 1    
   117   58  181 1    
   118   58  182 1    
   119   58  183 1    
   120   59   60 am   BACKBONE|DICT|INTERRES
   121   59  184 1    
   122   60   61 2    
   123   60   62 1    
   124   62   63 1    
   125   62   64 1    
   126   62  185 1    
   127   63  186 1    
   128   63  187 1    
   129   63  188 1    
   130   64   65 am   BACKBONE|DICT|INTERRES
   131   64  189 1    
   132   65   66 2    
   133   67   68 2    
   134   67   69 am   BACKBONE|DICT|INTERRES
   135   69   70 1    
   136   69  190 1    
   137   70   71 1    
   138   70   72 1    
   139   70  191 1    
   140   71  192 1    
   141   71  193 1    
   142   71  194 1    
   143   72   73 2    
   144   72   74 am   BACKBONE|DICT|INTERRES
   145   74   75 1    
   146   74  195 1    
   147   75   76 1    
   148   75   77 1    
   149   75  196 1    
   150   76  197 1    
   151   76  198 1    
   152   76  199 1    
   153   77   78 2    
   154   77   79 am   BACKBONE|DICT|INTERRES
   155   79   80 1    
   156   79  200 1    
   157   80   81 1    
   158   80   82 1    
   159   80  201 1    
   160   81  202 1    
   161   81  203 1    
   162   81  204 1    
   163   82   83 2    
   164   82   84 am   BACKBONE|DICT|INTERRES
   165   84   85 1    
   166   84  205 1    
   167   85   86 1    
   168   85   87 1    
   169   85  206 1    
   170   86  207 1    
   171   86  208 1    
   172   86  209 1    
   173   87   88 2    
   174   87   89 am   BACKBONE|DICT|INTERRES
   175   89   90 1    
   176   89  210 1    
   177   90   91 1    
   178   90   92 1    
   179   90  211 1    
   180   91  212 1    
   181   91  213 1    
   182   91  214 1    
   183   92   93 2    
   184   92   94 am   BACKBONE|DICT|INTERRES
   185   94   95 1    
   186   94  215 1    
   187   95   96 1    
   188   95   97 1    
   189   95  216 1    
   190   96  217 1    
   191   96  218 1    
   192   96  219 1    
   193   97   98 2    
   194   97   99 am   BACKBONE|DICT|INTERRES
   195   99  100 1    
   196   99  220 1    
   197  100  101 1    
   198  100  102 1    
   199  100  221 1    
   200  101  222 1    
   201  101  223 1    
   202  101  224 1    
   203  102  103 2    
   204  102  104 am   BACKBONE|DICT|INTERRES
   205  104  105 1    
   206  104  225 1    
   207  105  106 1    
   208  105  107 1    
   209  105  226 1    
   210  106  227 1    
   211  106  228 1    
   212  106  229 1    
   213  107  108 2    
   214  107  109 am   BACKBONE|DICT|INTERRES
   215  109  110 1    
   216  109  230 1    
   217  110  111 1    
   218  110  112 1    
   219  110  231 1    
   220  111  232 1    
   221  111  233 1    
   222  111  234 1    
   223  112  113 2    
   224  112  114 am   BACKBONE|DICT|INTERRES
   225  114  115 1    
   226  114  235 1    
   227  115  116 1    
   228  115  117 1    
   229  115  236 1    
   230  116  237 1    
   231  116  238 1    
   232  116  239 1    
   233  117  118 2    
   234  117  119 am   BACKBONE|DICT|INTERRES
   235  119  120 1    
   236  119  240 1    
   237  120  121 1    
   238  120  124 1    
   239  120  241 1    
   240  121  122 am   BACKBONE|DICT|INTERRES
   241  121  123 2    
   242  122  242 1    
   243  122  243 1    
   244  124  125 1    
   245  124  244 1    
   246  124  245 1    
   247  125  126 1    
   248  126  246 1    
   249  126  247 1    
@<TRIPOS>SUBSTRUCTURE
     1 UNK         1 GROUP             0       ****    0 ROOT    
