@<TRIPOS>MOLECULE
3R540
247   249    1
SMALL
USER_CHARGES


@<TRIPOS>ATOM
      1 CA          5.0735  -12.7713  -47.5401 C.3       0 UNK        -0.1800 
      2 C           4.1290  -13.9502  -47.7258 C.2       0 UNK         0.5000 
      3 O           4.1502  -14.8830  -46.9241 O.2       0 UNK        -0.5000 
      4 N           3.3041  -13.9110  -48.7797 N.am      1 UNK        -0.5000 
      5 CA          2.3069  -14.9398  -49.1077 C.3       1 UNK         0.1400 
      6 C6          1.7801  -14.7858  -50.5544 C.3       23 UNK        -0.0398 
      7 S7          3.0994  -14.9870  -51.7976 S.3       23 UNK        -0.2404 
      8 C8          2.2149  -15.8950  -53.1137 C.3       23 UNK        -0.0205 
      9 C9          1.8122  -17.3392  -52.8011 C.ar      23 UNK        -0.0193 
     10 C10         1.0084  -18.0079  -53.7288 C.ar      23 UNK        -0.1150 
     11 C11         0.6242  -19.3357  -53.5251 C.ar      23 UNK        -0.0193 
     12 C12         1.0405  -20.0005  -52.3691 C.ar      23 UNK        -0.1150 
     13 C13         1.8443  -19.3511  -51.4291 C.ar      23 UNK        -0.0193 
     14 C14         2.2312  -18.0265  -51.6531 C.ar      23 UNK        -0.1150 
     15 C15         2.3426  -20.0890  -50.1948 C.3       23 UNK        -0.0205 
     16 S16         1.4680  -19.5784  -48.6827 S.3       23 UNK        -0.2404 
     17 C17        -0.0231  -20.6271  -48.7348 C.3       23 UNK        -0.0398 
     18 CA          0.1556  -21.9528  -47.9545 C.3       11 UNK         0.1400 
     19 N           0.5229  -21.7404  -46.5505 N.am      11 UNK        -0.5000 
     20 C           0.9972  -22.6954  -45.7388 C.2       10 UNK         0.5000 
     21 O           1.2163  -23.8510  -46.1014 O.2       10 UNK        -0.5000 
     22 CA          1.2147  -22.3083  -44.2637 C.3       10 UNK         0.1400 
     23 CB          2.5698  -21.6113  -44.0741 C.3       10 UNK        -0.1800 
     24 N           0.1484  -21.4514  -43.7444 N.am      10 UNK        -0.5000 
     25 C          -1.1351  -21.8190  -43.6312 C.2       9 UNK         0.5000 
     26 O          -1.5452  -22.9469  -43.8946 O.2       9 UNK        -0.5000 
     27 CA         -2.1422  -20.7363  -43.2095 C.3       9 UNK         0.1400 
     28 CB         -2.2372  -20.6399  -41.6796 C.3       9 UNK        -0.1800 
     29 N          -1.8265  -19.4249  -43.7759 N.am      9 UNK        -0.5000 
     30 C          -1.8577  -19.1300  -45.0841 C.2       8 UNK         0.5000 
     31 O          -2.1655  -19.9384  -45.9616 O.2       8 UNK        -0.5000 
     32 CA         -1.4542  -17.6974  -45.4760 C.3       8 UNK         0.1400 
     33 CB         -2.6819  -16.7750  -45.4774 C.3       8 UNK        -0.1800 
     34 N          -0.4281  -17.1428  -44.5894 N.am      8 UNK        -0.5000 
     35 C           0.8557  -17.5289  -44.6112 C.2       7 UNK         0.5000 
     36 O           1.2998  -18.3937  -45.3653 O.2       7 UNK        -0.5000 
     37 CA          1.7844  -16.8801  -43.5669 C.3       7 UNK         0.1400 
     38 CB          2.0355  -15.4005  -43.9031 C.3       7 UNK        -0.1800 
     39 N           1.2853  -16.9789  -42.1920 N.am      7 UNK        -0.5000 
     40 C           0.9101  -18.1020  -41.5624 C.2       6 UNK         0.5000 
     41 O           0.9401  -19.2117  -42.0929 O.2       6 UNK        -0.5000 
     42 CA          0.4162  -17.9896  -40.1011 C.3       6 UNK         0.1400 
     43 CB          1.1874  -18.9564  -39.1871 C.3       6 UNK        -0.1800 
     44 N           0.4854  -16.6442  -39.5201 N.am      6 UNK        -0.5000 
     45 C          -0.3096  -15.6154  -39.8374 C.2       5 UNK         0.5000 
     46 O          -1.1827  -15.6783  -40.7070 O.2       5 UNK        -0.5000 
     47 CA         -0.0599  -14.2977  -39.0822 C.3       5 UNK         0.1400 
     48 CB          1.4134  -13.8486  -39.1952 C.3       5 UNK        -0.1800 
     49 N          -0.9310  -13.2718  -39.6409 N.am      5 UNK        -0.5000 
     50 C          -1.2232  -12.0798  -39.1133 C.2       4 UNK         0.5000 
     51 O          -0.8429  -11.7159  -37.9989 O.2       4 UNK        -0.5000 
     52 CA         -2.0285  -11.1225  -40.0219 C.3       4 UNK         0.1400 
     53 CB         -2.3354   -9.7737  -39.3459 C.3       4 UNK        -0.1800 
     54 N          -1.3062  -10.8711  -41.2737 N.am      4 UNK        -0.5000 
     55 C          -1.2583  -11.7156  -42.3106 C.2       3 UNK         0.5000 
     56 O          -1.9313  -12.7499  -42.3743 O.2       3 UNK        -0.5000 
     57 CA         -0.2491  -11.3944  -43.4237 C.3       3 UNK         0.1400 
     58 CB          1.1967  -11.4716  -42.8867 C.3       3 UNK        -0.1800 
     59 N          -0.4484  -12.3766  -44.4823 N.am      3 UNK        -0.5000 
     60 C           0.1007  -12.3790  -45.6972 C.2       2 UNK         0.5000 
     61 O           0.8539  -11.4994  -46.1242 O.2       2 UNK        -0.5000 
     62 CA         -0.2634  -13.5736  -46.5851 C.3       2 UNK         0.1400 
     63 CB         -1.5985  -13.3485  -47.3162 C.3       2 UNK        -0.1800 
     64 N           0.8044  -13.7741  -47.5526 N.am      2 UNK        -0.5000 
     65 C           1.1224  -14.9417  -48.1198 C.2       1 UNK         0.5000 
     66 O           0.5195  -15.9893  -47.8973 O.2       1 UNK        -0.5000 
     67 C          -1.0970  -22.8474  -48.0692 C.2       11 UNK         0.5000 
     68 O          -1.1293  -23.7537  -48.9027 O.2       11 UNK        -0.5000 
     69 N          -2.0917  -22.6157  -47.1994 N.am      12 UNK        -0.5000 
     70 CA         -3.3027  -23.4323  -47.0975 C.3       12 UNK         0.1400 
     71 CB         -4.3157  -22.7475  -46.1699 C.3       12 UNK        -0.1800 
     72 C          -3.0157  -24.8769  -46.6460 C.2       12 UNK         0.5000 
     73 O          -3.5832  -25.8084  -47.2151 O.2       12 UNK        -0.5000 
     74 N          -2.0994  -25.0486  -45.6827 N.am      13 UNK        -0.5000 
     75 CA         -1.6045  -26.3463  -45.2116 C.3       13 UNK         0.1400 
     76 CB         -0.7319  -26.1408  -43.9646 C.3       13 UNK        -0.1800 
     77 C          -0.8322  -27.1302  -46.2912 C.2       13 UNK         0.5000 
     78 O          -0.8782  -28.3605  -46.2972 O.2       13 UNK        -0.5000 
     79 N          -0.1806  -26.4070  -47.2122 N.am      14 UNK        -0.5000 
     80 CA          0.4603  -26.9449  -48.4146 C.3       14 UNK         0.1400 
     81 CB          1.5527  -25.9661  -48.8781 C.3       14 UNK        -0.1800 
     82 C          -0.5380  -27.2525  -49.5551 C.2       14 UNK         0.5000 
     83 O          -0.1071  -27.6972  -50.6198 O.2       14 UNK        -0.5000 
     84 N          -1.8395  -27.0206  -49.3194 N.am      15 UNK        -0.5000 
     85 CA         -2.9753  -27.2438  -50.2185 C.3       15 UNK         0.1400 
     86 CB         -3.1149  -28.7373  -50.5830 C.3       15 UNK        -0.1800 
     87 C          -2.9762  -26.3124  -51.4471 C.2       15 UNK         0.5000 
     88 O          -3.4638  -26.7004  -52.5102 O.2       15 UNK        -0.5000 
     89 N          -2.4514  -25.0931  -51.2788 N.am      16 UNK        -0.5000 
     90 CA         -2.3838  -24.0663  -52.3118 C.3       16 UNK         0.1400 
     91 CB         -1.0894  -24.2369  -53.1310 C.3       16 UNK        -0.1800 
     92 C          -2.4989  -22.6939  -51.6384 C.2       16 UNK         0.5000 
     93 O          -1.5452  -21.9196  -51.6671 O.2       16 UNK        -0.5000 
     94 N          -3.6447  -22.4485  -50.9834 N.am      17 UNK        -0.5000 
     95 CA         -3.9521  -21.2306  -50.2260 C.3       17 UNK         0.1400 
     96 CB         -5.3917  -21.3106  -49.6957 C.3       17 UNK        -0.1800 
     97 C          -3.7475  -19.9485  -51.0534 C.2       17 UNK         0.5000 
     98 O          -4.2969  -19.8505  -52.1540 O.2       17 UNK        -0.5000 
     99 N          -2.9536  -19.0199  -50.5029 N.am      18 UNK        -0.5000 
    100 CA        -2.4307  -17.8127  -51.1442 C.3       18 UNK         0.1400 
    101 CB        -1.6401  -17.0042  -50.1053 C.3       18 UNK        -0.1800 
    102 C         -3.5119  -16.9490  -51.8187 C.2       18 UNK         0.5000 
    103 O         -4.2818  -16.2792  -51.1282 O.2       18 UNK        -0.5000 
    104 N         -3.5526  -17.0206  -53.1564 N.am      19 UNK        -0.5000 
    105 CA        -4.4933  -16.3624  -54.0699 C.3       19 UNK         0.1400 
    106 CB        -4.3370  -14.8288  -54.0037 C.3       19 UNK        -0.1800 
    107 C         -5.9623  -16.8161  -53.9078 C.2       19 UNK         0.5000 
    108 O         -6.8616  -16.1318  -54.3996 O.2       19 UNK        -0.5000 
    109 N         -6.1843  -17.9575  -53.2432 N.am      20 UNK        -0.5000 
    110 CA        -7.5019  -18.5266  -52.9634 C.3       20 UNK         0.1400 
    111 CB        -7.7235  -18.5521  -51.4430 C.3       20 UNK        -0.1800 
    112 C         -7.6543  -19.9348  -53.5595 C.2       20 UNK         0.5000 
    113 O         -8.7472  -20.2724  -54.0166 O.2       20 UNK        -0.5000 
    114 N         -6.5741  -20.7277  -53.5593 N.am      21 UNK        -0.5000 
    115 CA        -6.5557  -22.1024  -54.0643 C.3       21 UNK         0.1400 
    116 CB        -6.8904  -23.0814  -52.9227 C.3       21 UNK        -0.1800 
    117 C         -5.2307  -22.4495  -54.7680 C.2       21 UNK         0.5000 
    118 O         -4.9254  -23.6317  -54.9276 O.2       21 UNK        -0.5000 
    119 N         -4.4646  -21.4309  -55.1805 N.am      22 UNK        -0.5000 
    120 CA        -3.2354  -21.5757  -55.9774 C.3       22 UNK         0.1400 
    121 C         -3.4922  -22.2268  -57.3670 C.2       22 UNK         0.5000 
    122 N         -2.5916  -23.0792  -57.8372 N.am      22 UNK        -0.7600 
    123 O         -4.4764  -21.9298  -58.0411 O.2       22 UNK        -0.5000 
    124 C124       -2.5112  -20.2200  -56.1637 C.3       23 UNK        -0.0398 
    125 S125       -1.9271  -19.4998  -54.5947 S.3       23 UNK        -0.2404 
    126 C126       -0.1962  -20.0565  -54.5833 C.3       23 UNK        -0.0205 
    127 H127        4.9593  -12.0308  -48.3322 H         1 UNK         0.0600 
    128 H128        6.1079  -13.1149  -47.5425 H         1 UNK         0.0600 
    129 H129        4.8775  -12.2816  -46.5861 H         1 UNK         0.0600 
    130 H130        3.3559  -13.1322  -49.4209 H         1 UNK         0.3000 
    131 H131        2.7896  -15.9161  -49.0232 H         1 UNK         0.0600 
    132 H132        1.0034  -15.5260  -50.7502 H         1 UNK         0.0800 
    133 H133        1.3133  -13.8098  -50.6982 H         1 UNK         0.0800 
    134 H134        1.3249  -15.3254  -53.3862 H         1 UNK         0.0800 
    135 H135        2.8534  -15.9060  -53.9980 H         1 UNK         0.0800 
    136 H136        0.6896  -17.4972  -54.6270 H         1 UNK         0.1150 
    137 H137        0.7584  -21.0314  -52.2117 H         1 UNK         0.1150 
    138 H138        2.8685  -17.5478  -50.9253 H         1 UNK         0.1150 
    139 H139        2.2582  -21.1691  -50.3243 H         1 UNK         0.0800 
    140 H140        3.4061  -19.8837  -50.0653 H         1 UNK         0.0800 
    141 H141       -0.2758  -20.8196  -49.7767 H         1 UNK         0.0800 
    142 H142       -0.8497  -20.0480  -48.3223 H         1 UNK         0.0800 
    143 H143        0.9752  -22.4996  -48.4259 H         1 UNK         0.0600 
    144 H144        0.3873  -20.8089  -46.1818 H         1 UNK         0.3000 
    145 H145        1.2198  -23.2281  -43.6754 H         1 UNK         0.0600 
    146 H146        2.7547  -21.3896  -43.0228 H         1 UNK         0.0600 
    147 H147        3.3866  -22.2438  -44.4236 H         1 UNK         0.0600 
    148 H148        2.6206  -20.6726  -44.6266 H         1 UNK         0.0600 
    149 H149        0.4171  -20.5210  -43.4362 H         1 UNK         0.3000 
    150 H150       -3.1235  -21.0288  -43.5878 H         1 UNK         0.0600 
    151 H151       -2.5796  -21.5845  -41.2552 H         1 UNK         0.0600 
    152 H152       -2.9456  -19.8704  -41.3725 H         1 UNK         0.0600 
    153 H153       -1.2732  -20.4136  -41.2254 H         1 UNK         0.0600 
    154 H154       -1.5234  -18.7115  -43.1310 H         1 UNK         0.3000 
    155 H155       -1.0544  -17.7334  -46.4921 H         1 UNK         0.0600 
    156 H156       -3.1149  -16.6759  -44.4813 H         1 UNK         0.0600 
    157 H157       -2.4264  -15.7782  -45.8336 H         1 UNK         0.0600 
    158 H158       -3.4592  -17.1628  -46.1374 H         1 UNK         0.0600 
    159 H159       -0.7234  -16.4585  -43.9086 H         1 UNK         0.3000 
    160 H160        2.7399  -17.4067  -43.6081 H         1 UNK         0.0600 
    161 H161        2.8244  -14.9820  -43.2780 H         1 UNK         0.0600 
    162 H162        1.1401  -14.7957  -43.7596 H         1 UNK         0.0600 
    163 H163        2.3475  -15.2818  -44.9413 H         1 UNK         0.0600 
    164 H164        1.2160  -16.1150  -41.6769 H         1 UNK         0.3000 
    165 H165       -0.6315  -18.2963  -40.1030 H         1 UNK         0.0600 
    166 H166        0.7970  -18.9344  -38.1695 H         1 UNK         0.0600 
    167 H167        1.1037  -19.9855  -39.5394 H         1 UNK         0.0600 
    168 H168        2.2488  -18.7090  -39.1463 H         1 UNK         0.0600 
    169 H169        1.1915  -16.5082  -38.8109 H         1 UNK         0.3000 
    170 H170       -0.3206  -14.4539  -38.0337 H         1 UNK         0.0600 
    171 H171        1.5832  -12.9018  -38.6828 H         1 UNK         0.0600 
    172 H172        1.7138  -13.7195  -40.2357 H         1 UNK         0.0600 
    173 H173        2.0908  -14.5733  -38.7431 H         1 UNK         0.0600 
    174 H174       -1.3258  -13.5123  -40.5470 H         1 UNK         0.3000 
    175 H175       -2.9817  -11.6068  -40.2448 H         1 UNK         0.0600 
    176 H176       -2.9379   -9.1371  -39.9941 H         1 UNK         0.0600 
    177 H177       -1.4235   -9.2301  -39.0958 H         1 UNK         0.0600 
    178 H178       -2.8971   -9.9183  -38.4222 H         1 UNK         0.0600 
    179 H179       -0.7042  -10.0602  -41.2798 H         1 UNK         0.3000 
    180 H180       -0.4574  -10.3957  -43.8120 H         1 UNK         0.0600 
    181 H181        1.4253  -12.4638  -42.4959 H         1 UNK         0.0600 
    182 H182        1.3612  -10.7564  -42.0803 H         1 UNK         0.0600 
    183 H183        1.9276  -11.2440  -43.6622 H         1 UNK         0.0600 
    184 H184       -1.1046  -13.1017  -44.2149 H         1 UNK         0.3000 
    185 H185       -0.3404  -14.4578  -45.9490 H         1 UNK         0.0600 
    186 H186       -2.4120  -13.1882  -46.6078 H         1 UNK         0.0600 
    187 H187       -1.5545  -12.4773  -47.9708 H         1 UNK         0.0600 
    188 H188       -1.8656  -14.2120  -47.9261 H         1 UNK         0.0600 
    189 H189        1.3750  -12.9562  -47.7259 H         1 UNK         0.3000 
    190 H190       -2.0146  -21.8281  -46.5628 H         1 UNK         0.3000 
    191 H191       -3.7442  -23.4890  -48.0939 H         1 UNK         0.0600 
    192 H192       -4.5387  -21.7349  -46.5068 H         1 UNK         0.0600 
    193 H193       -5.2564  -23.2988  -46.1477 H         1 UNK         0.0600 
    194 H194       -3.9484  -22.6870  -45.1460 H         1 UNK         0.0600 
    195 H195       -1.7347  -24.2270  -45.2052 H         1 UNK         0.3000 
    196 H196       -2.4698  -26.9477  -44.9255 H         1 UNK         0.0600 
    197 H197       -0.3696  -27.0944  -43.5787 H         1 UNK         0.0600 
    198 H198       -1.2946  -25.6595  -43.1646 H         1 UNK         0.0600 
    199 H199        0.1388  -25.5216  -44.1810 H         1 UNK         0.0600 
    200 H200       -0.1582  -25.4004  -47.1058 H         1 UNK         0.3000 
    201 H201        0.9470  -27.8871  -48.1548 H         1 UNK         0.0600 
    202 H202        2.2623  -25.7585  -48.0769 H         1 UNK         0.0600 
    203 H203        1.1337  -25.0160  -49.2074 H         1 UNK         0.0600 
    204 H204        2.1195  -26.3786  -49.7134 H         1 UNK         0.0600 
    205 H205       -2.0923  -26.6308  -48.4190 H         1 UNK         0.3000 
    206 H206       -3.8634  -26.9718  -49.6471 H         1 UNK         0.0600 
    207 H207       -3.1134  -29.3626  -49.6901 H         1 UNK         0.0600 
    208 H208       -4.0527  -28.9253  -51.1068 H         1 UNK         0.0600 
    209 H209       -2.3070  -29.0755  -51.2322 H         1 UNK         0.0600 
    210 H210       -2.0587  -24.8320  -50.3780 H         1 UNK         0.3000 
    211 H211       -3.2356  -24.1612  -52.9861 H         1 UNK         0.0600 
    212 H212       -0.2038  -24.1748  -52.4972 H         1 UNK         0.0600 
    213 H213       -1.0049  -23.4637  -53.8947 H         1 UNK         0.0600 
    214 H214       -1.0693  -25.2004  -53.6402 H         1 UNK         0.0600 
    215 H215       -4.3620  -23.1568  -51.0004 H         1 UNK         0.3000 
    216 H216       -3.2768  -21.2041  -49.3701 H         1 UNK         0.0600 
    217 H217       -5.6283  -20.4410  -49.0812 H         1 UNK         0.0600 
    218 H218       -5.5423  -22.1936  -49.0755 H         1 UNK         0.0600 
    219 H219       -6.1194  -21.3458  -50.5064 H         1 UNK         0.0600 
    220 H220       -2.6039  -19.1889  -49.5733 H         1 UNK         0.3000 
    221 H221       -1.7215  -18.1372  -51.9079 H         1 UNK         0.0600 
    222 H222       -2.2437  -16.7666  -49.2284 H         1 UNK         0.0600 
    223 H223       -0.7597  -17.5528  -49.7694 H         1 UNK         0.0600 
    224 H224       -1.2927  -16.0605  -50.5260 H         1 UNK         0.0600 
    225 H225       -2.9081  -17.6611  -53.6049 H         1 UNK         0.3000 
    226 H226       -4.1982  -16.6768  -55.0719 H         1 UNK         0.0600 
    227 H227       -3.2958  -14.5327  -54.1319 H         1 UNK         0.0600 
    228 H228       -4.9098  -14.3412  -54.7933 H         1 UNK         0.0600 
    229 H229       -4.6862  -14.4265  -53.0525 H         1 UNK         0.0600 
    230 H230       -5.3857  -18.4651  -52.8736 H         1 UNK         0.3000 
    231 H231       -8.2881  -17.9105  -53.4042 H         1 UNK         0.0600 
    232 H232       -6.9420  -19.1127  -50.9314 H         1 UNK         0.0600 
    233 H233       -8.6805  -19.0110  -51.1915 H         1 UNK         0.0600 
    234 H234       -7.7281  -17.5422  -51.0328 H         1 UNK         0.0600 
    235 H235       -5.7129  -20.4024  -53.1230 H         1 UNK         0.3000 
    236 H236       -7.3220  -22.2118  -54.8344 H         1 UNK         0.0600 
    237 H237       -7.8346  -22.8238  -52.4428 H         1 UNK         0.0600 
    238 H238       -6.9875  -24.1018  -53.2953 H         1 UNK         0.0600 
    239 H239       -6.1152  -23.0856  -52.1588 H         1 UNK         0.0600 
    240 H240       -4.7863  -20.4884  -55.0248 H         1 UNK         0.3000 
    241 H241       -2.5721  -22.2383  -55.4184 H         1 UNK         0.0600 
    242 H242       -1.7723  -23.3343  -57.3080 H         1 UNK         0.3800 
    243 H243       -2.7404  -23.4951  -58.7438 H         1 UNK         0.3800 
    244 H244       -1.6599  -20.3253  -56.8386 H         1 UNK         0.0800 
    245 H245       -3.1774  -19.4988  -56.6402 H         1 UNK         0.0800 
    246 H246        0.2577  -19.8773  -55.5589 H         1 UNK         0.0800 
    247 H247       -0.1708  -21.1350  -54.4210 H         1 UNK         0.0800 
@<TRIPOS>BOND
     1    1    2 1    
     2    1  127 1    
     3    1  128 1    
     4    1  129 1    
     5    2    3 2    
     6    2    4 am   BACKBONE|DICT|INTERRES
     7    4    5 1    
     8    4  130 1    
     9    5    6 1    
    10    5   65 1    
    11    5  131 1    
    12    6    7 1    
    13    6  132 1    
    14    6  133 1    
    15    7    8 1    
    16    8    9 1    
    17    8  134 1    
    18    8  135 1    
    19    9   10 ar   
    20    9   14 ar   
    21   10   11 ar   
    22   10  136 1    
    23   11   12 ar   
    24   11  126 1    
    25   12   13 ar   
    26   12  137 1    
    27   13   14 ar   
    28   13   15 1    
    29   14  138 1    
    30   15   16 1    
    31   15  139 1    
    32   15  140 1    
    33   16   17 1    
    34   17   18 1    
    35   17  141 1    
    36   17  142 1    
    37   18   19 1    
    38   18   67 1    
    39   18  143 1    
    40   19   20 am   BACKBONE|DICT|INTERRES
    41   19  144 1    
    42   20   21 2    
    43   20   22 1    
    44   22   23 1    
    45   22   24 1    
    46   22  145 1    
    47   23  146 1    
    48   23  147 1    
    49   23  148 1    
    50   24   25 am   BACKBONE|DICT|INTERRES
    51   24  149 1    
    52   25   26 2    
    53   25   27 1    
    54   27   28 1    
    55   27   29 1    
    56   27  150 1    
    57   28  151 1    
    58   28  152 1    
    59   28  153 1    
    60   29   30 am   BACKBONE|DICT|INTERRES
    61   29  154 1    
    62   30   31 2    
    63   30   32 1    
    64   32   33 1    
    65   32   34 1    
    66   32  155 1    
    67   33  156 1    
    68   33  157 1    
    69   33  158 1    
    70   34   35 am   BACKBONE|DICT|INTERRES
    71   34  159 1    
    72   35   36 2    
    73   35   37 1    
    74   37   38 1    
    75   37   39 1    
    76   37  160 1    
    77   38  161 1    
    78   38  162 1    
    79   38  163 1    
    80   39   40 am   BACKBONE|DICT|INTERRES
    81   39  164 1    
    82   40   41 2    
    83   40   42 1    
    84   42   43 1    
    85   42   44 1    
    86   42  165 1    
    87   43  166 1    
    88   43  167 1    
    89   43  168 1    
    90   44   45 am   BACKBONE|DICT|INTERRES
    91   44  169 1    
    92   45   46 2    
    93   45   47 1    
    94   47   48 1    
    95   47   49 1    
    96   47  170 1    
    97   48  171 1    
    98   48  172 1    
    99   48  173 1    
   100   49   50 am   BACKBONE|DICT|INTERRES
   101   49  174 1    
   102   50   51 2    
   103   50   52 1    
   104   52   53 1    
   105   52   54 1    
   106   52  175 1    
   107   53  176 1    
   108   53  177 1    
   109   53  178 1    
   110   54   55 am   BACKBONE|DICT|INTERRES
   111   54  179 1    
   112   55   56 2    
   113   55   57 1    
   114   57   58 1    
   115   57   59 1    
   116   57  180 1    
   117   58  181 1    
   118   58  182 1    
   119   58  183 1    
   120   59   60 am   BACKBONE|DICT|INTERRES
   121   59  184 1    
   122   60   61 2    
   123   60   62 1    
   124   62   63 1    
   125   62   64 1    
   126   62  185 1    
   127   63  186 1    
   128   63  187 1    
   129   63  188 1    
   130   64   65 am   BACKBONE|DICT|INTERRES
   131   64  189 1    
   132   65   66 2    
   133   67   68 2    
   134   67   69 am   BACKBONE|DICT|INTERRES
   135   69   70 1    
   136   69  190 1    
   137   70   71 1    
   138   70   72 1    
   139   70  191 1    
   140   71  192 1    
   141   71  193 1    
   142   71  194 1    
   143   72   73 2    
   144   72   74 am   BACKBONE|DICT|INTERRES
   145   74   75 1    
   146   74  195 1    
   147   75   76 1    
   148   75   77 1    
   149   75  196 1    
   150   76  197 1    
   151   76  198 1    
   152   76  199 1    
   153   77   78 2    
   154   77   79 am   BACKBONE|DICT|INTERRES
   155   79   80 1    
   156   79  200 1    
   157   80   81 1    
   158   80   82 1    
   159   80  201 1    
   160   81  202 1    
   161   81  203 1    
   162   81  204 1    
   163   82   83 2    
   164   82   84 am   BACKBONE|DICT|INTERRES
   165   84   85 1    
   166   84  205 1    
   167   85   86 1    
   168   85   87 1    
   169   85  206 1    
   170   86  207 1    
   171   86  208 1    
   172   86  209 1    
   173   87   88 2    
   174   87   89 am   BACKBONE|DICT|INTERRES
   175   89   90 1    
   176   89  210 1    
   177   90   91 1    
   178   90   92 1    
   179   90  211 1    
   180   91  212 1    
   181   91  213 1    
   182   91  214 1    
   183   92   93 2    
   184   92   94 am   BACKBONE|DICT|INTERRES
   185   94   95 1    
   186   94  215 1    
   187   95   96 1    
   188   95   97 1    
   189   95  216 1    
   190   96  217 1    
   191   96  218 1    
   192   96  219 1    
   193   97   98 2    
   194   97   99 am   BACKBONE|DICT|INTERRES
   195   99  100 1    
   196   99  220 1    
   197  100  101 1    
   198  100  102 1    
   199  100  221 1    
   200  101  222 1    
   201  101  223 1    
   202  101  224 1    
   203  102  103 2    
   204  102  104 am   BACKBONE|DICT|INTERRES
   205  104  105 1    
   206  104  225 1    
   207  105  106 1    
   208  105  107 1    
   209  105  226 1    
   210  106  227 1    
   211  106  228 1    
   212  106  229 1    
   213  107  108 2    
   214  107  109 am   BACKBONE|DICT|INTERRES
   215  109  110 1    
   216  109  230 1    
   217  110  111 1    
   218  110  112 1    
   219  110  231 1    
   220  111  232 1    
   221  111  233 1    
   222  111  234 1    
   223  112  113 2    
   224  112  114 am   BACKBONE|DICT|INTERRES
   225  114  115 1    
   226  114  235 1    
   227  115  116 1    
   228  115  117 1    
   229  115  236 1    
   230  116  237 1    
   231  116  238 1    
   232  116  239 1    
   233  117  118 2    
   234  117  119 am   BACKBONE|DICT|INTERRES
   235  119  120 1    
   236  119  240 1    
   237  120  121 1    
   238  120  124 1    
   239  120  241 1    
   240  121  122 am   BACKBONE|DICT|INTERRES
   241  121  123 2    
   242  122  242 1    
   243  122  243 1    
   244  124  125 1    
   245  124  244 1    
   246  124  245 1    
   247  125  126 1    
   248  126  246 1    
   249  126  247 1    
@<TRIPOS>SUBSTRUCTURE
     1 UNK         1 GROUP             0       ****    0 ROOT    
