@<TRIPOS>MOLECULE
3R540
247   249    1
SMALL
USER_CHARGES


@<TRIPOS>ATOM
      1 CA          8.1521  -11.7582  -49.6183 C.3       0 UNK        -0.1800 
      2 C           7.6571  -12.2556  -48.2676 C.2       0 UNK         0.5000 
      3 O           8.4208  -12.2721  -47.3024 O.2       0 UNK        -0.5000 
      4 N           6.3808  -12.6538  -48.1931 N.am      1 UNK        -0.5000 
      5 CA          5.7277  -13.1706  -46.9826 C.3       1 UNK         0.1400 
      6 C6          4.5698  -14.1363  -47.3426 C.3       23 UNK        -0.0398 
      7 S7          3.1335  -13.3317  -48.1433 S.3       23 UNK        -0.2404 
      8 C8          1.7915  -14.4890  -47.7252 C.3       23 UNK        -0.0205 
      9 C9          1.4648  -15.4085  -48.8918 C.ar      23 UNK        -0.0193 
     10 C10         0.2775  -15.2303  -49.6063 C.ar      23 UNK        -0.1150 
     11 C11        -0.0369  -16.0643  -50.6816 C.ar      23 UNK        -0.0193 
     12 C12         0.8563  -17.0716  -51.0558 C.ar      23 UNK        -0.1150 
     13 C13         2.0450  -17.2675  -50.3455 C.ar      23 UNK        -0.0193 
     14 C14         2.3377  -16.4390  -49.2563 C.ar      23 UNK        -0.1150 
     15 C15         3.0226  -18.3597  -50.7659 C.3       23 UNK        -0.0205 
     16 S16         2.2859  -20.0272  -50.7327 S.3       23 UNK        -0.2404 
     17 C17         1.7358  -20.1166  -48.9981 C.3       23 UNK        -0.0398 
     18 CA          1.4616  -21.5499  -48.4811 C.3       11 UNK         0.1400 
     19 N           1.2171  -21.5323  -47.0431 N.am      11 UNK        -0.5000 
     20 C           1.2871  -22.5882  -46.2264 C.2       10 UNK         0.5000 
     21 O           1.6241  -23.7147  -46.5901 O.2       10 UNK        -0.5000 
     22 CA          0.9177  -22.3397  -44.7498 C.3       10 UNK         0.1400 
     23 CB          2.1567  -21.9144  -43.9481 C.3       10 UNK        -0.1800 
     24 N          -0.1395  -21.3388  -44.5772 N.am      10 UNK        -0.5000 
     25 C          -1.3964  -21.4882  -45.0186 C.2       9 UNK         0.5000 
     26 O          -1.8010  -22.4986  -45.5897 O.2       9 UNK        -0.5000 
     27 CA         -2.3532  -20.2972  -44.8390 C.3       9 UNK         0.1400 
     28 CB         -2.8660  -20.2157  -43.3941 C.3       9 UNK        -0.1800 
     29 N          -1.7471  -19.0256  -45.2287 N.am      9 UNK        -0.5000 
     30 C          -1.3400  -18.7285  -46.4711 C.2       8 UNK         0.5000 
     31 O          -1.4754  -19.4850  -47.4324 O.2       8 UNK        -0.5000 
     32 CA         -0.6050  -17.3896  -46.6583 C.3       8 UNK         0.1400 
     33 CB         -1.6015  -16.2239  -46.7417 C.3       8 UNK        -0.1800 
     34 N           0.3706  -17.1364  -45.5957 N.am      8 UNK        -0.5000 
     35 C           1.4384  -17.9102  -45.3508 C.2       7 UNK         0.5000 
     36 O           1.7449  -18.8855  -46.0322 O.2       7 UNK        -0.5000 
     37 CA          2.2733  -17.5803  -44.1035 C.3       7 UNK         0.1400 
     38 CB          3.2830  -16.4611  -44.3891 C.3       7 UNK        -0.1800 
     39 N           1.4299  -17.2156  -42.9675 N.am      7 UNK        -0.5000 
     40 C           0.6514  -18.0822  -42.3040 C.2       6 UNK         0.5000 
     41 O           0.5957  -19.2856  -42.5569 O.2       6 UNK        -0.5000 
     42 CA         -0.2486  -17.4928  -41.2035 C.3       6 UNK         0.1400 
     43 CB          0.5324  -17.3314  -39.8909 C.3       6 UNK        -0.1800 
     44 N          -0.8260  -16.2040  -41.5886 N.am      6 UNK        -0.5000 
     45 C          -1.7146  -16.0422  -42.5790 C.2       5 UNK         0.5000 
     46 O          -2.1703  -16.9698  -43.2458 O.2       5 UNK        -0.5000 
     47 CA         -2.1295  -14.5981  -42.9089 C.3       5 UNK         0.1400 
     48 CB         -3.3122  -14.1622  -42.0315 C.3       5 UNK        -0.1800 
     49 N          -1.0360  -13.6336  -42.7664 N.am      5 UNK        -0.5000 
     50 C           0.0775  -13.6299  -43.5106 C.2       4 UNK         0.5000 
     51 O           0.3365  -14.4811  -44.3648 O.2       4 UNK        -0.5000 
     52 CA          1.0815  -12.4979  -43.2343 C.3       4 UNK         0.1400 
     53 CB          2.3390  -13.0369  -42.5364 C.3       4 UNK        -0.1800 
     54 N           1.4673  -11.8153  -44.4668 N.am      4 UNK        -0.5000 
     55 C           0.6490  -11.0364  -45.1903 C.2       3 UNK         0.5000 
     56 O          -0.5189  -10.8050  -44.8711 O.2       3 UNK        -0.5000 
     57 CA          1.2277  -10.4090  -46.4787 C.3       3 UNK         0.1400 
     58 CB          0.5268   -9.0914  -46.8708 C.3       3 UNK        -0.1800 
     59 N           2.6838  -10.2326  -46.4470 N.am      3 UNK        -0.5000 
     60 C           3.4065   -9.4886  -45.5938 C.2       2 UNK         0.5000 
     61 O           2.9136   -8.7750  -44.7188 O.2       2 UNK        -0.5000 
     62 CA          4.9428   -9.5644  -45.7495 C.3       2 UNK         0.1400 
     63 CB          5.6860   -9.3657  -44.4118 C.3       2 UNK        -0.1800 
     64 N           5.4024  -10.7850  -46.4282 N.am      2 UNK        -0.5000 
     65 C           5.2647  -12.0556  -46.0131 C.2       1 UNK         0.5000 
     66 O           4.7406  -12.3692  -44.9436 O.2       1 UNK        -0.5000 
     67 C           0.3071  -22.2414  -49.2377 C.2       11 UNK         0.5000 
     68 O           0.5462  -23.2227  -49.9431 O.2       11 UNK        -0.5000 
     69 N          -0.9102  -21.7004  -49.1018 N.am      12 UNK        -0.5000 
     70 CA         -2.0599  -22.0590  -49.9257 C.3       12 UNK         0.1400 
     71 CB         -2.8341  -20.7762  -50.2746 C.3       12 UNK        -0.1800 
     72 C          -2.9533  -23.1061  -49.2444 C.2       12 UNK         0.5000 
     73 O          -3.0606  -24.2267  -49.7396 O.2       12 UNK        -0.5000 
     74 N          -3.6009  -22.7282  -48.1338 N.am      13 UNK        -0.5000 
     75 CA         -4.6394  -23.5251  -47.4708 C.3       13 UNK         0.1400 
     76 CB         -5.2831  -22.6994  -46.3475 C.3       13 UNK        -0.1800 
     77 C          -4.1531  -24.8866  -46.9400 C.2       13 UNK         0.5000 
     78 O          -4.8753  -25.8769  -47.0522 O.2       13 UNK        -0.5000 
     79 N          -2.9298  -24.9256  -46.4010 N.am      14 UNK        -0.5000 
     80 CA         -2.2893  -26.1372  -45.8885 C.3       14 UNK         0.1400 
     81 CB         -1.0531  -25.7462  -45.0685 C.3       14 UNK        -0.1800 
     82 C          -1.9120  -27.1499  -46.9874 C.2       14 UNK         0.5000 
     83 O          -1.7658  -28.3353  -46.6848 O.2       14 UNK        -0.5000 
     84 N          -1.7884  -26.6948  -48.2425 N.am      15 UNK        -0.5000 
     85 CA         -1.4970  -27.5246  -49.4109 C.3       15 UNK         0.1400 
     86 CB         -0.7756  -26.6733  -50.4714 C.3       15 UNK        -0.1800 
     87 C          -2.7802  -28.1940  -49.9437 C.2       15 UNK         0.5000 
     88 O          -3.1831  -27.9495  -51.0805 O.2       15 UNK        -0.5000 
     89 N          -3.4039  -29.0229  -49.0949 N.am      16 UNK        -0.5000 
     90 CA         -4.6062  -29.8227  -49.3534 C.3       16 UNK         0.1400 
     91 CB         -4.3038  -30.9346  -50.3804 C.3       16 UNK        -0.1800 
     92 C          -5.8392  -28.9715  -49.7275 C.2       16 UNK         0.5000 
     93 O          -6.5351  -29.2810  -50.6965 O.2       16 UNK        -0.5000 
     94 N          -6.0851  -27.9146  -48.9384 N.am      17 UNK        -0.5000 
     95 CA         -7.2178  -26.9840  -49.0290 C.3       17 UNK         0.1400 
     96 CB         -8.5662  -27.7173  -48.8621 C.3       17 UNK        -0.1800 
     97 C          -7.1884  -26.0660  -50.2681 C.2       17 UNK         0.5000 
     98 O          -8.2171  -25.4825  -50.6138 O.2       17 UNK        -0.5000 
     99 N          -6.0153  -25.8946  -50.8934 N.am      18 UNK        -0.5000 
    100 CA        -5.7910  -25.0480  -52.0702 C.3       18 UNK         0.1400 
    101 CB        -4.5367  -25.5414  -52.8116 C.3       18 UNK        -0.1800 
    102 C         -5.7195  -23.5396  -51.7396 C.2       18 UNK         0.5000 
    103 O         -4.9010  -22.8211  -52.3137 O.2       18 UNK        -0.5000 
    104 N         -6.5959  -23.0672  -50.8412 N.am      19 UNK        -0.5000 
    105 CA        -6.6953  -21.6800  -50.3710 C.3       19 UNK         0.1400 
    106 CB        -7.7771  -21.6013  -49.2842 C.3       19 UNK        -0.1800 
    107 C         -6.9788  -20.6600  -51.4930 C.2       19 UNK         0.5000 
    108 O         -6.5963  -19.4953  -51.3756 O.2       19 UNK        -0.5000 
    109 N         -7.6033  -21.1347  -52.5797 N.am      20 UNK        -0.5000 
    110 CA        -7.8788  -20.3962  -53.8110 C.3       20 UNK         0.1400 
    111 CB        -8.7729  -21.2617  -54.7121 C.3       20 UNK        -0.1800 
    112 C         -6.6198  -19.9422  -54.5793 C.2       20 UNK         0.5000 
    113 O         -6.7359  -19.0582  -55.4289 O.2       20 UNK        -0.5000 
    114 N         -5.4424  -20.5113  -54.2694 N.am      21 UNK        -0.5000 
    115 CA        -4.1506  -20.1423  -54.8612 C.3       21 UNK         0.1400 
    116 CB        -3.0585  -21.0861  -54.3357 C.3       21 UNK        -0.1800 
    117 C         -3.7488  -18.6704  -54.6278 C.2       21 UNK         0.5000 
    118 O         -3.0238  -18.1087  -55.4501 O.2       21 UNK        -0.5000 
    119 N         -4.2497  -18.0671  -53.5417 N.am      22 UNK        -0.5000 
    120 CA        -4.1324  -16.6283  -53.2566 C.3       22 UNK         0.1400 
    121 C         -5.2109  -15.7482  -53.9592 C.2       22 UNK         0.5000 
    122 N         -6.1413  -16.2946  -54.7333 N.am      22 UNK        -0.7600 
    123 O         -5.1950  -14.5290  -53.8134 O.2       22 UNK        -0.5000 
    124 C124       -4.0773  -16.3443  -51.7328 C.3       23 UNK        -0.0398 
    125 S125       -2.6065  -17.0573  -50.9226 S.3       23 UNK        -0.2404 
    126 C126       -1.3342  -15.8650  -51.4458 C.3       23 UNK        -0.0205 
    127 H127        8.4969  -10.7275  -49.5356 H         1 UNK         0.0600 
    128 H128        7.3689  -11.7952  -50.3760 H         1 UNK         0.0600 
    129 H129        8.9856  -12.3712  -49.9611 H         1 UNK         0.0600 
    130 H130        5.7969  -12.6165  -49.0175 H         1 UNK         0.3000 
    131 H131        6.4652  -13.7574  -46.4307 H         1 UNK         0.0600 
    132 H132        4.9365  -14.9246  -48.0011 H         1 UNK         0.0800 
    133 H133        4.2367  -14.6414  -46.4368 H         1 UNK         0.0800 
    134 H134        0.9139  -13.9063  -47.4418 H         1 UNK         0.0800 
    135 H135        2.0419  -15.0851  -46.8493 H         1 UNK         0.0800 
    136 H136       -0.4068  -14.4431  -49.3229 H         1 UNK         0.1150 
    137 H137        0.6205  -17.7121  -51.8941 H         1 UNK         0.1150 
    138 H138        3.2523  -16.5839  -48.6998 H         1 UNK         0.1150 
    139 H139        3.3720  -18.1493  -51.7775 H         1 UNK         0.0800 
    140 H140        3.9084  -18.3533  -50.1288 H         1 UNK         0.0800 
    141 H141        0.8563  -19.4823  -48.8778 H         1 UNK         0.0800 
    142 H142        2.5190  -19.6628  -48.3899 H         1 UNK         0.0800 
    143 H143        2.3654  -22.1390  -48.6519 H         1 UNK         0.0600 
    144 H144        1.0142  -20.6252  -46.6356 H         1 UNK         0.3000 
    145 H145        0.5549  -23.2820  -44.3359 H         1 UNK         0.0600 
    146 H146        1.9238  -21.8096  -42.8883 H         1 UNK         0.0600 
    147 H147        2.9522  -22.6555  -44.0349 H         1 UNK         0.0600 
    148 H148        2.5544  -20.9619  -44.2991 H         1 UNK         0.0600 
    149 H149        0.1109  -20.4922  -44.0757 H         1 UNK         0.3000 
    150 H150       -3.2127  -20.4617  -45.4913 H         1 UNK         0.0600 
    151 H151       -3.3354  -21.1531  -43.0930 H         1 UNK         0.0600 
    152 H152       -3.6126  -19.4288  -43.2859 H         1 UNK         0.0600 
    153 H153       -2.0599  -20.0097  -42.6898 H         1 UNK         0.0600 
    154 H154       -1.6527  -18.3239  -44.4996 H         1 UNK         0.3000 
    155 H155       -0.0616  -17.4429  -47.6030 H         1 UNK         0.0600 
    156 H156       -2.2651  -16.3447  -47.5989 H         1 UNK         0.0600 
    157 H157       -1.0886  -15.2699  -46.8588 H         1 UNK         0.0600 
    158 H158       -2.2246  -16.1590  -45.8502 H         1 UNK         0.0600 
    159 H159        0.2171  -16.3165  -45.0162 H         1 UNK         0.3000 
    160 H160        2.8367  -18.4763  -43.8344 H         1 UNK         0.0600 
    161 H161        3.9109  -16.2639  -43.5203 H         1 UNK         0.0600 
    162 H162        2.7871  -15.5309  -44.6620 H         1 UNK         0.0600 
    163 H163        3.9434  -16.7383  -45.2116 H         1 UNK         0.0600 
    164 H164        1.3772  -16.2357  -42.7343 H         1 UNK         0.3000 
    165 H165       -1.0672  -18.1948  -41.0306 H         1 UNK         0.0600 
    166 H166       -0.1164  -16.9847  -39.0865 H         1 UNK         0.0600 
    167 H167        0.9616  -18.2828  -39.5736 H         1 UNK         0.0600 
    168 H168        1.3521  -16.6190  -39.9925 H         1 UNK         0.0600 
    169 H169       -0.5059  -15.3880  -41.0885 H         1 UNK         0.3000 
    170 H170       -2.4549  -14.5791  -43.9510 H         1 UNK         0.0600 
    171 H171       -4.1498  -14.8536  -42.1344 H         1 UNK         0.0600 
    172 H172       -3.0413  -14.1293  -40.9755 H         1 UNK         0.0600 
    173 H173       -3.6722  -13.1737  -42.3175 H         1 UNK         0.0600 
    174 H174       -1.1741  -12.8971  -42.0894 H         1 UNK         0.3000 
    175 H175        0.6166  -11.7640  -42.5726 H         1 UNK         0.0600 
    176 H176        2.8910  -13.7270  -43.1736 H         1 UNK         0.0600 
    177 H177        3.0157  -12.2252  -42.2681 H         1 UNK         0.0600 
    178 H178        2.0842  -13.5659  -41.6174 H         1 UNK         0.0600 
    179 H179        2.4136  -11.9676  -44.7903 H         1 UNK         0.3000 
    180 H180        1.0295  -11.1306  -47.2723 H         1 UNK         0.0600 
    181 H181        0.6165   -8.3364  -46.0894 H         1 UNK         0.0600 
    182 H182       -0.5371   -9.2511  -47.0495 H         1 UNK         0.0600 
    183 H183        0.9484   -8.6782  -47.7871 H         1 UNK         0.0600 
    184 H184        3.1960  -10.7879  -47.1181 H         1 UNK         0.3000 
    185 H185        5.2171   -8.7348  -46.4024 H         1 UNK         0.0600 
    186 H186        5.4734   -8.3837  -43.9880 H         1 UNK         0.0600 
    187 H187        5.3939  -10.1098  -43.6702 H         1 UNK         0.0600 
    188 H188        6.7655   -9.4319  -44.5468 H         1 UNK         0.0600 
    189 H189        5.8348  -10.6442  -47.3304 H         1 UNK         0.3000 
    190 H190       -1.0402  -20.9143  -48.4670 H         1 UNK         0.3000 
    191 H191       -1.7179  -22.4889  -50.8700 H         1 UNK         0.0600 
    192 H192       -3.2176  -20.2663  -49.3907 H         1 UNK         0.0600 
    193 H193       -3.6799  -20.9890  -50.9254 H         1 UNK         0.0600 
    194 H194       -2.1939  -20.0733  -50.8076 H         1 UNK         0.0600 
    195 H195       -3.4044  -21.8180  -47.7449 H         1 UNK         0.3000 
    196 H196       -5.4090  -23.7312  -48.2172 H         1 UNK         0.0600 
    197 H197       -6.1250  -23.2351  -45.9070 H         1 UNK         0.0600 
    198 H198       -5.6631  -21.7481  -46.7201 H         1 UNK         0.0600 
    199 H199       -4.5759  -22.4900  -45.5449 H         1 UNK         0.0600 
    200 H200       -2.4214  -24.0496  -46.2872 H         1 UNK         0.3000 
    201 H201       -2.9955  -26.6322  -45.2188 H         1 UNK         0.0600 
    202 H202       -1.3146  -25.0665  -44.2574 H         1 UNK         0.0600 
    203 H203       -0.3063  -25.2569  -45.6921 H         1 UNK         0.0600 
    204 H204       -0.5844  -26.6237  -44.6214 H         1 UNK         0.0600 
    205 H205       -2.0067  -25.7242  -48.4322 H         1 UNK         0.3000 
    206 H206       -0.8122  -28.3237  -49.1195 H         1 UNK         0.0600 
    207 H207        0.1266  -26.2162  -50.0644 H         1 UNK         0.0600 
    208 H208       -0.4748  -27.2858  -51.3220 H         1 UNK         0.0600 
    209 H209       -1.4088  -25.8739  -50.8551 H         1 UNK         0.0600 
    210 H210       -2.9977  -29.1191  -48.1700 H         1 UNK         0.3000 
    211 H211       -4.8546  -30.3115  -48.4103 H         1 UNK         0.0600 
    212 H212       -4.0811  -30.5265  -51.3668 H         1 UNK         0.0600 
    213 H213       -5.1548  -31.6077  -50.4898 H         1 UNK         0.0600 
    214 H214       -3.4523  -31.5390  -50.0678 H         1 UNK         0.0600 
    215 H215       -5.4286  -27.7002  -48.1967 H         1 UNK         0.3000 
    216 H216       -7.1257  -26.3138  -48.1749 H         1 UNK         0.0600 
    217 H217       -9.3847  -27.0069  -48.7403 H         1 UNK         0.0600 
    218 H218       -8.5616  -28.3563  -47.9790 H         1 UNK         0.0600 
    219 H219       -8.8039  -28.3379  -49.7262 H         1 UNK         0.0600 
    220 H220       -5.2050  -26.3862  -50.5414 H         1 UNK         0.3000 
    221 H221       -6.6376  -25.1758  -52.7476 H         1 UNK         0.0600 
    222 H222       -3.6393  -25.4163  -52.2045 H         1 UNK         0.0600 
    223 H223       -4.6216  -26.5966  -53.0715 H         1 UNK         0.0600 
    224 H224       -4.3842  -24.9920  -53.7413 H         1 UNK         0.0600 
    225 H225       -7.2799  -23.7230  -50.4798 H         1 UNK         0.3000 
    226 H226       -5.7405  -21.4145  -49.9162 H         1 UNK         0.0600 
    227 H227       -7.5543  -22.2702  -48.4531 H         1 UNK         0.0600 
    228 H228       -7.8492  -20.5918  -48.8772 H         1 UNK         0.0600 
    229 H229       -8.7593  -21.8697  -49.6754 H         1 UNK         0.0600 
    230 H230       -7.8708  -22.1077  -52.5745 H         1 UNK         0.3000 
    231 H231       -8.4327  -19.4950  -53.5404 H         1 UNK         0.0600 
    232 H232       -9.7067  -21.5196  -54.2121 H         1 UNK         0.0600 
    233 H233       -8.2762  -22.1897  -54.9983 H         1 UNK         0.0600 
    234 H234       -9.0340  -20.7328  -55.6298 H         1 UNK         0.0600 
    235 H235       -5.4169  -21.2379  -53.5617 H         1 UNK         0.3000 
    236 H236       -4.2335  -20.2878  -55.9400 H         1 UNK         0.0600 
    237 H237       -2.0944  -20.8641  -54.7948 H         1 UNK         0.0600 
    238 H238       -2.9356  -20.9959  -53.2565 H         1 UNK         0.0600 
    239 H239       -3.2932  -22.1269  -54.5600 H         1 UNK         0.0600 
    240 H240       -4.8433  -18.5987  -52.9193 H         1 UNK         0.3000 
    241 H241       -3.1889  -16.2799  -53.6786 H         1 UNK         0.0600 
    242 H242       -6.8175  -15.6948  -55.1787 H         1 UNK         0.3800 
    243 H243       -6.1794  -17.2942  -54.9056 H         1 UNK         0.3800 
    244 H244       -4.0834  -15.2722  -51.5289 H         1 UNK         0.0800 
    245 H245       -4.9665  -16.7467  -51.2445 H         1 UNK         0.0800 
    246 H246       -1.7016  -14.8480  -51.3006 H         1 UNK         0.0800 
    247 H247       -1.1463  -15.9765  -52.5144 H         1 UNK         0.0800 
@<TRIPOS>BOND
     1    1    2 1    
     2    1  127 1    
     3    1  128 1    
     4    1  129 1    
     5    2    3 2    
     6    2    4 am   BACKBONE|DICT|INTERRES
     7    4    5 1    
     8    4  130 1    
     9    5    6 1    
    10    5   65 1    
    11    5  131 1    
    12    6    7 1    
    13    6  132 1    
    14    6  133 1    
    15    7    8 1    
    16    8    9 1    
    17    8  134 1    
    18    8  135 1    
    19    9   10 ar   
    20    9   14 ar   
    21   10   11 ar   
    22   10  136 1    
    23   11   12 ar   
    24   11  126 1    
    25   12   13 ar   
    26   12  137 1    
    27   13   14 ar   
    28   13   15 1    
    29   14  138 1    
    30   15   16 1    
    31   15  139 1    
    32   15  140 1    
    33   16   17 1    
    34   17   18 1    
    35   17  141 1    
    36   17  142 1    
    37   18   19 1    
    38   18   67 1    
    39   18  143 1    
    40   19   20 am   BACKBONE|DICT|INTERRES
    41   19  144 1    
    42   20   21 2    
    43   20   22 1    
    44   22   23 1    
    45   22   24 1    
    46   22  145 1    
    47   23  146 1    
    48   23  147 1    
    49   23  148 1    
    50   24   25 am   BACKBONE|DICT|INTERRES
    51   24  149 1    
    52   25   26 2    
    53   25   27 1    
    54   27   28 1    
    55   27   29 1    
    56   27  150 1    
    57   28  151 1    
    58   28  152 1    
    59   28  153 1    
    60   29   30 am   BACKBONE|DICT|INTERRES
    61   29  154 1    
    62   30   31 2    
    63   30   32 1    
    64   32   33 1    
    65   32   34 1    
    66   32  155 1    
    67   33  156 1    
    68   33  157 1    
    69   33  158 1    
    70   34   35 am   BACKBONE|DICT|INTERRES
    71   34  159 1    
    72   35   36 2    
    73   35   37 1    
    74   37   38 1    
    75   37   39 1    
    76   37  160 1    
    77   38  161 1    
    78   38  162 1    
    79   38  163 1    
    80   39   40 am   BACKBONE|DICT|INTERRES
    81   39  164 1    
    82   40   41 2    
    83   40   42 1    
    84   42   43 1    
    85   42   44 1    
    86   42  165 1    
    87   43  166 1    
    88   43  167 1    
    89   43  168 1    
    90   44   45 am   BACKBONE|DICT|INTERRES
    91   44  169 1    
    92   45   46 2    
    93   45   47 1    
    94   47   48 1    
    95   47   49 1    
    96   47  170 1    
    97   48  171 1    
    98   48  172 1    
    99   48  173 1    
   100   49   50 am   BACKBONE|DICT|INTERRES
   101   49  174 1    
   102   50   51 2    
   103   50   52 1    
   104   52   53 1    
   105   52   54 1    
   106   52  175 1    
   107   53  176 1    
   108   53  177 1    
   109   53  178 1    
   110   54   55 am   BACKBONE|DICT|INTERRES
   111   54  179 1    
   112   55   56 2    
   113   55   57 1    
   114   57   58 1    
   115   57   59 1    
   116   57  180 1    
   117   58  181 1    
   118   58  182 1    
   119   58  183 1    
   120   59   60 am   BACKBONE|DICT|INTERRES
   121   59  184 1    
   122   60   61 2    
   123   60   62 1    
   124   62   63 1    
   125   62   64 1    
   126   62  185 1    
   127   63  186 1    
   128   63  187 1    
   129   63  188 1    
   130   64   65 am   BACKBONE|DICT|INTERRES
   131   64  189 1    
   132   65   66 2    
   133   67   68 2    
   134   67   69 am   BACKBONE|DICT|INTERRES
   135   69   70 1    
   136   69  190 1    
   137   70   71 1    
   138   70   72 1    
   139   70  191 1    
   140   71  192 1    
   141   71  193 1    
   142   71  194 1    
   143   72   73 2    
   144   72   74 am   BACKBONE|DICT|INTERRES
   145   74   75 1    
   146   74  195 1    
   147   75   76 1    
   148   75   77 1    
   149   75  196 1    
   150   76  197 1    
   151   76  198 1    
   152   76  199 1    
   153   77   78 2    
   154   77   79 am   BACKBONE|DICT|INTERRES
   155   79   80 1    
   156   79  200 1    
   157   80   81 1    
   158   80   82 1    
   159   80  201 1    
   160   81  202 1    
   161   81  203 1    
   162   81  204 1    
   163   82   83 2    
   164   82   84 am   BACKBONE|DICT|INTERRES
   165   84   85 1    
   166   84  205 1    
   167   85   86 1    
   168   85   87 1    
   169   85  206 1    
   170   86  207 1    
   171   86  208 1    
   172   86  209 1    
   173   87   88 2    
   174   87   89 am   BACKBONE|DICT|INTERRES
   175   89   90 1    
   176   89  210 1    
   177   90   91 1    
   178   90   92 1    
   179   90  211 1    
   180   91  212 1    
   181   91  213 1    
   182   91  214 1    
   183   92   93 2    
   184   92   94 am   BACKBONE|DICT|INTERRES
   185   94   95 1    
   186   94  215 1    
   187   95   96 1    
   188   95   97 1    
   189   95  216 1    
   190   96  217 1    
   191   96  218 1    
   192   96  219 1    
   193   97   98 2    
   194   97   99 am   BACKBONE|DICT|INTERRES
   195   99  100 1    
   196   99  220 1    
   197  100  101 1    
   198  100  102 1    
   199  100  221 1    
   200  101  222 1    
   201  101  223 1    
   202  101  224 1    
   203  102  103 2    
   204  102  104 am   BACKBONE|DICT|INTERRES
   205  104  105 1    
   206  104  225 1    
   207  105  106 1    
   208  105  107 1    
   209  105  226 1    
   210  106  227 1    
   211  106  228 1    
   212  106  229 1    
   213  107  108 2    
   214  107  109 am   BACKBONE|DICT|INTERRES
   215  109  110 1    
   216  109  230 1    
   217  110  111 1    
   218  110  112 1    
   219  110  231 1    
   220  111  232 1    
   221  111  233 1    
   222  111  234 1    
   223  112  113 2    
   224  112  114 am   BACKBONE|DICT|INTERRES
   225  114  115 1    
   226  114  235 1    
   227  115  116 1    
   228  115  117 1    
   229  115  236 1    
   230  116  237 1    
   231  116  238 1    
   232  116  239 1    
   233  117  118 2    
   234  117  119 am   BACKBONE|DICT|INTERRES
   235  119  120 1    
   236  119  240 1    
   237  120  121 1    
   238  120  124 1    
   239  120  241 1    
   240  121  122 am   BACKBONE|DICT|INTERRES
   241  121  123 2    
   242  122  242 1    
   243  122  243 1    
   244  124  125 1    
   245  124  244 1    
   246  124  245 1    
   247  125  126 1    
   248  126  246 1    
   249  126  247 1    
@<TRIPOS>SUBSTRUCTURE
     1 UNK         1 GROUP             0       ****    0 ROOT    
