@<TRIPOS>MOLECULE
3R540
247   249    1
SMALL
USER_CHARGES


@<TRIPOS>ATOM
      1 CA          3.5019  -11.3793  -51.4921 C.3       0 UNK        -0.1800 
      2 C           2.4434  -11.6271  -50.4271 C.2       0 UNK         0.5000 
      3 O           1.3158  -11.1512  -50.5625 O.2       0 UNK        -0.5000 
      4 N           2.8054  -12.3542  -49.3610 N.am      1 UNK        -0.5000 
      5 CA          1.9752  -12.7511  -48.2132 C.3       1 UNK         0.1400 
      6 C6          0.7122  -13.5572  -48.6187 C.3       23 UNK        -0.0398 
      7 S7          0.0103  -14.5241  -47.2399 S.3       23 UNK        -0.2404 
      8 C8         -1.0410  -15.7128  -48.1372 C.3       23 UNK        -0.0205 
      9 C9         -0.2308  -16.8221  -48.7939 C.ar      23 UNK        -0.0193 
     10 C10        -0.2811  -17.0208  -50.1773 C.ar      23 UNK        -0.1150 
     11 C11         0.4691  -18.0404  -50.7715 C.ar      23 UNK        -0.0193 
     12 C12         1.2693  -18.8629  -49.9741 C.ar      23 UNK        -0.1150 
     13 C13         1.3104  -18.6906  -48.5884 C.ar      23 UNK        -0.0193 
     14 C14         0.5622  -17.6634  -48.0092 C.ar      23 UNK        -0.1150 
     15 C15         2.1704  -19.5945  -47.7124 C.3       23 UNK        -0.0205 
     16 S16         1.9195  -21.3711  -48.0324 S.3       23 UNK        -0.2404 
     17 C17         0.1155  -21.5428  -47.8370 C.3       23 UNK        -0.0398 
     18 CA         -0.2619  -22.8528  -47.1173 C.3       11 UNK         0.1400 
     19 N           0.2125  -22.8924  -45.7316 N.am      11 UNK        -0.5000 
     20 C           0.2946  -24.0129  -45.0035 C.2       10 UNK         0.5000 
     21 O          -0.0242  -25.1240  -45.4257 O.2       10 UNK        -0.5000 
     22 CA          0.7643  -23.8548  -43.5490 C.3       10 UNK         0.1400 
     23 CB          2.2943  -23.7398  -43.4756 C.3       10 UNK        -0.1800 
     24 N           0.1491  -22.6921  -42.9093 N.am      10 UNK        -0.5000 
     25 C          -1.1379  -22.6379  -42.5357 C.2       9 UNK         0.5000 
     26 O          -1.9289  -23.5708  -42.6789 O.2       9 UNK        -0.5000 
     27 CA         -1.6377  -21.3028  -41.9479 C.3       9 UNK         0.1400 
     28 CB         -1.3254  -21.2221  -40.4464 C.3       9 UNK        -0.1800 
     29 N          -1.0753  -20.1314  -42.6234 N.am      9 UNK        -0.5000 
     30 C          -1.2550  -19.8528  -43.9214 C.2       8 UNK         0.5000 
     31 O          -1.9569  -20.5276  -44.6686 O.2       8 UNK        -0.5000 
     32 CA         -0.4913  -18.6607  -44.5167 C.3       8 UNK         0.1400 
     33 CB         -1.3965  -17.4251  -44.5961 C.3       8 UNK        -0.1800 
     34 N           0.7584  -18.3119  -43.8364 N.am      8 UNK        -0.5000 
     35 C           1.7999  -19.1351  -43.6504 C.2       7 UNK         0.5000 
     36 O           1.7991  -20.3257  -43.9702 O.2       7 UNK        -0.5000 
     37 CA          3.0391  -18.4824  -43.0164 C.3       7 UNK         0.1400 
     38 CB          4.1583  -19.4870  -42.6686 C.3       7 UNK        -0.1800 
     39 N           3.5174  -17.3747  -43.8512 N.am      7 UNK        -0.5000 
     40 C           4.1144  -17.4432  -45.0533 C.2       6 UNK         0.5000 
     41 O           4.4389  -18.4990  -45.5948 O.2       6 UNK        -0.5000 
     42 CA          4.3981  -16.1147  -45.7931 C.3       6 UNK         0.1400 
     43 CB          3.8335  -16.1313  -47.2237 C.3       6 UNK        -0.1800 
     44 N           3.8695  -14.9381  -45.1018 N.am      6 UNK        -0.5000 
     45 C           4.4589  -14.3175  -44.0725 C.2       5 UNK         0.5000 
     46 O           5.5691  -14.6225  -43.6366 O.2       5 UNK        -0.5000 
     47 CA          3.6596  -13.1909  -43.3907 C.3       5 UNK         0.1400 
     48 CB          4.2033  -11.8156  -43.8092 C.3       5 UNK        -0.1800 
     49 N           2.2144  -13.2353  -43.6470 N.am      5 UNK        -0.5000 
     50 C           1.3749  -14.1813  -43.1966 C.2       4 UNK         0.5000 
     51 O           1.7630  -15.2100  -42.6389 O.2       4 UNK        -0.5000 
     52 CA         -0.1376  -13.9567  -43.3969 C.3       4 UNK         0.1400 
     53 CB         -0.9478  -14.4004  -42.1610 C.3       4 UNK        -0.1800 
     54 N          -0.4541  -12.5675  -43.7361 N.am      4 UNK        -0.5000 
     55 C          -1.5781  -12.1637  -44.3454 C.2       3 UNK         0.5000 
     56 O          -2.4888  -12.9186  -44.6869 O.2       3 UNK        -0.5000 
     57 CA         -1.6784  -10.6665  -44.6628 C.3       3 UNK         0.1400 
     58 CB         -1.7645   -9.8090  -43.3865 C.3       3 UNK        -0.1800 
     59 N          -0.5245  -10.2908  -45.4676 N.am      3 UNK        -0.5000 
     60 C          -0.4233   -9.2492  -46.2946 C.2       2 UNK         0.5000 
     61 O          -1.2980   -8.3918  -46.4281 O.2       2 UNK        -0.5000 
     62 CA          0.8664   -9.1641  -47.1387 C.3       2 UNK         0.1400 
     63 CB          2.0335   -8.5876  -46.3132 C.3       2 UNK        -0.1800 
     64 N           1.2510  -10.4238  -47.7968 N.am      2 UNK        -0.5000 
     65 C           1.6408  -11.5860  -47.2540 C.2       1 UNK         0.5000 
     66 O           1.7393  -11.7679  -46.0391 O.2       1 UNK        -0.5000 
     67 C          -1.7747  -23.1323  -47.2295 C.2       11 UNK         0.5000 
     68 O          -2.2075  -23.6717  -48.2466 O.2       11 UNK        -0.5000 
     69 N          -2.5565  -22.7773  -46.2013 N.am      12 UNK        -0.5000 
     70 CA         -3.9756  -23.1066  -46.0866 C.3       12 UNK         0.1400 
     71 CB         -4.6404  -22.2217  -45.0236 C.3       12 UNK        -0.1800 
     72 C          -4.1915  -24.5956  -45.7746 C.2       12 UNK         0.5000 
     73 O          -5.0882  -25.2032  -46.3568 O.2       12 UNK        -0.5000 
     74 N          -3.3398  -25.1763  -44.9153 N.am      13 UNK        -0.5000 
     75 CA         -3.3165  -26.6136  -44.6214 C.3       13 UNK         0.1400 
     76 CB         -2.3817  -26.8861  -43.4337 C.3       13 UNK        -0.1800 
     77 C          -2.9177  -27.4619  -45.8461 C.2       13 UNK         0.5000 
     78 O          -3.4665  -28.5460  -46.0431 O.2       13 UNK        -0.5000 
     79 N          -2.0135  -26.9236  -46.6762 N.am      14 UNK        -0.5000 
     80 CA         -1.6254  -27.4673  -47.9806 C.3       14 UNK         0.1400 
     81 CB         -0.2675  -26.8648  -48.3759 C.3       14 UNK        -0.1800 
     82 C          -2.6692  -27.2159  -49.0933 C.2       14 UNK         0.5000 
     83 O          -2.4743  -27.6903  -50.2120 O.2       14 UNK        -0.5000 
     84 N          -3.7302  -26.4559  -48.7827 N.am      15 UNK        -0.5000 
     85 CA         -4.8578  -26.0325  -49.6227 C.3       15 UNK         0.1400 
     86 CB         -5.5813  -27.2356  -50.2581 C.3       15 UNK        -0.1800 
     87 C          -4.5269  -24.9508  -50.6705 C.2       15 UNK         0.5000 
     88 O          -5.4547  -24.3966  -51.2623 O.2       15 UNK        -0.5000 
     89 N          -3.2403  -24.6322  -50.8617 N.am      16 UNK        -0.5000 
     90 CA         -2.7305  -23.6659  -51.8334 C.3       16 UNK         0.1400 
     91 CB         -1.1941  -23.6827  -51.8120 C.3       16 UNK        -0.1800 
     92 C          -3.2621  -22.2422  -51.6073 C.2       16 UNK         0.5000 
     93 O          -3.7738  -21.6337  -52.5470 O.2       16 UNK        -0.5000 
     94 N          -3.1696  -21.7544  -50.3626 N.am      17 UNK        -0.5000 
     95 CA         -3.6638  -20.4264  -49.9841 C.3       17 UNK         0.1400 
     96 CB         -2.8796  -19.8848  -48.7794 C.3       17 UNK        -0.1800 
     97 C          -5.1761  -20.4186  -49.6994 C.2       17 UNK         0.5000 
     98 O          -5.7949  -19.3590  -49.7910 O.2       17 UNK        -0.5000 
     99 N          -5.7514  -21.5885  -49.3816 N.am      18 UNK        -0.5000 
    100 CA        -7.1877  -21.7608  -49.1492 C.3       18 UNK         0.1400 
    101 CB        -7.4483  -23.0972  -48.4383 C.3       18 UNK        -0.1800 
    102 C         -7.9881  -21.6690  -50.4601 C.2       18 UNK         0.5000 
    103 O         -9.0058  -20.9774  -50.5073 O.2       18 UNK        -0.5000 
    104 N         -7.4884  -22.3359  -51.5102 N.am      19 UNK        -0.5000 
    105 CA        -8.0191  -22.2528  -52.8721 C.3       19 UNK         0.1400 
    106 CB        -7.5556  -23.4914  -53.6558 C.3       19 UNK        -0.1800 
    107 C         -7.5790  -20.9696  -53.6050 C.2       19 UNK         0.5000 
    108 O         -8.1839  -20.6198  -54.6192 O.2       19 UNK        -0.5000 
    109 N         -6.5172  -20.3219  -53.0984 N.am      20 UNK        -0.5000 
    110 CA        -5.7892  -19.1877  -53.6806 C.3       20 UNK         0.1400 
    111 CB        -6.6830  -17.9336  -53.7727 C.3       20 UNK        -0.1800 
    112 C         -5.1080  -19.5498  -55.0187 C.2       20 UNK         0.5000 
    113 O         -4.9086  -18.6847  -55.8734 O.2       20 UNK        -0.5000 
    114 N         -4.7415  -20.8309  -55.1641 N.am      21 UNK        -0.5000 
    115 CA        -4.1118  -21.4195  -56.3451 C.3       21 UNK         0.1400 
    116 CB        -4.0937  -22.9479  -56.1854 C.3       21 UNK        -0.1800 
    117 C         -2.6920  -20.8829  -56.5966 C.2       21 UNK         0.5000 
    118 O         -2.2627  -20.8175  -57.7489 O.2       21 UNK        -0.5000 
    119 N         -2.0054  -20.4884  -55.5177 N.am      22 UNK        -0.5000 
    120 CA        -0.7033  -19.8099  -55.5517 C.3       22 UNK         0.1400 
    121 C         -0.7780  -18.2735  -55.8079 C.2       22 UNK         0.5000 
    122 N         -1.9524  -17.6714  -55.9662 N.am      22 UNK        -0.7600 
    123 O          0.2551  -17.6134  -55.8825 O.2       22 UNK        -0.5000 
    124 C124        0.1550  -20.1740  -54.3150 C.3       23 UNK        -0.0398 
    125 S125       -0.5809  -19.7040  -52.7085 S.3       23 UNK        -0.2404 
    126 C126        0.4375  -18.2585  -52.2739 C.3       23 UNK        -0.0205 
    127 H127        4.4462  -11.8645  -51.2465 H         1 UNK         0.0600 
    128 H128        3.6853  -10.3111  -51.5967 H         1 UNK         0.0600 
    129 H129        3.1632  -11.7634  -52.4538 H         1 UNK         0.0600 
    130 H130        3.7625  -12.6757  -49.3123 H         1 UNK         0.3000 
    131 H131        2.6166  -13.4237  -47.6428 H         1 UNK         0.0600 
    132 H132       -0.0630  -12.9053  -49.0255 H         1 UNK         0.0800 
    133 H133        0.9711  -14.2548  -49.4169 H         1 UNK         0.0800 
    134 H134       -1.6442  -15.1773  -48.8723 H         1 UNK         0.0800 
    135 H135       -1.7446  -16.1627  -47.4359 H         1 UNK         0.0800 
    136 H136       -0.8987  -16.3812  -50.7921 H         1 UNK         0.1150 
    137 H137        1.8506  -19.6496  -50.4343 H         1 UNK         0.1150 
    138 H138        0.6126  -17.4950  -46.9448 H         1 UNK         0.1150 
    139 H139        1.9838  -19.4034  -46.6556 H         1 UNK         0.0800 
    140 H140        3.2194  -19.3552  -47.8877 H         1 UNK         0.0800 
    141 H141       -0.3113  -21.5179  -48.8413 H         1 UNK         0.0800 
    142 H142       -0.2892  -20.6837  -47.3001 H         1 UNK         0.0800 
    143 H143        0.2343  -23.6658  -47.6512 H         1 UNK         0.0600 
    144 H144        0.5110  -22.0192  -45.3189 H         1 UNK         0.3000 
    145 H145        0.4659  -24.7505  -42.9999 H         1 UNK         0.0600 
    146 H146        2.7709  -24.6211  -43.9069 H         1 UNK         0.0600 
    147 H147        2.6346  -23.6583  -42.4432 H         1 UNK         0.0600 
    148 H148        2.6639  -22.8700  -44.0196 H         1 UNK         0.0600 
    149 H149        0.7190  -21.8577  -42.8414 H         1 UNK         0.3000 
    150 H150       -2.7220  -21.2723  -42.0737 H         1 UNK         0.0600 
    151 H151       -0.2512  -21.2168  -40.2574 H         1 UNK         0.0600 
    152 H152       -1.7485  -22.0748  -39.9137 H         1 UNK         0.0600 
    153 H153       -1.7493  -20.3208  -40.0033 H         1 UNK         0.0600 
    154 H154       -0.4781  -19.5284  -42.0778 H         1 UNK         0.3000 
    155 H155       -0.2321  -18.9584  -45.5320 H         1 UNK         0.0600 
    156 H156       -0.9124  -16.6229  -45.1494 H         1 UNK         0.0600 
    157 H157       -1.6551  -17.0495  -43.6058 H         1 UNK         0.0600 
    158 H158       -2.3286  -17.6541  -45.1148 H         1 UNK         0.0600 
    159 H159        0.8519  -17.3541  -43.5277 H         1 UNK         0.3000 
    160 H160        2.7086  -18.0338  -42.0783 H         1 UNK         0.0600 
    161 H161        4.4937  -20.0526  -43.5379 H         1 UNK         0.0600 
    162 H162        3.8083  -20.2117  -41.9327 H         1 UNK         0.0600 
    163 H163        5.0240  -18.9810  -42.2415 H         1 UNK         0.0600 
    164 H164        3.2663  -16.4546  -43.5092 H         1 UNK         0.3000 
    165 H165        5.4838  -16.0245  -45.8663 H         1 UNK         0.0600 
    166 H166        4.1672  -15.2595  -47.7856 H         1 UNK         0.0600 
    167 H167        4.1665  -17.0100  -47.7769 H         1 UNK         0.0600 
    168 H168        2.7445  -16.1337  -47.2242 H         1 UNK         0.0600 
    169 H169        2.9524  -14.6214  -45.3795 H         1 UNK         0.3000 
    170 H170        3.8057  -13.2988  -42.3139 H         1 UNK         0.0600 
    171 H171        3.6617  -11.0079  -43.3169 H         1 UNK         0.0600 
    172 H172        4.1295  -11.6624  -44.8862 H         1 UNK         0.0600 
    173 H173        5.2549  -11.7137  -43.5379 H         1 UNK         0.0600 
    174 H174        1.8619  -12.5145  -44.2685 H         1 UNK         0.3000 
    175 H175       -0.4233  -14.5839  -44.2407 H         1 UNK         0.0600 
    176 H176       -0.7358  -15.4363  -41.8943 H         1 UNK         0.0600 
    177 H177       -0.7164  -13.7835  -41.2922 H         1 UNK         0.0600 
    178 H178       -2.0206  -14.3346  -42.3415 H         1 UNK         0.0600 
    179 H179        0.2268  -11.8772  -43.4531 H         1 UNK         0.3000 
    180 H180       -2.5846  -10.5112  -45.2524 H         1 UNK         0.0600 
    181 H181       -0.8528   -9.8722  -42.7916 H         1 UNK         0.0600 
    182 H182       -2.5940  -10.1316  -42.7560 H         1 UNK         0.0600 
    183 H183       -1.9310   -8.7592  -43.6280 H         1 UNK         0.0600 
    184 H184        0.2416  -10.9612  -45.4939 H         1 UNK         0.3000 
    185 H185        0.6624   -8.4620  -47.9486 H         1 UNK         0.0600 
    186 H186        1.7762   -7.6071  -45.9099 H         1 UNK         0.0600 
    187 H187        2.2955   -9.2262  -45.4690 H         1 UNK         0.0600 
    188 H188        2.9255   -8.4631  -46.9272 H         1 UNK         0.0600 
    189 H189        1.1730  -10.4199  -48.8110 H         1 UNK         0.3000 
    190 H190       -2.1636  -22.2133  -45.4525 H         1 UNK         0.3000 
    191 H191       -4.4531  -22.8943  -47.0447 H         1 UNK         0.0600 
    192 H192       -4.5682  -21.1673  -45.2909 H         1 UNK         0.0600 
    193 H193       -5.7003  -22.4589  -44.9242 H         1 UNK         0.0600 
    194 H194       -4.1788  -22.3520  -44.0443 H         1 UNK         0.0600 
    195 H195       -2.6542  -24.6035  -44.4371 H         1 UNK         0.3000 
    196 H196       -4.3263  -26.9104  -44.3302 H         1 UNK         0.0600 
    197 H197       -2.3778  -27.9457  -43.1758 H         1 UNK         0.0600 
    198 H198       -2.7009  -26.3370  -42.5477 H         1 UNK         0.0600 
    199 H199       -1.3536  -26.5985  -43.6520 H         1 UNK         0.0600 
    200 H200       -1.5449  -26.0721  -46.3844 H         1 UNK         0.3000 
    201 H201       -1.5047  -28.5480  -47.8836 H         1 UNK         0.0600 
    202 H202        0.1093  -27.3150  -49.2950 H         1 UNK         0.0600 
    203 H203        0.4816  -27.0334  -47.6019 H         1 UNK         0.0600 
    204 H204       -0.3402  -25.7907  -48.5446 H         1 UNK         0.0600 
    205 H205       -3.7774  -26.1069  -47.8339 H         1 UNK         0.3000 
    206 H206       -5.5622  -25.5692  -48.9339 H         1 UNK         0.0600 
    207 H207       -5.8411  -27.9816  -49.5070 H         1 UNK         0.0600 
    208 H208       -6.5094  -26.9209  -50.7370 H         1 UNK         0.0600 
    209 H209       -4.9741  -27.7217  -51.0218 H         1 UNK         0.0600 
    210 H210       -2.5554  -25.0861  -50.2736 H         1 UNK         0.3000 
    211 H211       -3.0616  -23.9879  -52.8227 H         1 UNK         0.0600 
    212 H212       -0.7995  -23.4152  -50.8307 H         1 UNK         0.0600 
    213 H213       -0.7856  -22.9746  -52.5342 H         1 UNK         0.0600 
    214 H214       -0.8078  -24.6690  -52.0700 H         1 UNK         0.0600 
    215 H215       -2.7750  -22.3443  -49.6377 H         1 UNK         0.3000 
    216 H216       -3.4905  -19.7378  -50.8146 H         1 UNK         0.0600 
    217 H217       -3.2554  -18.9061  -48.4779 H         1 UNK         0.0600 
    218 H218       -1.8277  -19.7502  -49.0289 H         1 UNK         0.0600 
    219 H219       -2.9548  -20.5398  -47.9127 H         1 UNK         0.0600 
    220 H220       -5.1790  -22.4187  -49.3734 H         1 UNK         0.3000 
    221 H221       -7.5261  -20.9584  -48.4897 H         1 UNK         0.0600 
    222 H222       -7.1906  -23.9474  -49.0684 H         1 UNK         0.0600 
    223 H223       -6.8802  -23.1752  -47.5116 H         1 UNK         0.0600 
    224 H224       -8.5032  -23.1962  -48.1795 H         1 UNK         0.0600 
    225 H225       -6.6790  -22.9383  -51.3806 H         1 UNK         0.3000 
    226 H226       -9.1104  -22.2591  -52.8319 H         1 UNK         0.0600 
    227 H227       -7.8860  -24.4109  -53.1721 H         1 UNK         0.0600 
    228 H228       -6.4683  -23.5303  -53.7389 H         1 UNK         0.0600 
    229 H229       -7.9628  -23.4911  -54.6677 H         1 UNK         0.0600 
    230 H230       -6.0899  -20.7261  -52.2773 H         1 UNK         0.3000 
    231 H231       -4.9795  -18.9622  -52.9844 H         1 UNK         0.0600 
    232 H232       -7.4727  -18.0495  -54.5159 H         1 UNK         0.0600 
    233 H233       -6.0975  -17.0574  -54.0541 H         1 UNK         0.0600 
    234 H234       -7.1525  -17.7142  -52.8135 H         1 UNK         0.0600 
    235 H235       -4.8380  -21.4329  -54.3554 H         1 UNK         0.3000 
    236 H236       -4.7227  -21.1683  -57.2148 H         1 UNK         0.0600 
    237 H237       -3.5190  -23.2536  -55.3097 H         1 UNK         0.0600 
    238 H238       -5.1036  -23.3451  -56.0796 H         1 UNK         0.0600 
    239 H239       -3.6460  -23.4274  -57.0570 H         1 UNK         0.0600 
    240 H240       -2.4390  -20.5721  -54.6083 H         1 UNK         0.3000 
    241 H241       -0.1586  -20.2000  -56.4134 H         1 UNK         0.0600 
    242 H242       -1.9737  -16.6788  -56.1391 H         1 UNK         0.3800 
    243 H243       -2.8217  -18.1889  -55.9383 H         1 UNK         0.3800 
    244 H244        1.1567  -19.7534  -54.4123 H         1 UNK         0.0800 
    245 H245        0.3056  -21.2540  -54.2953 H         1 UNK         0.0800 
    246 H246        1.4614  -18.3952  -52.6238 H         1 UNK         0.0800 
    247 H247        0.0511  -17.3776  -52.7888 H         1 UNK         0.0800 
@<TRIPOS>BOND
     1    1    2 1    
     2    1  127 1    
     3    1  128 1    
     4    1  129 1    
     5    2    3 2    
     6    2    4 am   BACKBONE|DICT|INTERRES
     7    4    5 1    
     8    4  130 1    
     9    5    6 1    
    10    5   65 1    
    11    5  131 1    
    12    6    7 1    
    13    6  132 1    
    14    6  133 1    
    15    7    8 1    
    16    8    9 1    
    17    8  134 1    
    18    8  135 1    
    19    9   10 ar   
    20    9   14 ar   
    21   10   11 ar   
    22   10  136 1    
    23   11   12 ar   
    24   11  126 1    
    25   12   13 ar   
    26   12  137 1    
    27   13   14 ar   
    28   13   15 1    
    29   14  138 1    
    30   15   16 1    
    31   15  139 1    
    32   15  140 1    
    33   16   17 1    
    34   17   18 1    
    35   17  141 1    
    36   17  142 1    
    37   18   19 1    
    38   18   67 1    
    39   18  143 1    
    40   19   20 am   BACKBONE|DICT|INTERRES
    41   19  144 1    
    42   20   21 2    
    43   20   22 1    
    44   22   23 1    
    45   22   24 1    
    46   22  145 1    
    47   23  146 1    
    48   23  147 1    
    49   23  148 1    
    50   24   25 am   BACKBONE|DICT|INTERRES
    51   24  149 1    
    52   25   26 2    
    53   25   27 1    
    54   27   28 1    
    55   27   29 1    
    56   27  150 1    
    57   28  151 1    
    58   28  152 1    
    59   28  153 1    
    60   29   30 am   BACKBONE|DICT|INTERRES
    61   29  154 1    
    62   30   31 2    
    63   30   32 1    
    64   32   33 1    
    65   32   34 1    
    66   32  155 1    
    67   33  156 1    
    68   33  157 1    
    69   33  158 1    
    70   34   35 am   BACKBONE|DICT|INTERRES
    71   34  159 1    
    72   35   36 2    
    73   35   37 1    
    74   37   38 1    
    75   37   39 1    
    76   37  160 1    
    77   38  161 1    
    78   38  162 1    
    79   38  163 1    
    80   39   40 am   BACKBONE|DICT|INTERRES
    81   39  164 1    
    82   40   41 2    
    83   40   42 1    
    84   42   43 1    
    85   42   44 1    
    86   42  165 1    
    87   43  166 1    
    88   43  167 1    
    89   43  168 1    
    90   44   45 am   BACKBONE|DICT|INTERRES
    91   44  169 1    
    92   45   46 2    
    93   45   47 1    
    94   47   48 1    
    95   47   49 1    
    96   47  170 1    
    97   48  171 1    
    98   48  172 1    
    99   48  173 1    
   100   49   50 am   BACKBONE|DICT|INTERRES
   101   49  174 1    
   102   50   51 2    
   103   50   52 1    
   104   52   53 1    
   105   52   54 1    
   106   52  175 1    
   107   53  176 1    
   108   53  177 1    
   109   53  178 1    
   110   54   55 am   BACKBONE|DICT|INTERRES
   111   54  179 1    
   112   55   56 2    
   113   55   57 1    
   114   57   58 1    
   115   57   59 1    
   116   57  180 1    
   117   58  181 1    
   118   58  182 1    
   119   58  183 1    
   120   59   60 am   BACKBONE|DICT|INTERRES
   121   59  184 1    
   122   60   61 2    
   123   60   62 1    
   124   62   63 1    
   125   62   64 1    
   126   62  185 1    
   127   63  186 1    
   128   63  187 1    
   129   63  188 1    
   130   64   65 am   BACKBONE|DICT|INTERRES
   131   64  189 1    
   132   65   66 2    
   133   67   68 2    
   134   67   69 am   BACKBONE|DICT|INTERRES
   135   69   70 1    
   136   69  190 1    
   137   70   71 1    
   138   70   72 1    
   139   70  191 1    
   140   71  192 1    
   141   71  193 1    
   142   71  194 1    
   143   72   73 2    
   144   72   74 am   BACKBONE|DICT|INTERRES
   145   74   75 1    
   146   74  195 1    
   147   75   76 1    
   148   75   77 1    
   149   75  196 1    
   150   76  197 1    
   151   76  198 1    
   152   76  199 1    
   153   77   78 2    
   154   77   79 am   BACKBONE|DICT|INTERRES
   155   79   80 1    
   156   79  200 1    
   157   80   81 1    
   158   80   82 1    
   159   80  201 1    
   160   81  202 1    
   161   81  203 1    
   162   81  204 1    
   163   82   83 2    
   164   82   84 am   BACKBONE|DICT|INTERRES
   165   84   85 1    
   166   84  205 1    
   167   85   86 1    
   168   85   87 1    
   169   85  206 1    
   170   86  207 1    
   171   86  208 1    
   172   86  209 1    
   173   87   88 2    
   174   87   89 am   BACKBONE|DICT|INTERRES
   175   89   90 1    
   176   89  210 1    
   177   90   91 1    
   178   90   92 1    
   179   90  211 1    
   180   91  212 1    
   181   91  213 1    
   182   91  214 1    
   183   92   93 2    
   184   92   94 am   BACKBONE|DICT|INTERRES
   185   94   95 1    
   186   94  215 1    
   187   95   96 1    
   188   95   97 1    
   189   95  216 1    
   190   96  217 1    
   191   96  218 1    
   192   96  219 1    
   193   97   98 2    
   194   97   99 am   BACKBONE|DICT|INTERRES
   195   99  100 1    
   196   99  220 1    
   197  100  101 1    
   198  100  102 1    
   199  100  221 1    
   200  101  222 1    
   201  101  223 1    
   202  101  224 1    
   203  102  103 2    
   204  102  104 am   BACKBONE|DICT|INTERRES
   205  104  105 1    
   206  104  225 1    
   207  105  106 1    
   208  105  107 1    
   209  105  226 1    
   210  106  227 1    
   211  106  228 1    
   212  106  229 1    
   213  107  108 2    
   214  107  109 am   BACKBONE|DICT|INTERRES
   215  109  110 1    
   216  109  230 1    
   217  110  111 1    
   218  110  112 1    
   219  110  231 1    
   220  111  232 1    
   221  111  233 1    
   222  111  234 1    
   223  112  113 2    
   224  112  114 am   BACKBONE|DICT|INTERRES
   225  114  115 1    
   226  114  235 1    
   227  115  116 1    
   228  115  117 1    
   229  115  236 1    
   230  116  237 1    
   231  116  238 1    
   232  116  239 1    
   233  117  118 2    
   234  117  119 am   BACKBONE|DICT|INTERRES
   235  119  120 1    
   236  119  240 1    
   237  120  121 1    
   238  120  124 1    
   239  120  241 1    
   240  121  122 am   BACKBONE|DICT|INTERRES
   241  121  123 2    
   242  122  242 1    
   243  122  243 1    
   244  124  125 1    
   245  124  244 1    
   246  124  245 1    
   247  125  126 1    
   248  126  246 1    
   249  126  247 1    
@<TRIPOS>SUBSTRUCTURE
     1 UNK         1 GROUP             0       ****    0 ROOT    
