@<TRIPOS>MOLECULE
3R540
247   249    1
SMALL
USER_CHARGES


@<TRIPOS>ATOM
      1 CA          3.9426  -15.8017  -42.9373 C.3       0 UNK        -0.1800 
      2 C           3.7027  -15.1315  -44.2810 C.2       0 UNK         0.5000 
      3 O           2.7761  -14.3344  -44.4140 O.2       0 UNK        -0.5000 
      4 N           4.5485  -15.4265  -45.2769 N.am      1 UNK        -0.5000 
      5 CA          4.4464  -14.9101  -46.6509 C.3       1 UNK         0.1400 
      6 C6          5.3445  -15.7172  -47.6285 C.3       23 UNK        -0.0398 
      7 S7          4.5115  -16.1150  -49.2032 S.3       23 UNK        -0.2404 
      8 C8          3.4169  -17.4644  -48.6552 C.3       23 UNK        -0.0205 
      9 C9          2.7328  -18.1797  -49.8108 C.ar      23 UNK        -0.0193 
     10 C10         1.8399  -17.5033  -50.6477 C.ar      23 UNK        -0.1150 
     11 C11         1.1798  -18.1756  -51.6803 C.ar      23 UNK        -0.0193 
     12 C12         1.4094  -19.5422  -51.8680 C.ar      23 UNK        -0.1150 
     13 C13         2.3041  -20.2282  -51.0405 C.ar      23 UNK        -0.0193 
     14 C14         2.9667  -19.5403  -50.0207 C.ar      23 UNK        -0.1150 
     15 C15         2.5608  -21.7136  -51.2410 C.3       23 UNK        -0.0205 
     16 S16         1.2759  -22.7380  -50.4610 S.3       23 UNK        -0.2404 
     17 C17         1.3907  -22.2325  -48.7140 C.3       23 UNK        -0.0398 
     18 CA          0.7339  -23.2383  -47.7369 C.3       11 UNK         0.1400 
     19 N           1.3019  -23.0828  -46.3930 N.am      11 UNK        -0.5000 
     20 C           0.9452  -23.7283  -45.2728 C.2       10 UNK         0.5000 
     21 O           0.1150  -24.6387  -45.2364 O.2       10 UNK        -0.5000 
     22 CA          1.5729  -23.2102  -43.9622 C.3       10 UNK         0.1400 
     23 CB          2.7747  -24.0809  -43.5679 C.3       10 UNK        -0.1800 
     24 N           1.9913  -21.7995  -44.0099 N.am      10 UNK        -0.5000 
     25 C           1.1773  -20.7600  -44.2499 C.2       9 UNK         0.5000 
     26 O          -0.0208  -20.8823  -44.5070 O.2       9 UNK        -0.5000 
     27 CA          1.8251  -19.3656  -44.2824 C.3       9 UNK         0.1400 
     28 CB          2.3696  -19.0591  -45.6850 C.3       9 UNK        -0.1800 
     29 N           0.8589  -18.3314  -43.9135 N.am      9 UNK        -0.5000 
     30 C           0.5650  -18.0048  -42.6484 C.2       8 UNK         0.5000 
     31 O           1.1172  -18.5094  -41.6695 O.2       8 UNK        -0.5000 
     32 CA         -0.5049  -16.9216  -42.4268 C.3       8 UNK         0.1400 
     33 CB          0.1392  -15.5275  -42.3763 C.3       8 UNK        -0.1800 
     34 N          -1.5602  -16.9186  -43.4387 N.am      8 UNK        -0.5000 
     35 C          -2.5650  -17.8023  -43.4901 C.2       7 UNK         0.5000 
     36 O          -2.6584  -18.7706  -42.7354 O.2       7 UNK        -0.5000 
     37 CA         -3.6747  -17.5469  -44.5239 C.3       7 UNK         0.1400 
     38 CB         -4.7282  -16.5892  -43.9448 C.3       7 UNK        -0.1800 
     39 N          -3.1587  -16.9773  -45.7696 N.am      7 UNK        -0.5000 
     40 C          -3.2785  -17.5493  -46.9754 C.2       6 UNK         0.5000 
     41 O          -3.8176  -18.6384  -47.1562 O.2       6 UNK        -0.5000 
     42 CA         -2.7332  -16.7817  -48.1977 C.3       6 UNK         0.1400 
     43 CB         -3.8864  -16.1274  -48.9750 C.3       6 UNK        -0.1800 
     44 N          -1.7493  -15.7494  -47.8693 N.am      6 UNK        -0.5000 
     45 C          -0.5165  -15.9889  -47.4065 C.2       5 UNK         0.5000 
     46 O          -0.0694  -17.1136  -47.1862 O.2       5 UNK        -0.5000 
     47 CA          0.3565  -14.7584  -47.1022 C.3       5 UNK         0.1400 
     48 CB          1.0479  -14.2656  -48.3808 C.3       5 UNK        -0.1800 
     49 N          -0.3177  -13.6128  -46.4869 N.am      5 UNK        -0.5000 
     50 C          -1.1727  -13.6113  -45.4583 C.2       4 UNK         0.5000 
     51 O          -1.6909  -14.6246  -44.9892 O.2       4 UNK        -0.5000 
     52 CA         -1.4378  -12.2360  -44.8148 C.3       4 UNK         0.1400 
     53 CB         -2.6094  -12.2730  -43.8171 C.3       4 UNK        -0.1800 
     54 N          -0.2411  -11.7581  -44.1183 N.am      4 UNK        -0.5000 
     55 C           0.8609  -11.2637  -44.6999 C.2       3 UNK         0.5000 
     56 O           0.9481  -11.0687  -45.9152 O.2       3 UNK        -0.5000 
     57 CA          2.0604  -10.9372  -43.7878 C.3       3 UNK         0.1400 
     58 CB          1.9601  -11.5620  -42.3802 C.3       3 UNK        -0.1800 
     59 N           3.2904  -11.4121  -44.4180 N.am      3 UNK        -0.5000 
     60 C           4.2256  -10.6393  -44.9877 C.2       2 UNK         0.5000 
     61 O           4.1572   -9.4099  -45.0327 O.2       2 UNK        -0.5000 
     62 CA          5.4657  -11.3378  -45.5880 C.3       2 UNK         0.1400 
     63 CB          6.7014  -11.0810  -44.7103 C.3       2 UNK        -0.1800 
     64 N           5.2975  -12.7840  -45.7379 N.am      2 UNK        -0.5000 
     65 C           4.6740  -13.3824  -46.7620 C.2       1 UNK         0.5000 
     66 O           4.2638  -12.7755  -47.7508 O.2       1 UNK        -0.5000 
     67 C          -0.8094  -23.1238  -47.7621 C.2       11 UNK         0.5000 
     68 O          -1.4546  -23.8026  -48.5653 O.2       11 UNK        -0.5000 
     69 N          -1.3730  -22.3202  -46.8429 N.am      12 UNK        -0.5000 
     70 CA         -2.8081  -22.1327  -46.6180 C.3       12 UNK         0.1400 
     71 CB         -3.0101  -21.2030  -45.4147 C.3       12 UNK        -0.1800 
     72 C          -3.5762  -23.4434  -46.3813 C.2       12 UNK         0.5000 
     73 O          -4.7186  -23.5579  -46.8247 O.2       12 UNK        -0.5000 
     74 N          -2.9217  -24.4009  -45.7119 N.am      13 UNK        -0.5000 
     75 CA         -3.4308  -25.7443  -45.4645 C.3       13 UNK         0.1400 
     76 CB         -3.1871  -26.1102  -43.9921 C.3       13 UNK        -0.1800 
     77 C          -2.7557  -26.7667  -46.3915 C.2       13 UNK         0.5000 
     78 O          -3.4485  -27.6145  -46.9533 O.2       13 UNK        -0.5000 
     79 N          -1.4248  -26.6756  -46.5395 N.am      14 UNK        -0.5000 
     80 CA         -0.5961  -27.6666  -47.2325 C.3       14 UNK         0.1400 
     81 CB          0.8871  -27.3797  -46.9542 C.3       14 UNK        -0.1800 
     82 C          -0.8556  -27.7740  -48.7466 C.2       14 UNK         0.5000 
     83 O          -0.7663  -28.8760  -49.2896 O.2       14 UNK        -0.5000 
     84 N          -1.1828  -26.6485  -49.3938 N.am      15 UNK        -0.5000 
     85 CA         -1.5405  -26.5790  -50.8144 C.3       15 UNK         0.1400 
     86 CB         -0.4950  -25.7282  -51.5503 C.3       15 UNK        -0.1800 
     87 C          -2.9519  -25.9973  -51.0139 C.2       15 UNK         0.5000 
     88 O          -3.3335  -25.7217  -52.1519 O.2       15 UNK        -0.5000 
     89 N          -3.6903  -25.8027  -49.9102 N.am      16 UNK        -0.5000 
     90 CA         -5.0107  -25.1739  -49.8250 C.3       16 UNK         0.1400 
     91 CB         -6.0781  -26.0364  -50.5309 C.3       16 UNK        -0.1800 
     92 C          -5.0164  -23.7073  -50.3093 C.2       16 UNK         0.5000 
     93 O          -6.0302  -23.2464  -50.8383 O.2       16 UNK        -0.5000 
     94 N          -3.9015  -22.9820  -50.1135 N.am      17 UNK        -0.5000 
     95 CA         -3.6894  -21.6134  -50.6087 C.3       17 UNK         0.1400 
     96 CB         -2.2069  -21.2289  -50.4887 C.3       17 UNK        -0.1800 
     97 C          -4.5977  -20.5325  -49.9810 C.2       17 UNK         0.5000 
     98 O          -4.5315  -19.3774  -50.3956 O.2       17 UNK        -0.5000 
     99 N          -5.4446  -20.9156  -49.0164 N.am      18 UNK        -0.5000 
    100 CA        -6.5390  -20.0923  -48.5080 C.3       18 UNK         0.1400 
    101 CB        -7.0101  -20.6717  -47.1657 C.3       18 UNK        -0.1800 
    102 C         -7.7147  -19.9946  -49.5036 C.2       18 UNK         0.5000 
    103 O         -8.4872  -19.0386  -49.4230 O.2       18 UNK        -0.5000 
    104 N         -7.8356  -20.9753  -50.4104 N.am      19 UNK        -0.5000 
    105 CA        -8.8607  -21.0448  -51.4518 C.3       19 UNK         0.1400 
    106 CB        -9.7256  -22.2951  -51.2234 C.3       19 UNK        -0.1800 
    107 C         -8.2278  -21.0714  -52.8530 C.2       19 UNK         0.5000 
    108 O         -8.7004  -20.3656  -53.7453 O.2       19 UNK        -0.5000 
    109 N         -7.1726  -21.8772  -53.0236 N.am      20 UNK        -0.5000 
    110 CA        -6.3628  -21.9615  -54.2379 C.3       20 UNK         0.1400 
    111 CB        -5.7047  -23.3524  -54.2758 C.3       20 UNK        -0.1800 
    112 C         -5.2944  -20.8516  -54.2704 C.2       20 UNK         0.5000 
    113 O         -5.1397  -20.1161  -53.2947 O.2       20 UNK        -0.5000 
    114 N         -4.5444  -20.7758  -55.3792 N.am      21 UNK        -0.5000 
    115 CA        -3.3769  -19.9095  -55.5845 C.3       21 UNK         0.1400 
    116 CB        -2.1777  -20.4464  -54.7657 C.3       21 UNK        -0.1800 
    117 C         -3.6940  -18.4183  -55.3288 C.2       21 UNK         0.5000 
    118 O         -4.4773  -17.8328  -56.0786 O.2       21 UNK        -0.5000 
    119 N         -3.0897  -17.8422  -54.2840 N.am      22 UNK        -0.5000 
    120 CA        -3.3215  -16.4746  -53.7996 C.3       22 UNK         0.1400 
    121 C         -4.6221  -16.2770  -52.9642 C.2       22 UNK         0.5000 
    122 N         -5.3830  -17.3126  -52.6368 N.am      22 UNK        -0.7600 
    123 O         -4.9648  -15.1465  -52.6279 O.2       22 UNK        -0.5000 
    124 C124       -2.0661  -15.9025  -53.0861 C.3       23 UNK        -0.0398 
    125 S125       -1.3355  -17.0023  -51.8165 S.3       23 UNK        -0.2404 
    126 C126        0.2519  -17.4090  -52.6100 C.3       23 UNK        -0.0205 
    127 H127        4.9005  -16.3213  -42.9093 H         1 UNK         0.0600 
    128 H128        3.1558  -16.5269  -42.7355 H         1 UNK         0.0600 
    129 H129        3.9350  -15.0582  -42.1402 H         1 UNK         0.0600 
    130 H130        5.3091  -16.0678  -45.1012 H         1 UNK         0.3000 
    131 H131        3.4068  -15.0665  -46.9367 H         1 UNK         0.0600 
    132 H132        6.2755  -15.1911  -47.8483 H         1 UNK         0.0800 
    133 H133        5.6561  -16.6629  -47.1828 H         1 UNK         0.0800 
    134 H134        2.6510  -17.0700  -47.9877 H         1 UNK         0.0800 
    135 H135        4.0002  -18.1741  -48.0670 H         1 UNK         0.0800 
    136 H136        1.6577  -16.4494  -50.5038 H         1 UNK         0.1150 
    137 H137        0.8984  -20.0725  -52.6594 H         1 UNK         0.1150 
    138 H138        3.6549  -20.0715  -49.3785 H         1 UNK         0.1150 
    139 H139        2.5923  -21.9388  -52.3080 H         1 UNK         0.0800 
    140 H140        3.5376  -21.9928  -50.8427 H         1 UNK         0.0800 
    141 H141        0.9678  -21.2324  -48.5973 H         1 UNK         0.0800 
    142 H142        2.4530  -22.1397  -48.4840 H         1 UNK         0.0800 
    143 H143        0.9868  -24.2476  -48.0630 H         1 UNK         0.0600 
    144 H144        1.9924  -22.3547  -46.2913 H         1 UNK         0.3000 
    145 H145        0.8124  -23.3023  -43.1842 H         1 UNK         0.0600 
    146 H146        3.1694  -23.7916  -42.5938 H         1 UNK         0.0600 
    147 H147        2.4909  -25.1323  -43.5021 H         1 UNK         0.0600 
    148 H148        3.5835  -24.0044  -44.2957 H         1 UNK         0.0600 
    149 H149        2.9673  -21.6202  -43.8215 H         1 UNK         0.3000 
    150 H150        2.6603  -19.3467  -43.5789 H         1 UNK         0.0600 
    151 H151        3.1487  -19.7673  -45.9689 H         1 UNK         0.0600 
    152 H152        2.8077  -18.0617  -45.7223 H         1 UNK         0.0600 
    153 H153        1.5868  -19.1116  -46.4429 H         1 UNK         0.0600 
    154 H154        0.3188  -17.9239  -44.6641 H         1 UNK         0.3000 
    155 H155       -0.9643  -17.1115  -41.4543 H         1 UNK         0.0600 
    156 H156        0.9391  -15.4867  -41.6359 H         1 UNK         0.0600 
    157 H157       -0.5919  -14.7646  -42.1086 H         1 UNK         0.0600 
    158 H158        0.5672  -15.2528  -43.3400 H         1 UNK         0.0600 
    159 H159       -1.5785  -16.1149  -44.0634 H         1 UNK         0.3000 
    160 H160       -4.1645  -18.5044  -44.7094 H         1 UNK         0.0600 
    161 H161       -4.3069  -15.6038  -43.7404 H         1 UNK         0.0600 
    162 H162       -5.1365  -16.9744  -43.0096 H         1 UNK         0.0600 
    163 H163       -5.5620  -16.4600  -44.6350 H         1 UNK         0.0600 
    164 H164       -2.6770  -16.0863  -45.6946 H         1 UNK         0.3000 
    165 H165       -2.2530  -17.5137  -48.8509 H         1 UNK         0.0600 
    166 H166       -3.5284  -15.6536  -49.8892 H         1 UNK         0.0600 
    167 H167       -4.6292  -16.8696  -49.2700 H         1 UNK         0.0600 
    168 H168       -4.3968  -15.3707  -48.3784 H         1 UNK         0.0600 
    169 H169       -2.0368  -14.7903  -47.9944 H         1 UNK         0.3000 
    170 H170        1.1214  -15.0799  -46.3947 H         1 UNK         0.0600 
    171 H171        1.6860  -15.0377  -48.8028 H         1 UNK         0.0600 
    172 H172        0.3255  -13.9786  -49.1459 H         1 UNK         0.0600 
    173 H173        1.6812  -13.4016  -48.1814 H         1 UNK         0.0600 
    174 H174        0.0781  -12.7088  -46.7231 H         1 UNK         0.3000 
    175 H175       -1.6945  -11.5349  -45.6117 H         1 UNK         0.0600 
    176 H176       -2.4066  -12.9401  -42.9781 H         1 UNK         0.0600 
    177 H177       -2.8151  -11.2812  -43.4143 H         1 UNK         0.0600 
    178 H178       -3.5225  -12.6227  -44.3005 H         1 UNK         0.0600 
    179 H179       -0.2213  -11.9111  -43.1208 H         1 UNK         0.3000 
    180 H180        2.0830   -9.8521  -43.6718 H         1 UNK         0.0600 
    181 H181        1.8542  -12.6471  -42.4224 H         1 UNK         0.0600 
    182 H182        1.1121  -11.1607  -41.8242 H         1 UNK         0.0600 
    183 H183        2.8527  -11.3427  -41.7941 H         1 UNK         0.0600 
    184 H184        3.3708  -12.4206  -44.4931 H         1 UNK         0.3000 
    185 H185        5.6488  -10.8948  -46.5693 H         1 UNK         0.0600 
    186 H186        6.8894  -10.0121  -44.6012 H         1 UNK         0.0600 
    187 H187        6.5776  -11.4962  -43.7093 H         1 UNK         0.0600 
    188 H188        7.5961  -11.5227  -45.1496 H         1 UNK         0.0600 
    189 H189        5.6059  -13.3572  -44.9662 H         1 UNK         0.3000 
    190 H190       -0.7691  -21.8290  -46.1918 H         1 UNK         0.3000 
    191 H191       -3.2204  -21.6473  -47.5015 H         1 UNK         0.0600 
    192 H192       -2.6599  -21.6574  -44.4870 H         1 UNK         0.0600 
    193 H193       -4.0638  -20.9567  -45.2827 H         1 UNK         0.0600 
    194 H194       -2.4697  -20.2662  -45.5461 H         1 UNK         0.0600 
    195 H195       -1.9679  -24.2197  -45.4226 H         1 UNK         0.3000 
    196 H196       -4.5068  -25.7845  -45.6476 H         1 UNK         0.0600 
    197 H197       -3.5495  -27.1156  -43.7738 H         1 UNK         0.0600 
    198 H198       -3.7111  -25.4242  -43.3264 H         1 UNK         0.0600 
    199 H199       -2.1271  -26.0788  -43.7363 H         1 UNK         0.0600 
    200 H200       -0.9203  -25.9462  -46.0417 H         1 UNK         0.3000 
    201 H201       -0.8301  -28.6411  -46.7985 H         1 UNK         0.0600 
    202 H202        1.0953  -27.3797  -45.8841 H         1 UNK         0.0600 
    203 H203        1.1944  -26.4146  -47.3540 H         1 UNK         0.0600 
    204 H204        1.5238  -28.1396  -47.4089 H         1 UNK         0.0600 
    205 H205       -1.2221  -25.7699  -48.8864 H         1 UNK         0.3000 
    206 H206       -1.5465  -27.5745  -51.2621 H         1 UNK         0.0600 
    207 H207        0.5208  -26.0511  -51.3222 H         1 UNK         0.0600 
    208 H208       -0.6253  -25.7958  -52.6309 H         1 UNK         0.0600 
    209 H209       -0.5892  -24.6781  -51.2779 H         1 UNK         0.0600 
    210 H210       -3.2898  -26.0963  -49.0310 H         1 UNK         0.3000 
    211 H211       -5.2680  -25.1513  -48.7668 H         1 UNK         0.0600 
    212 H212       -5.9434  -26.0451  -51.6129 H         1 UNK         0.0600 
    213 H213       -7.0809  -25.6564  -50.3319 H         1 UNK         0.0600 
    214 H214       -6.0480  -27.0676  -50.1793 H         1 UNK         0.0600 
    215 H215       -3.1094  -23.4182  -49.6519 H         1 UNK         0.3000 
    216 H216       -3.9225  -21.6403  -51.6724 H         1 UNK         0.0600 
    217 H217       -2.0020  -20.3002  -51.0232 H         1 UNK         0.0600 
    218 H218       -1.5640  -21.9961  -50.9186 H         1 UNK         0.0600 
    219 H219       -1.9109  -21.0708  -49.4530 H         1 UNK         0.0600 
    220 H220       -5.4205  -21.8776  -48.7106 H         1 UNK         0.3000 
    221 H221       -6.1695  -19.0798  -48.3348 H         1 UNK         0.0600 
    222 H222       -7.3684  -21.6964  -47.2723 H         1 UNK         0.0600 
    223 H223       -6.2013  -20.6732  -46.4353 H         1 UNK         0.0600 
    224 H224       -7.8239  -20.0783  -46.7473 H         1 UNK         0.0600 
    225 H225       -7.1360  -21.7107  -50.4231 H         1 UNK         0.3000 
    226 H226       -9.5125  -20.1700  -51.4079 H         1 UNK         0.0600 
    227 H227      -10.2355  -22.2482  -50.2610 H         1 UNK         0.0600 
    228 H228      -10.4920  -22.3869  -51.9940 H         1 UNK         0.0600 
    229 H229       -9.1285  -23.2079  -51.2407 H         1 UNK         0.0600 
    230 H230       -6.8209  -22.4051  -52.2288 H         1 UNK         0.3000 
    231 H231       -7.0064  -21.8501  -55.1128 H         1 UNK         0.0600 
    232 H232       -6.4494  -24.1442  -54.1918 H         1 UNK         0.0600 
    233 H233       -4.9892  -23.4823  -53.4624 H         1 UNK         0.0600 
    234 H234       -5.1683  -23.5139  -55.2111 H         1 UNK         0.0600 
    235 H235       -4.7653  -21.3904  -56.1497 H         1 UNK         0.3000 
    236 H236       -3.1137  -19.9862  -56.6404 H         1 UNK         0.0600 
    237 H237       -1.2794  -19.8538  -54.9441 H         1 UNK         0.0600 
    238 H238       -2.3733  -20.4436  -53.6926 H         1 UNK         0.0600 
    239 H239       -1.9429  -21.4721  -55.0502 H         1 UNK         0.0600 
    240 H240       -2.5064  -18.4117  -53.6890 H         1 UNK         0.3000 
    241 H241       -3.4766  -15.8511  -54.6822 H         1 UNK         0.0600 
    242 H242       -6.2124  -17.1568  -52.0900 H         1 UNK         0.3800 
    243 H243       -5.1133  -18.2675  -52.8630 H         1 UNK         0.3800 
    244 H244       -1.3101  -15.6831  -53.8407 H         1 UNK         0.0800 
    245 H245       -2.2835  -14.9393  -52.6214 H         1 UNK         0.0800 
    246 H246        0.7495  -16.4884  -52.9190 H         1 UNK         0.0800 
    247 H247        0.0639  -17.9787  -53.5212 H         1 UNK         0.0800 
@<TRIPOS>BOND
     1    1    2 1    
     2    1  127 1    
     3    1  128 1    
     4    1  129 1    
     5    2    3 2    
     6    2    4 am   BACKBONE|DICT|INTERRES
     7    4    5 1    
     8    4  130 1    
     9    5    6 1    
    10    5   65 1    
    11    5  131 1    
    12    6    7 1    
    13    6  132 1    
    14    6  133 1    
    15    7    8 1    
    16    8    9 1    
    17    8  134 1    
    18    8  135 1    
    19    9   10 ar   
    20    9   14 ar   
    21   10   11 ar   
    22   10  136 1    
    23   11   12 ar   
    24   11  126 1    
    25   12   13 ar   
    26   12  137 1    
    27   13   14 ar   
    28   13   15 1    
    29   14  138 1    
    30   15   16 1    
    31   15  139 1    
    32   15  140 1    
    33   16   17 1    
    34   17   18 1    
    35   17  141 1    
    36   17  142 1    
    37   18   19 1    
    38   18   67 1    
    39   18  143 1    
    40   19   20 am   BACKBONE|DICT|INTERRES
    41   19  144 1    
    42   20   21 2    
    43   20   22 1    
    44   22   23 1    
    45   22   24 1    
    46   22  145 1    
    47   23  146 1    
    48   23  147 1    
    49   23  148 1    
    50   24   25 am   BACKBONE|DICT|INTERRES
    51   24  149 1    
    52   25   26 2    
    53   25   27 1    
    54   27   28 1    
    55   27   29 1    
    56   27  150 1    
    57   28  151 1    
    58   28  152 1    
    59   28  153 1    
    60   29   30 am   BACKBONE|DICT|INTERRES
    61   29  154 1    
    62   30   31 2    
    63   30   32 1    
    64   32   33 1    
    65   32   34 1    
    66   32  155 1    
    67   33  156 1    
    68   33  157 1    
    69   33  158 1    
    70   34   35 am   BACKBONE|DICT|INTERRES
    71   34  159 1    
    72   35   36 2    
    73   35   37 1    
    74   37   38 1    
    75   37   39 1    
    76   37  160 1    
    77   38  161 1    
    78   38  162 1    
    79   38  163 1    
    80   39   40 am   BACKBONE|DICT|INTERRES
    81   39  164 1    
    82   40   41 2    
    83   40   42 1    
    84   42   43 1    
    85   42   44 1    
    86   42  165 1    
    87   43  166 1    
    88   43  167 1    
    89   43  168 1    
    90   44   45 am   BACKBONE|DICT|INTERRES
    91   44  169 1    
    92   45   46 2    
    93   45   47 1    
    94   47   48 1    
    95   47   49 1    
    96   47  170 1    
    97   48  171 1    
    98   48  172 1    
    99   48  173 1    
   100   49   50 am   BACKBONE|DICT|INTERRES
   101   49  174 1    
   102   50   51 2    
   103   50   52 1    
   104   52   53 1    
   105   52   54 1    
   106   52  175 1    
   107   53  176 1    
   108   53  177 1    
   109   53  178 1    
   110   54   55 am   BACKBONE|DICT|INTERRES
   111   54  179 1    
   112   55   56 2    
   113   55   57 1    
   114   57   58 1    
   115   57   59 1    
   116   57  180 1    
   117   58  181 1    
   118   58  182 1    
   119   58  183 1    
   120   59   60 am   BACKBONE|DICT|INTERRES
   121   59  184 1    
   122   60   61 2    
   123   60   62 1    
   124   62   63 1    
   125   62   64 1    
   126   62  185 1    
   127   63  186 1    
   128   63  187 1    
   129   63  188 1    
   130   64   65 am   BACKBONE|DICT|INTERRES
   131   64  189 1    
   132   65   66 2    
   133   67   68 2    
   134   67   69 am   BACKBONE|DICT|INTERRES
   135   69   70 1    
   136   69  190 1    
   137   70   71 1    
   138   70   72 1    
   139   70  191 1    
   140   71  192 1    
   141   71  193 1    
   142   71  194 1    
   143   72   73 2    
   144   72   74 am   BACKBONE|DICT|INTERRES
   145   74   75 1    
   146   74  195 1    
   147   75   76 1    
   148   75   77 1    
   149   75  196 1    
   150   76  197 1    
   151   76  198 1    
   152   76  199 1    
   153   77   78 2    
   154   77   79 am   BACKBONE|DICT|INTERRES
   155   79   80 1    
   156   79  200 1    
   157   80   81 1    
   158   80   82 1    
   159   80  201 1    
   160   81  202 1    
   161   81  203 1    
   162   81  204 1    
   163   82   83 2    
   164   82   84 am   BACKBONE|DICT|INTERRES
   165   84   85 1    
   166   84  205 1    
   167   85   86 1    
   168   85   87 1    
   169   85  206 1    
   170   86  207 1    
   171   86  208 1    
   172   86  209 1    
   173   87   88 2    
   174   87   89 am   BACKBONE|DICT|INTERRES
   175   89   90 1    
   176   89  210 1    
   177   90   91 1    
   178   90   92 1    
   179   90  211 1    
   180   91  212 1    
   181   91  213 1    
   182   91  214 1    
   183   92   93 2    
   184   92   94 am   BACKBONE|DICT|INTERRES
   185   94   95 1    
   186   94  215 1    
   187   95   96 1    
   188   95   97 1    
   189   95  216 1    
   190   96  217 1    
   191   96  218 1    
   192   96  219 1    
   193   97   98 2    
   194   97   99 am   BACKBONE|DICT|INTERRES
   195   99  100 1    
   196   99  220 1    
   197  100  101 1    
   198  100  102 1    
   199  100  221 1    
   200  101  222 1    
   201  101  223 1    
   202  101  224 1    
   203  102  103 2    
   204  102  104 am   BACKBONE|DICT|INTERRES
   205  104  105 1    
   206  104  225 1    
   207  105  106 1    
   208  105  107 1    
   209  105  226 1    
   210  106  227 1    
   211  106  228 1    
   212  106  229 1    
   213  107  108 2    
   214  107  109 am   BACKBONE|DICT|INTERRES
   215  109  110 1    
   216  109  230 1    
   217  110  111 1    
   218  110  112 1    
   219  110  231 1    
   220  111  232 1    
   221  111  233 1    
   222  111  234 1    
   223  112  113 2    
   224  112  114 am   BACKBONE|DICT|INTERRES
   225  114  115 1    
   226  114  235 1    
   227  115  116 1    
   228  115  117 1    
   229  115  236 1    
   230  116  237 1    
   231  116  238 1    
   232  116  239 1    
   233  117  118 2    
   234  117  119 am   BACKBONE|DICT|INTERRES
   235  119  120 1    
   236  119  240 1    
   237  120  121 1    
   238  120  124 1    
   239  120  241 1    
   240  121  122 am   BACKBONE|DICT|INTERRES
   241  121  123 2    
   242  122  242 1    
   243  122  243 1    
   244  124  125 1    
   245  124  244 1    
   246  124  245 1    
   247  125  126 1    
   248  126  246 1    
   249  126  247 1    
@<TRIPOS>SUBSTRUCTURE
     1 UNK         1 GROUP             0       ****    0 ROOT    
