@<TRIPOS>MOLECULE
3R540
247   249    1
SMALL
USER_CHARGES


@<TRIPOS>ATOM
      1 CA          3.9075  -17.0317  -46.6516 C.3       0 UNK        -0.1800 
      2 C           3.5586  -15.6130  -46.2277 C.2       0 UNK         0.5000 
      3 O           3.8203  -15.2313  -45.0886 O.2       0 UNK        -0.5000 
      4 N           2.9786  -14.8241  -47.1423 N.am      1 UNK        -0.5000 
      5 CA          2.4590  -13.4686  -46.8933 C.3       1 UNK         0.1400 
      6 C6          1.5788  -12.9425  -48.0550 C.3       23 UNK        -0.0398 
      7 S7          0.2758  -14.1217  -48.5552 S.3       23 UNK        -0.2404 
      8 C8          0.8318  -14.5195  -50.2407 C.3       23 UNK        -0.0205 
      9 C9          0.1792  -15.7880  -50.7612 C.ar      23 UNK        -0.0193 
     10 C10        -0.9171  -15.7237  -51.6250 C.ar      23 UNK        -0.1150 
     11 C11        -1.4820  -16.8928  -52.1438 C.ar      23 UNK        -0.0193 
     12 C12        -0.9498  -18.1319  -51.7692 C.ar      23 UNK        -0.1150 
     13 C13         0.1530  -18.2142  -50.9099 C.ar      23 UNK        -0.0193 
     14 C14         0.7125  -17.0312  -50.4143 C.ar      23 UNK        -0.1150 
     15 C15         0.7521  -19.5906  -50.6127 C.3       23 UNK        -0.0205 
     16 S16         1.8378  -19.7229  -49.1429 S.3       23 UNK        -0.2404 
     17 C17         0.7509  -19.2841  -47.7427 C.3       23 UNK        -0.0398 
     18 CA         -0.2221  -20.4213  -47.3314 C.3       11 UNK         0.1400 
     19 N          -0.4717  -20.4573  -45.8899 N.am      11 UNK        -0.5000 
     20 C          -1.1063  -21.4540  -45.2552 C.2       10 UNK         0.5000 
     21 O          -1.4390  -22.5102  -45.7938 O.2       10 UNK        -0.5000 
     22 CA         -1.4687  -21.2174  -43.7780 C.3       10 UNK         0.1400 
     23 CB         -0.2920  -21.5894  -42.8641 C.3       10 UNK        -0.1800 
     24 N          -1.8966  -19.8431  -43.5057 N.am      10 UNK        -0.5000 
     25 C          -2.9765  -19.2622  -44.0503 C.2       9 UNK         0.5000 
     26 O          -3.7438  -19.8329  -44.8254 O.2       9 UNK        -0.5000 
     27 CA         -3.2232  -17.7837  -43.7047 C.3       9 UNK         0.1400 
     28 CB         -3.8618  -17.6484  -42.3145 C.3       9 UNK        -0.1800 
     29 N          -2.0089  -16.9716  -43.7695 N.am      9 UNK        -0.5000 
     30 C          -1.2761  -16.7688  -44.8747 C.2       8 UNK         0.5000 
     31 O          -1.5474  -17.2389  -45.9787 O.2       8 UNK        -0.5000 
     32 CA          0.0160  -15.9533  -44.6981 C.3       8 UNK         0.1400 
     33 CB         -0.3017  -14.4650  -44.4792 C.3       8 UNK        -0.1800 
     34 N           0.8265  -16.4531  -43.5880 N.am      8 UNK        -0.5000 
     35 C           1.3126  -17.6990  -43.4890 C.2       7 UNK         0.5000 
     36 O           1.1844  -18.5597  -44.3594 O.2       7 UNK        -0.5000 
     37 CA          2.0064  -18.0620  -42.1662 C.3       7 UNK         0.1400 
     38 CB          3.4693  -17.5949  -42.1650 C.3       7 UNK        -0.1800 
     39 N           1.3019  -17.4997  -41.0130 N.am      7 UNK        -0.5000 
     40 C           0.0973  -17.9100  -40.5894 C.2       6 UNK         0.5000 
     41 O          -0.5283  -18.8370  -41.1021 O.2       6 UNK        -0.5000 
     42 CA         -0.5325  -17.1241  -39.4246 C.3       6 UNK         0.1400 
     43 CB          0.0336  -17.6006  -38.0787 C.3       6 UNK        -0.1800 
     44 N          -0.3319  -15.6805  -39.5523 N.am      6 UNK        -0.5000 
     45 C          -0.8731  -14.9234  -40.5175 C.2       5 UNK         0.5000 
     46 O          -1.6540  -15.3553  -41.3645 O.2       5 UNK        -0.5000 
     47 CA         -0.4284  -13.4482  -40.5760 C.3       5 UNK         0.1400 
     48 CB         -1.3624  -12.5708  -39.7298 C.3       5 UNK        -0.1800 
     49 N           0.9587  -13.2361  -40.1470 N.am      5 UNK        -0.5000 
     50 C           2.0297  -13.7828  -40.7379 C.2       4 UNK         0.5000 
     51 O           1.9559  -14.5392  -41.7080 O.2       4 UNK        -0.5000 
     52 CA          3.3922  -13.4961  -40.0789 C.3       4 UNK         0.1400 
     53 CB          3.5700  -14.3806  -38.8337 C.3       4 UNK        -0.1800 
     54 N           4.5207  -13.7385  -40.9784 N.am      4 UNK        -0.5000 
     55 C           4.8152  -13.0157  -42.0664 C.2       3 UNK         0.5000 
     56 O           4.1790  -12.0145  -42.4050 O.2       3 UNK        -0.5000 
     57 CA          6.0511  -13.4560  -42.8808 C.3       3 UNK         0.1400 
     58 CB          6.3976  -14.9511  -42.7304 C.3       3 UNK        -0.1800 
     59 N           5.8517  -13.1667  -44.2983 N.am      3 UNK        -0.5000 
     60 C           6.3502  -12.1085  -44.9526 C.2       2 UNK         0.5000 
     61 O           7.0889  -11.2702  -44.4331 O.2       2 UNK        -0.5000 
     62 CA          5.9855  -11.9590  -46.4452 C.3       2 UNK         0.1400 
     63 CB          7.1708  -12.3733  -47.3315 C.3       2 UNK        -0.1800 
     64 N           4.8138  -12.7437  -46.8355 N.am      2 UNK        -0.5000 
     65 C           3.5468  -12.4335  -46.5288 C.2       1 UNK         0.5000 
     66 O           3.2199  -11.3841  -45.9740 O.2       1 UNK        -0.5000 
     67 C          -1.5509  -20.3188  -48.1014 C.2       11 UNK         0.5000 
     68 O          -1.8406  -21.1770  -48.9336 O.2       11 UNK        -0.5000 
     69 N          -2.3376  -19.2780  -47.7934 N.am      12 UNK        -0.5000 
     70 CA         -3.5698  -18.9200  -48.4912 C.3       12 UNK         0.1400 
     71 CB         -4.1480  -17.6314  -47.8896 C.3       12 UNK        -0.1800 
     72 C          -4.6305  -20.0312  -48.5120 C.2       12 UNK         0.5000 
     73 O          -5.2755  -20.2230  -49.5416 O.2       12 UNK        -0.5000 
     74 N          -4.7650  -20.7611  -47.3985 N.am      13 UNK        -0.5000 
     75 CA         -5.7001  -21.8739  -47.2300 C.3       13 UNK         0.1400 
     76 CB         -5.7581  -22.2434  -45.7393 C.3       13 UNK        -0.1800 
     77 C          -5.3799  -23.1234  -48.0772 C.2       13 UNK         0.5000 
     78 O          -6.2492  -23.9863  -48.2054 O.2       13 UNK        -0.5000 
     79 N          -4.1607  -23.2201  -48.6227 N.am      14 UNK        -0.5000 
     80 CA         -3.6900  -24.3572  -49.4112 C.3       14 UNK         0.1400 
     81 CB         -2.9975  -25.3758  -48.4865 C.3       14 UNK        -0.1800 
     82 C          -2.7905  -23.8724  -50.5592 C.2       14 UNK         0.5000 
     83 O          -1.7304  -24.4546  -50.8048 O.2       14 UNK        -0.5000 
     84 N          -3.2317  -22.8036  -51.2349 N.am      15 UNK        -0.5000 
     85 CA         -2.5182  -22.1102  -52.3069 C.3       15 UNK         0.1400 
     86 CB         -3.4071  -20.9789  -52.8384 C.3       15 UNK        -0.1800 
     87 C          -2.0859  -23.0345  -53.4597 C.2       15 UNK         0.5000 
     88 O          -2.8701  -23.8837  -53.8864 O.2       15 UNK        -0.5000 
     89 N          -0.8448  -22.8416  -53.9311 N.am      16 UNK        -0.5000 
     90 CA         -0.1920  -23.5724  -55.0249 C.3       16 UNK         0.1400 
     91 CB         -0.7642  -23.1202  -56.3836 C.3       16 UNK        -0.1800 
     92 C          -0.2019  -25.1049  -54.8267 C.2       16 UNK         0.5000 
     93 O          -0.5205  -25.8500  -55.7544 O.2       16 UNK        -0.5000 
     94 N           0.1414  -25.5290  -53.6005 N.am      17 UNK        -0.5000 
     95 CA          0.1597  -26.9112  -53.1100 C.3       17 UNK         0.1400 
     96 CB          1.2020  -27.7616  -53.8678 C.3       17 UNK        -0.1800 
     97 C          -1.2494  -27.5378  -53.0907 C.2       17 UNK         0.5000 
     98 O          -1.4661  -28.6106  -53.6575 O.2       17 UNK        -0.5000 
     99 N          -2.1761  -26.8383  -52.4209 N.am      18 UNK        -0.5000 
    100 CA        -3.5795  -27.2032  -52.2022 C.3       18 UNK         0.1400 
    101 CB        -3.6902  -28.4619  -51.3166 C.3       18 UNK        -0.1800 
    102 C         -4.4118  -27.2953  -53.4968 C.2       18 UNK         0.5000 
    103 O         -5.3235  -28.1203  -53.5899 O.2       18 UNK        -0.5000 
    104 N         -4.1261  -26.4117  -54.4602 N.am      19 UNK        -0.5000 
    105 CA        -4.9275  -26.1997  -55.6626 C.3       19 UNK         0.1400 
    106 CB        -4.0054  -25.7443  -56.8051 C.3       19 UNK        -0.1800 
    107 C         -6.0296  -25.1763  -55.3329 C.2       19 UNK         0.5000 
    108 O         -5.9723  -24.0292  -55.7797 O.2       19 UNK        -0.5000 
    109 N         -6.9817  -25.6147  -54.4976 N.am      20 UNK        -0.5000 
    110 CA        -7.9867  -24.8098  -53.8004 C.3       20 UNK         0.1400 
    111 CB        -8.9502  -24.1137  -54.7901 C.3       20 UNK        -0.1800 
    112 C         -7.3189  -23.8710  -52.7710 C.2       20 UNK         0.5000 
    113 O         -6.4260  -24.3165  -52.0453 O.2       20 UNK        -0.5000 
    114 N         -7.7697  -22.6150  -52.7011 N.am      21 UNK        -0.5000 
    115 CA        -7.2807  -21.5904  -51.7860 C.3       21 UNK         0.1400 
    116 CB        -8.2407  -21.4870  -50.5882 C.3       21 UNK        -0.1800 
    117 C         -7.1642  -20.2499  -52.5271 C.2       21 UNK         0.5000 
    118 O         -7.7830  -20.0663  -53.5789 O.2       21 UNK        -0.5000 
    119 N         -6.3633  -19.3465  -51.9562 N.am      22 UNK        -0.5000 
    120 CA        -6.1129  -17.9830  -52.4396 C.3       22 UNK         0.1400 
    121 C         -7.3833  -17.0881  -52.3708 C.2       22 UNK         0.5000 
    122 N         -7.6558  -16.2991  -53.4011 N.am      22 UNK        -0.7600 
    123 O         -8.1046  -17.0800  -51.3756 O.2       22 UNK        -0.5000 
    124 C124       -4.9257  -17.3524  -51.6656 C.3       23 UNK        -0.0398 
    125 S125       -4.1083  -15.9953  -52.5655 S.3       23 UNK        -0.2404 
    126 C126       -2.5975  -16.8089  -53.1821 C.3       23 UNK        -0.0205 
    127 H127        4.9873  -17.1762  -46.6258 H         1 UNK         0.0600 
    128 H128        3.4509  -17.7477  -45.9683 H         1 UNK         0.0600 
    129 H129        3.5551  -17.2532  -47.6593 H         1 UNK         0.0600 
    130 H130        2.7916  -15.1932  -48.0627 H         1 UNK         0.3000 
    131 H131        1.8206  -13.5419  -46.0147 H         1 UNK         0.0600 
    132 H132        1.0841  -12.0156  -47.7592 H         1 UNK         0.0800 
    133 H133        2.1964  -12.6869  -48.9178 H         1 UNK         0.0800 
    134 H134        1.9153  -14.6467  -50.2558 H         1 UNK         0.0800 
    135 H135        0.6130  -13.6774  -50.8993 H         1 UNK         0.0800 
    136 H136       -1.3150  -14.7622  -51.9182 H         1 UNK         0.1150 
    137 H137       -1.3673  -19.0377  -52.1831 H         1 UNK         0.1150 
    138 H138        1.5792  -17.0648  -49.7710 H         1 UNK         0.1150 
    139 H139       -0.0383  -20.3346  -50.5388 H         1 UNK         0.0800 
    140 H140        1.3451  -19.8812  -51.4807 H         1 UNK         0.0800 
    141 H141        0.2393  -18.3400  -47.9381 H         1 UNK         0.0800 
    142 H142        1.4271  -19.0690  -46.9156 H         1 UNK         0.0800 
    143 H143        0.2372  -21.3782  -47.5895 H         1 UNK         0.0600 
    144 H144       -0.1819  -19.6446  -45.3547 H         1 UNK         0.3000 
    145 H145       -2.3059  -21.8755  -43.5363 H         1 UNK         0.0600 
    146 H146       -0.5703  -21.5148  -41.8128 H         1 UNK         0.0600 
    147 H147        0.0319  -22.6155  -43.0418 H         1 UNK         0.0600 
    148 H148        0.5674  -20.9401  -43.0310 H         1 UNK         0.0600 
    149 H149       -1.3392  -19.3193  -42.8375 H         1 UNK         0.3000 
    150 H150       -3.9257  -17.3844  -44.4385 H         1 UNK         0.0600 
    151 H151       -4.7760  -18.2391  -42.2445 H         1 UNK         0.0600 
    152 H152       -4.1268  -16.6124  -42.1028 H         1 UNK         0.0600 
    153 H153       -3.1886  -17.9878  -41.5267 H         1 UNK         0.0600 
    154 H154       -1.7242  -16.5184  -42.9055 H         1 UNK         0.3000 
    155 H155        0.6095  -16.0506  -45.6090 H         1 UNK         0.0600 
    156 H156       -1.0647  -14.3157  -43.7163 H         1 UNK         0.0600 
    157 H157       -0.6733  -14.0123  -45.3991 H         1 UNK         0.0600 
    158 H158        0.5812  -13.9077  -44.1669 H         1 UNK         0.0600 
    159 H159        1.0477  -15.7933  -42.8474 H         1 UNK         0.3000 
    160 H160        2.0001  -19.1496  -42.0715 H         1 UNK         0.0600 
    161 H161        3.9789  -17.8880  -41.2472 H         1 UNK         0.0600 
    162 H162        3.5461  -16.5127  -42.2620 H         1 UNK         0.0600 
    163 H163        4.0181  -18.0341  -42.9990 H         1 UNK         0.0600 
    164 H164        1.7152  -16.6840  -40.5867 H         1 UNK         0.3000 
    165 H165       -1.6068  -17.3203  -39.4325 H         1 UNK         0.0600 
    166 H166       -0.4629  -17.1043  -37.2447 H         1 UNK         0.0600 
    167 H167       -0.1149  -18.6739  -37.9517 H         1 UNK         0.0600 
    168 H168        1.1036  -17.4050  -37.9973 H         1 UNK         0.0600 
    169 H169        0.2929  -15.2436  -38.8916 H         1 UNK         0.3000 
    170 H170       -0.5054  -13.1236  -41.6154 H         1 UNK         0.0600 
    171 H171       -2.4006  -12.6917  -40.0425 H         1 UNK         0.0600 
    172 H172       -1.3064  -12.8264  -38.6710 H         1 UNK         0.0600 
    173 H173       -1.1143  -11.5144  -39.8348 H         1 UNK         0.0600 
    174 H174        1.0934  -12.6364  -39.3457 H         1 UNK         0.3000 
    175 H175        3.4152  -12.4474  -39.7757 H         1 UNK         0.0600 
    176 H176        3.5558  -15.4415  -39.0876 H         1 UNK         0.0600 
    177 H177        4.5148  -14.1695  -38.3322 H         1 UNK         0.0600 
    178 H178        2.7761  -14.2064  -38.1065 H         1 UNK         0.0600 
    179 H179        5.0779  -14.5565  -40.7836 H         1 UNK         0.3000 
    180 H180        6.8976  -12.8835  -42.4971 H         1 UNK         0.0600 
    181 H181        5.5681  -15.5899  -43.0322 H         1 UNK         0.0600 
    182 H182        6.6634  -15.2040  -41.7037 H         1 UNK         0.0600 
    183 H183        7.2548  -15.2146  -43.3503 H         1 UNK         0.0600 
    184 H184        5.1936  -13.7755  -44.7740 H         1 UNK         0.3000 
    185 H185        5.7749  -10.9032  -46.6283 H         1 UNK         0.0600 
    186 H186        8.0596  -11.7865  -47.0955 H         1 UNK         0.0600 
    187 H187        7.4265  -13.4249  -47.1955 H         1 UNK         0.0600 
    188 H188        6.9495  -12.2141  -48.3870 H         1 UNK         0.0600 
    189 H189        4.9899  -13.6264  -47.2925 H         1 UNK         0.3000 
    190 H190       -2.0290  -18.6219  -47.0779 H         1 UNK         0.3000 
    191 H191       -3.2870  -18.7189  -49.5239 H         1 UNK         0.0600 
    192 H192       -4.3400  -17.7419  -46.8223 H         1 UNK         0.0600 
    193 H193       -5.0919  -17.3596  -48.3626 H         1 UNK         0.0600 
    194 H194       -3.4628  -16.7939  -48.0225 H         1 UNK         0.0600 
    195 H195       -4.2149  -20.5066  -46.5818 H         1 UNK         0.3000 
    196 H196       -6.6897  -21.5267  -47.5338 H         1 UNK         0.0600 
    197 H197       -6.4604  -23.0586  -45.5607 H         1 UNK         0.0600 
    198 H198       -6.0859  -21.3965  -45.1361 H         1 UNK         0.0600 
    199 H199       -4.7822  -22.5606  -45.3688 H         1 UNK         0.0600 
    200 H200       -3.4976  -22.4598  -48.5061 H         1 UNK         0.3000 
    201 H201       -4.5409  -24.8493  -49.8862 H         1 UNK         0.0600 
    202 H202       -3.6797  -25.7376  -47.7173 H         1 UNK         0.0600 
    203 H203       -2.1330  -24.9358  -47.9876 H         1 UNK         0.0600 
    204 H204       -2.6507  -26.2454  -49.0458 H         1 UNK         0.0600 
    205 H205       -4.1167  -22.4076  -50.9568 H         1 UNK         0.3000 
    206 H206       -1.6267  -21.6686  -51.8587 H         1 UNK         0.0600 
    207 H207       -3.6614  -20.2820  -52.0420 H         1 UNK         0.0600 
    208 H208       -2.9012  -20.4134  -53.6216 H         1 UNK         0.0600 
    209 H209       -4.3352  -21.3655  -53.2616 H         1 UNK         0.0600 
    210 H210       -0.2773  -22.1262  -53.4994 H         1 UNK         0.3000 
    211 H211        0.8592  -23.2812  -55.0063 H         1 UNK         0.0600 
    212 H212       -1.8311  -23.3209  -56.4609 H         1 UNK         0.0600 
    213 H213       -0.2699  -23.6295  -57.2118 H         1 UNK         0.0600 
    214 H214       -0.6189  -22.0502  -56.5311 H         1 UNK         0.0600 
    215 H215        0.3438  -24.8237  -52.9055 H         1 UNK         0.3000 
    216 H216        0.4821  -26.8600  -52.0689 H         1 UNK         0.0600 
    217 H217        1.2964  -28.7503  -53.4173 H         1 UNK         0.0600 
    218 H218        2.1871  -27.2964  -53.8377 H         1 UNK         0.0600 
    219 H219        0.9312  -27.9070  -54.9138 H         1 UNK         0.0600 
    220 H220       -1.8912  -25.9569  -52.0014 H         1 UNK         0.3000 
    221 H221       -4.0194  -26.3786  -51.6430 H         1 UNK         0.0600 
    222 H222       -3.3387  -29.3544  -51.8348 H         1 UNK         0.0600 
    223 H223       -3.1083  -28.3542  -50.4014 H         1 UNK         0.0600 
    224 H224       -4.7245  -28.6424  -51.0213 H         1 UNK         0.0600 
    225 H225       -3.4375  -25.6888  -54.2648 H         1 UNK         0.3000 
    226 H226       -5.4044  -27.1327  -55.9701 H         1 UNK         0.0600 
    227 H227       -3.2308  -26.4846  -57.0061 H         1 UNK         0.0600 
    228 H228       -4.5686  -25.5979  -57.7274 H         1 UNK         0.0600 
    229 H229       -3.5120  -24.8035  -56.5668 H         1 UNK         0.0600 
    230 H230       -6.8835  -26.5635  -54.1573 H         1 UNK         0.3000 
    231 H231       -8.5791  -25.5153  -53.2163 H         1 UNK         0.0600 
    232 H232       -9.3549  -24.8280  -55.5071 H         1 UNK         0.0600 
    233 H233       -8.4624  -23.3188  -55.3550 H         1 UNK         0.0600 
    234 H234       -9.7999  -23.6737  -54.2668 H         1 UNK         0.0600 
    235 H235       -8.4414  -22.2886  -53.3833 H         1 UNK         0.3000 
    236 H236       -6.2856  -21.8577  -51.4251 H         1 UNK         0.0600 
    237 H237       -7.9242  -20.7094  -49.8925 H         1 UNK         0.0600 
    238 H238       -9.2558  -21.2480  -50.9070 H         1 UNK         0.0600 
    239 H239       -8.2740  -22.4238  -50.0315 H         1 UNK         0.0600 
    240 H240       -5.9459  -19.5884  -51.0588 H         1 UNK         0.3000 
    241 H241       -5.8206  -18.0833  -53.4870 H         1 UNK         0.0600 
    242 H242       -8.4698  -15.7054  -53.3629 H         1 UNK         0.3800 
    243 H243       -7.0644  -16.2753  -54.2175 H         1 UNK         0.3800 
    244 H244       -5.2447  -16.9862  -50.6893 H         1 UNK         0.0800 
    245 H245       -4.1692  -18.1083  -51.4676 H         1 UNK         0.0800 
    246 H246       -2.8501  -17.7965  -53.5708 H         1 UNK         0.0800 
    247 H247       -2.2261  -16.2384  -54.0344 H         1 UNK         0.0800 
@<TRIPOS>BOND
     1    1    2 1    
     2    1  127 1    
     3    1  128 1    
     4    1  129 1    
     5    2    3 2    
     6    2    4 am   BACKBONE|DICT|INTERRES
     7    4    5 1    
     8    4  130 1    
     9    5    6 1    
    10    5   65 1    
    11    5  131 1    
    12    6    7 1    
    13    6  132 1    
    14    6  133 1    
    15    7    8 1    
    16    8    9 1    
    17    8  134 1    
    18    8  135 1    
    19    9   10 ar   
    20    9   14 ar   
    21   10   11 ar   
    22   10  136 1    
    23   11   12 ar   
    24   11  126 1    
    25   12   13 ar   
    26   12  137 1    
    27   13   14 ar   
    28   13   15 1    
    29   14  138 1    
    30   15   16 1    
    31   15  139 1    
    32   15  140 1    
    33   16   17 1    
    34   17   18 1    
    35   17  141 1    
    36   17  142 1    
    37   18   19 1    
    38   18   67 1    
    39   18  143 1    
    40   19   20 am   BACKBONE|DICT|INTERRES
    41   19  144 1    
    42   20   21 2    
    43   20   22 1    
    44   22   23 1    
    45   22   24 1    
    46   22  145 1    
    47   23  146 1    
    48   23  147 1    
    49   23  148 1    
    50   24   25 am   BACKBONE|DICT|INTERRES
    51   24  149 1    
    52   25   26 2    
    53   25   27 1    
    54   27   28 1    
    55   27   29 1    
    56   27  150 1    
    57   28  151 1    
    58   28  152 1    
    59   28  153 1    
    60   29   30 am   BACKBONE|DICT|INTERRES
    61   29  154 1    
    62   30   31 2    
    63   30   32 1    
    64   32   33 1    
    65   32   34 1    
    66   32  155 1    
    67   33  156 1    
    68   33  157 1    
    69   33  158 1    
    70   34   35 am   BACKBONE|DICT|INTERRES
    71   34  159 1    
    72   35   36 2    
    73   35   37 1    
    74   37   38 1    
    75   37   39 1    
    76   37  160 1    
    77   38  161 1    
    78   38  162 1    
    79   38  163 1    
    80   39   40 am   BACKBONE|DICT|INTERRES
    81   39  164 1    
    82   40   41 2    
    83   40   42 1    
    84   42   43 1    
    85   42   44 1    
    86   42  165 1    
    87   43  166 1    
    88   43  167 1    
    89   43  168 1    
    90   44   45 am   BACKBONE|DICT|INTERRES
    91   44  169 1    
    92   45   46 2    
    93   45   47 1    
    94   47   48 1    
    95   47   49 1    
    96   47  170 1    
    97   48  171 1    
    98   48  172 1    
    99   48  173 1    
   100   49   50 am   BACKBONE|DICT|INTERRES
   101   49  174 1    
   102   50   51 2    
   103   50   52 1    
   104   52   53 1    
   105   52   54 1    
   106   52  175 1    
   107   53  176 1    
   108   53  177 1    
   109   53  178 1    
   110   54   55 am   BACKBONE|DICT|INTERRES
   111   54  179 1    
   112   55   56 2    
   113   55   57 1    
   114   57   58 1    
   115   57   59 1    
   116   57  180 1    
   117   58  181 1    
   118   58  182 1    
   119   58  183 1    
   120   59   60 am   BACKBONE|DICT|INTERRES
   121   59  184 1    
   122   60   61 2    
   123   60   62 1    
   124   62   63 1    
   125   62   64 1    
   126   62  185 1    
   127   63  186 1    
   128   63  187 1    
   129   63  188 1    
   130   64   65 am   BACKBONE|DICT|INTERRES
   131   64  189 1    
   132   65   66 2    
   133   67   68 2    
   134   67   69 am   BACKBONE|DICT|INTERRES
   135   69   70 1    
   136   69  190 1    
   137   70   71 1    
   138   70   72 1    
   139   70  191 1    
   140   71  192 1    
   141   71  193 1    
   142   71  194 1    
   143   72   73 2    
   144   72   74 am   BACKBONE|DICT|INTERRES
   145   74   75 1    
   146   74  195 1    
   147   75   76 1    
   148   75   77 1    
   149   75  196 1    
   150   76  197 1    
   151   76  198 1    
   152   76  199 1    
   153   77   78 2    
   154   77   79 am   BACKBONE|DICT|INTERRES
   155   79   80 1    
   156   79  200 1    
   157   80   81 1    
   158   80   82 1    
   159   80  201 1    
   160   81  202 1    
   161   81  203 1    
   162   81  204 1    
   163   82   83 2    
   164   82   84 am   BACKBONE|DICT|INTERRES
   165   84   85 1    
   166   84  205 1    
   167   85   86 1    
   168   85   87 1    
   169   85  206 1    
   170   86  207 1    
   171   86  208 1    
   172   86  209 1    
   173   87   88 2    
   174   87   89 am   BACKBONE|DICT|INTERRES
   175   89   90 1    
   176   89  210 1    
   177   90   91 1    
   178   90   92 1    
   179   90  211 1    
   180   91  212 1    
   181   91  213 1    
   182   91  214 1    
   183   92   93 2    
   184   92   94 am   BACKBONE|DICT|INTERRES
   185   94   95 1    
   186   94  215 1    
   187   95   96 1    
   188   95   97 1    
   189   95  216 1    
   190   96  217 1    
   191   96  218 1    
   192   96  219 1    
   193   97   98 2    
   194   97   99 am   BACKBONE|DICT|INTERRES
   195   99  100 1    
   196   99  220 1    
   197  100  101 1    
   198  100  102 1    
   199  100  221 1    
   200  101  222 1    
   201  101  223 1    
   202  101  224 1    
   203  102  103 2    
   204  102  104 am   BACKBONE|DICT|INTERRES
   205  104  105 1    
   206  104  225 1    
   207  105  106 1    
   208  105  107 1    
   209  105  226 1    
   210  106  227 1    
   211  106  228 1    
   212  106  229 1    
   213  107  108 2    
   214  107  109 am   BACKBONE|DICT|INTERRES
   215  109  110 1    
   216  109  230 1    
   217  110  111 1    
   218  110  112 1    
   219  110  231 1    
   220  111  232 1    
   221  111  233 1    
   222  111  234 1    
   223  112  113 2    
   224  112  114 am   BACKBONE|DICT|INTERRES
   225  114  115 1    
   226  114  235 1    
   227  115  116 1    
   228  115  117 1    
   229  115  236 1    
   230  116  237 1    
   231  116  238 1    
   232  116  239 1    
   233  117  118 2    
   234  117  119 am   BACKBONE|DICT|INTERRES
   235  119  120 1    
   236  119  240 1    
   237  120  121 1    
   238  120  124 1    
   239  120  241 1    
   240  121  122 am   BACKBONE|DICT|INTERRES
   241  121  123 2    
   242  122  242 1    
   243  122  243 1    
   244  124  125 1    
   245  124  244 1    
   246  124  245 1    
   247  125  126 1    
   248  126  246 1    
   249  126  247 1    
@<TRIPOS>SUBSTRUCTURE
     1 UNK         1 GROUP             0       ****    0 ROOT    
