@<TRIPOS>MOLECULE
3R540
247   249    1
SMALL
USER_CHARGES


@<TRIPOS>ATOM
      1 CA         -3.1389   -5.9527  -46.5678 C.3       0 UNK        -0.1800 
      2 C          -3.4479   -7.0255  -45.5251 C.2       0 UNK         0.5000 
      3 O          -3.8129   -6.6856  -44.4015 O.2       0 UNK        -0.5000 
      4 N          -3.3246   -8.3241  -45.8372 N.am      1 UNK        -0.5000 
      5 CA         -2.8778   -8.8963  -47.1169 C.3       1 UNK         0.1400 
      6 C6         -3.2004  -10.4073  -47.2153 C.3       23 UNK        -0.0398 
      7 S7         -4.9801  -10.7750  -47.0409 S.3       23 UNK        -0.2404 
      8 C8         -5.2276  -12.0307  -48.3383 C.3       23 UNK        -0.0205 
      9 C9         -4.3612  -13.2628  -48.1146 C.ar      23 UNK        -0.0193 
     10 C10        -3.2929  -13.5396  -48.9742 C.ar      23 UNK        -0.1150 
     11 C11        -2.4923  -14.6649  -48.7642 C.ar      23 UNK        -0.0193 
     12 C12        -2.7424  -15.4938  -47.6707 C.ar      23 UNK        -0.1150 
     13 C13        -3.8391  -15.2623  -46.8370 C.ar      23 UNK        -0.0193 
     14 C14        -4.6407  -14.1383  -47.0597 C.ar      23 UNK        -0.1150 
     15 C15        -4.1753  -16.2423  -45.7212 C.3       23 UNK        -0.0205 
     16 S16        -4.9296  -17.7716  -46.3748 S.3       23 UNK        -0.2404 
     17 C17        -3.4642  -18.6425  -47.0493 C.3       23 UNK        -0.0398 
     18 CA         -3.4571  -20.1963  -47.0824 C.3       11 UNK         0.1400 
     19 N          -2.0793  -20.7036  -47.1066 N.am      11 UNK        -0.5000 
     20 C          -1.7222  -21.9797  -47.2991 C.2       10 UNK         0.5000 
     21 O          -2.5232  -22.8815  -47.5255 O.2       10 UNK        -0.5000 
     22 CA         -0.2299  -22.3221  -47.1474 C.3       10 UNK         0.1400 
     23 CB          0.5625  -21.9363  -48.4048 C.3       10 UNK        -0.1800 
     24 N           0.3604  -21.6870  -45.9696 N.am      10 UNK        -0.5000 
     25 C          -0.0224  -21.9339  -44.7084 C.2       9 UNK         0.5000 
     26 O          -0.8616  -22.7822  -44.4046 O.2       9 UNK        -0.5000 
     27 CA          0.5931  -21.0513  -43.6079 C.3       9 UNK         0.1400 
     28 CB          1.9772  -21.5753  -43.1987 C.3       9 UNK        -0.1800 
     29 N           0.6882  -19.6429  -43.9998 N.am      9 UNK        -0.5000 
     30 C          -0.3661  -18.8556  -44.2614 C.2       8 UNK         0.5000 
     31 O          -1.5353  -19.2253  -44.1559 O.2       8 UNK        -0.5000 
     32 CA         -0.0686  -17.4352  -44.7764 C.3       8 UNK         0.1400 
     33 CB          0.3117  -16.4942  -43.6246 C.3       8 UNK        -0.1800 
     34 N           0.9837  -17.4209  -45.7893 N.am      8 UNK        -0.5000 
     35 C           0.8954  -17.9921  -46.9978 C.2       7 UNK         0.5000 
     36 O          -0.1248  -18.5330  -47.4242 O.2       7 UNK        -0.5000 
     37 CA          2.1807  -18.0043  -47.8457 C.3       7 UNK         0.1400 
     38 CB          2.3778  -16.6744  -48.5898 C.3       7 UNK        -0.1800 
     39 N           3.3672  -18.2752  -47.0334 N.am      7 UNK        -0.5000 
     40 C           3.6460  -19.4532  -46.4597 C.2       6 UNK         0.5000 
     41 O           2.9367  -20.4520  -46.5694 O.2       6 UNK        -0.5000 
     42 CA          4.9145  -19.5125  -45.5888 C.3       6 UNK         0.1400 
     43 CB          6.1569  -19.7579  -46.4578 C.3       6 UNK        -0.1800 
     44 N           5.1097  -18.2979  -44.7951 N.am      6 UNK        -0.5000 
     45 C           4.3190  -17.9271  -43.7782 C.2       5 UNK         0.5000 
     46 O           3.3564  -18.5856  -43.3859 O.2       5 UNK        -0.5000 
     47 CA          4.6230  -16.5636  -43.1277 C.3       5 UNK         0.1400 
     48 CB          5.7345  -16.7007  -42.0766 C.3       5 UNK        -0.1800 
     49 N           4.9872  -15.5188  -44.0919 N.am      5 UNK        -0.5000 
     50 C           4.2019  -15.1117  -45.0976 C.2       4 UNK         0.5000 
     51 O           3.1078  -15.6193  -45.3510 O.2       4 UNK        -0.5000 
     52 CA          4.7490  -13.9920  -46.0023 C.3       4 UNK         0.1400 
     53 CB          5.7272  -14.5757  -47.0342 C.3       4 UNK        -0.1800 
     54 N           3.6677  -13.3116  -46.7172 N.am      4 UNK        -0.5000 
     55 C           2.7623  -12.5121  -46.1409 C.2       3 UNK         0.5000 
     56 O           2.8160  -12.1479  -44.9627 O.2       3 UNK        -0.5000 
     57 CA          1.5770  -12.0871  -47.0272 C.3       3 UNK         0.1400 
     58 CB          0.4550  -13.1379  -46.9647 C.3       3 UNK        -0.1800 
     59 N           1.0293  -10.7962  -46.6171 N.am      3 UNK        -0.5000 
     60 C           1.6159   -9.6089  -46.8210 C.2       2 UNK         0.5000 
     61 O           2.6819   -9.4712  -47.4246 O.2       2 UNK        -0.5000 
     62 CA          0.8718   -8.3765  -46.2568 C.3       2 UNK         0.1400 
     63 CB          1.3052   -7.0511  -46.9185 C.3       2 UNK        -0.1800 
     64 N          -0.5906   -8.5227  -46.2859 N.am      2 UNK        -0.5000 
     65 C          -1.3692   -8.6844  -47.3691 C.2       1 UNK         0.5000 
     66 O          -0.9507   -8.6839  -48.5267 O.2       1 UNK        -0.5000 
     67 C          -4.3083  -20.8697  -45.9803 C.2       11 UNK         0.5000 
     68 O          -5.4525  -21.2391  -46.2466 O.2       11 UNK        -0.5000 
     69 N          -3.7304  -21.0518  -44.7839 N.am      12 UNK        -0.5000 
     70 CA         -4.3619  -21.7451  -43.6595 C.3       12 UNK         0.1400 
     71 CB         -3.5222  -21.5378  -42.3899 C.3       12 UNK        -0.1800 
     72 C          -4.5973  -23.2449  -43.9306 C.2       12 UNK         0.5000 
     73 O          -5.6458  -23.7701  -43.5540 O.2       12 UNK        -0.5000 
     74 N          -3.6328  -23.9002  -44.5913 N.am      13 UNK        -0.5000 
     75 CA         -3.7297  -25.2888  -45.0489 C.3       13 UNK         0.1400 
     76 CB         -2.3261  -25.7871  -45.4184 C.3       13 UNK        -0.1800 
     77 C          -4.7066  -25.4641  -46.2299 C.2       13 UNK         0.5000 
     78 O          -5.3820  -26.4911  -46.3154 O.2       13 UNK        -0.5000 
     79 N          -4.7685  -24.4533  -47.1068 N.am      14 UNK        -0.5000 
     80 CA         -5.6492  -24.3086  -48.2640 C.3       14 UNK         0.1400 
     81 CB         -7.1071  -24.0852  -47.8030 C.3       14 UNK        -0.1800 
     82 C          -5.4728  -25.4706  -49.2587 C.2       14 UNK         0.5000 
     83 O          -4.4165  -25.5766  -49.8865 O.2       14 UNK        -0.5000 
     84 N          -6.4918  -26.3320  -49.3709 N.am      15 UNK        -0.5000 
     85 CA         -6.5219  -27.5097  -50.2372 C.3       15 UNK         0.1400 
     86 CB         -7.9396  -28.1005  -50.2257 C.3       15 UNK        -0.1800 
     87 C          -5.4860  -28.5874  -49.8649 C.2       15 UNK         0.5000 
     88 O          -5.0806  -29.3480  -50.7436 O.2       15 UNK        -0.5000 
     89 N          -5.0526  -28.6260  -48.5949 N.am      16 UNK        -0.5000 
     90 CA         -4.0133  -29.5435  -48.1192 C.3       16 UNK         0.1400 
     91 CB         -4.0406  -29.6079  -46.5850 C.3       16 UNK        -0.1800 
     92 C          -2.6096  -29.1633  -48.6291 C.2       16 UNK         0.5000 
     93 O          -1.7856  -30.0518  -48.8480 O.2       16 UNK        -0.5000 
     94 N          -2.3724  -27.8597  -48.8306 N.am      17 UNK        -0.5000 
     95 CA         -1.1518  -27.3249  -49.4380 C.3       17 UNK         0.1400 
     96 CB         -0.8283  -25.9677  -48.7926 C.3       17 UNK        -0.1800 
     97 C          -1.2743  -27.1725  -50.9658 C.2       17 UNK         0.5000 
     98 O          -0.2489  -27.0572  -51.6377 O.2       17 UNK        -0.5000 
     99 N          -2.5167  -27.1447  -51.4744 N.am      18 UNK        -0.5000 
    100 CA        -2.9177  -26.7912  -52.8406 C.3       18 UNK         0.1400 
    101 CB        -2.4068  -27.8267  -53.8633 C.3       18 UNK        -0.1800 
    102 C         -2.5112  -25.3404  -53.1717 C.2       18 UNK         0.5000 
    103 O         -1.9132  -25.0748  -54.2165 O.2       18 UNK        -0.5000 
    104 N         -2.8094  -24.4337  -52.2311 N.am      19 UNK        -0.5000 
    105 CA        -2.3417  -23.0480  -52.1763 C.3       19 UNK         0.1400 
    106 CB        -2.4693  -22.5612  -50.7262 C.3       19 UNK        -0.1800 
    107 C         -3.0281  -22.0971  -53.1790 C.2       19 UNK         0.5000 
    108 O         -3.5232  -21.0362  -52.7902 O.2       19 UNK        -0.5000 
    109 N         -3.0170  -22.4695  -54.4641 N.am      20 UNK        -0.5000 
    110 CA        -3.3993  -21.6155  -55.5878 C.3       20 UNK         0.1400 
    111 CB        -3.3669  -22.4379  -56.8847 C.3       20 UNK        -0.1800 
    112 C         -2.4509  -20.4058  -55.6729 C.2       20 UNK         0.5000 
    113 O         -1.2322  -20.5962  -55.7051 O.2       20 UNK        -0.5000 
    114 N         -3.0209  -19.1931  -55.6278 N.am      21 UNK        -0.5000 
    115 CA        -2.3215  -17.9021  -55.5374 C.3       21 UNK         0.1400 
    116 CB        -1.6071  -17.5813  -56.8671 C.3       21 UNK        -0.1800 
    117 C         -1.3824  -17.8020  -54.3104 C.2       21 UNK         0.5000 
    118 O         -0.3314  -17.1637  -54.3873 O.2       21 UNK        -0.5000 
    119 N         -1.7765  -18.4629  -53.2121 N.am      22 UNK        -0.5000 
    120 CA        -1.0126  -18.6401  -51.9643 C.3       22 UNK         0.1400 
    121 C          0.1991  -19.6158  -52.0844 C.2       22 UNK         0.5000 
    122 N          0.3561  -20.3680  -53.1687 N.am      22 UNK        -0.7600 
    123 O          1.0031  -19.7183  -51.1630 O.2       22 UNK        -0.5000 
    124 C124       -0.6266  -17.3087  -51.2555 C.3       23 UNK        -0.0398 
    125 S125       -2.0480  -16.1980  -50.9844 S.3       23 UNK        -0.2404 
    126 C126       -1.3937  -15.0362  -49.7429 C.3       23 UNK        -0.0205 
    127 H127       -2.0670   -5.8920  -46.7551 H         1 UNK         0.0600 
    128 H128       -3.4691   -4.9753  -46.2154 H         1 UNK         0.0600 
    129 H129       -3.6523   -6.1503  -47.5082 H         1 UNK         0.0600 
    130 H130       -3.5752   -9.0060  -45.1354 H         1 UNK         0.3000 
    131 H131       -3.4151   -8.3947  -47.9235 H         1 UNK         0.0600 
    132 H132       -2.6636  -10.9729  -46.4514 H         1 UNK         0.0800 
    133 H133       -2.8563  -10.7941  -48.1762 H         1 UNK         0.0800 
    134 H134       -6.2773  -12.3273  -48.3486 H         1 UNK         0.0800 
    135 H135       -5.0268  -11.5845  -49.3137 H         1 UNK         0.0800 
    136 H136       -3.0943  -12.8920  -49.8166 H         1 UNK         0.1150 
    137 H137       -2.1056  -16.3499  -47.5085 H         1 UNK         0.1150 
    138 H138       -5.4853  -13.9416  -46.4143 H         1 UNK         0.1150 
    139 H139       -3.2837  -16.4767  -45.1393 H         1 UNK         0.0800 
    140 H140       -4.8767  -15.7854  -45.0215 H         1 UNK         0.0800 
    141 H141       -2.6157  -18.3116  -46.4534 H         1 UNK         0.0800 
    142 H142       -3.2805  -18.2712  -48.0583 H         1 UNK         0.0800 
    143 H143       -3.9116  -20.4948  -48.0297 H         1 UNK         0.0600 
    144 H144       -1.3448  -20.0153  -46.9712 H         1 UNK         0.3000 
    145 H145       -0.1481  -23.4030  -47.0170 H         1 UNK         0.0600 
    146 H146        1.6126  -22.2116  -48.3085 H         1 UNK         0.0600 
    147 H147        0.1765  -22.4478  -49.2862 H         1 UNK         0.0600 
    148 H148        0.5160  -20.8654  -48.6014 H         1 UNK         0.0600 
    149 H149        1.1086  -21.0208  -46.1368 H         1 UNK         0.3000 
    150 H150       -0.0608  -21.1089  -42.7354 H         1 UNK         0.0600 
    151 H151        1.9238  -22.6203  -42.8908 H         1 UNK         0.0600 
    152 H152        2.3796  -21.0094  -42.3584 H         1 UNK         0.0600 
    153 H153        2.6921  -21.5103  -44.0189 H         1 UNK         0.0600 
    154 H154        1.6226  -19.2489  -44.0533 H         1 UNK         0.3000 
    155 H155       -0.9765  -17.0473  -45.2391 H         1 UNK         0.0600 
    156 H156       -0.4762  -16.4609  -42.8713 H         1 UNK         0.0600 
    157 H157        0.4641  -15.4759  -43.9835 H         1 UNK         0.0600 
    158 H158        1.2288  -16.8130  -43.1290 H         1 UNK         0.0600 
    159 H159        1.8432  -16.9332  -45.5453 H         1 UNK         0.3000 
    160 H160        2.0846  -18.7998  -48.5881 H         1 UNK         0.0600 
    161 H161        2.4578  -15.8325  -47.9035 H         1 UNK         0.0600 
    162 H162        1.5462  -16.4701  -49.2604 H         1 UNK         0.0600 
    163 H163        3.2813  -16.6958  -49.1993 H         1 UNK         0.0600 
    164 H164        3.9706  -17.4909  -46.8391 H         1 UNK         0.3000 
    165 H165        4.8078  -20.3551  -44.9022 H         1 UNK         0.0600 
    166 H166        7.0495  -19.8790  -45.8438 H         1 UNK         0.0600 
    167 H167        6.0449  -20.6675  -47.0495 H         1 UNK         0.0600 
    168 H168        6.3347  -18.9349  -47.1512 H         1 UNK         0.0600 
    169 H169        5.8776  -17.6966  -45.0546 H         1 UNK         0.3000 
    170 H170        3.7140  -16.2366  -42.6186 H         1 UNK         0.0600 
    171 H171        5.4806  -17.4614  -41.3370 H         1 UNK         0.0600 
    172 H172        6.6850  -16.9866  -42.5287 H         1 UNK         0.0600 
    173 H173        5.8862  -15.7649  -41.5384 H         1 UNK         0.0600 
    174 H174        5.8800  -15.0681  -43.9518 H         1 UNK         0.3000 
    175 H175        5.2747  -13.2630  -45.3821 H         1 UNK         0.0600 
    176 H176        5.2449  -15.3141  -47.6761 H         1 UNK         0.0600 
    177 H177        6.1374  -13.7938  -47.6736 H         1 UNK         0.0600 
    178 H178        6.5700  -15.0662  -46.5455 H         1 UNK         0.0600 
    179 H179        3.5365  -13.5793  -47.6809 H         1 UNK         0.3000 
    180 H180        1.9207  -12.0039  -48.0605 H         1 UNK         0.0600 
    181 H181       -0.3824  -12.8597  -47.6048 H         1 UNK         0.0600 
    182 H182        0.0742  -13.2620  -45.9500 H         1 UNK         0.0600 
    183 H183        0.8086  -14.1137  -47.2987 H         1 UNK         0.0600 
    184 H184        0.1801  -10.8213  -46.0743 H         1 UNK         0.3000 
    185 H185        1.1496   -8.3191  -45.2034 H         1 UNK         0.0600 
    186 H186        2.3693   -6.8679  -46.7660 H         1 UNK         0.0600 
    187 H187        1.1265   -7.0558  -47.9940 H         1 UNK         0.0600 
    188 H188        0.7676   -6.2039  -46.4926 H         1 UNK         0.0600 
    189 H189       -1.0446   -8.5334  -45.3827 H         1 UNK         0.3000 
    190 H190       -2.8077  -20.6593  -44.6229 H         1 UNK         0.3000 
    191 H191       -5.3377  -21.2836  -43.4942 H         1 UNK         0.0600 
    192 H192       -3.4000  -20.4777  -42.1669 H         1 UNK         0.0600 
    193 H193       -4.0018  -21.9998  -41.5262 H         1 UNK         0.0600 
    194 H194       -2.5287  -21.9753  -42.4852 H         1 UNK         0.0600 
    195 H195       -2.7749  -23.4050  -44.8123 H         1 UNK         0.3000 
    196 H196       -4.1006  -25.8998  -44.2235 H         1 UNK         0.0600 
    197 H197       -1.6758  -25.8094  -44.5438 H         1 UNK         0.0600 
    198 H198       -1.8610  -25.1363  -46.1571 H         1 UNK         0.0600 
    199 H199       -2.3526  -26.7950  -45.8323 H         1 UNK         0.0600 
    200 H200       -4.0657  -23.7224  -47.0209 H         1 UNK         0.3000 
    201 H201       -5.3244  -23.4071  -48.7852 H         1 UNK         0.0600 
    202 H202       -7.1809  -23.1958  -47.1773 H         1 UNK         0.0600 
    203 H203       -7.4932  -24.9230  -47.2215 H         1 UNK         0.0600 
    204 H204       -7.7715  -23.9313  -48.6543 H         1 UNK         0.0600 
    205 H205       -7.3051  -26.1803  -48.7923 H         1 UNK         0.3000 
    206 H206       -6.2971  -27.1798  -51.2536 H         1 UNK         0.0600 
    207 H207       -8.6740  -27.3722  -50.5704 H         1 UNK         0.0600 
    208 H208       -8.0083  -28.9661  -50.8860 H         1 UNK         0.0600 
    209 H209       -8.2313  -28.4260  -49.2263 H         1 UNK         0.0600 
    210 H210       -5.4182  -27.9588  -47.9242 H         1 UNK         0.3000 
    211 H211       -4.2414  -30.5422  -48.4980 H         1 UNK         0.0600 
    212 H212       -3.8026  -28.6457  -46.1338 H         1 UNK         0.0600 
    213 H213       -3.3139  -30.3313  -46.2131 H         1 UNK         0.0600 
    214 H214       -5.0209  -29.9150  -46.2204 H         1 UNK         0.0600 
    215 H215       -3.1119  -27.1968  -48.6438 H         1 UNK         0.3000 
    216 H216       -0.3120  -27.9961  -49.2461 H         1 UNK         0.0600 
    217 H217       -0.0116  -25.4631  -49.3108 H         1 UNK         0.0600 
    218 H218       -0.5134  -26.0994  -47.7585 H         1 UNK         0.0600 
    219 H219       -1.6892  -25.2982  -48.8046 H         1 UNK         0.0600 
    220 H220       -3.2770  -27.1926  -50.8102 H         1 UNK         0.3000 
    221 H221       -4.0081  -26.8191  -52.8593 H         1 UNK         0.0600 
    222 H222       -1.3199  -27.8188  -53.9469 H         1 UNK         0.0600 
    223 H223       -2.7151  -28.8353  -53.5877 H         1 UNK         0.0600 
    224 H224       -2.8104  -27.6230  -54.8557 H         1 UNK         0.0600 
    225 H225       -3.3249  -24.7552  -51.4180 H         1 UNK         0.3000 
    226 H226       -1.2787  -23.0445  -52.4266 H         1 UNK         0.0600 
    227 H227       -1.9396  -23.2340  -50.0544 H         1 UNK         0.0600 
    228 H228       -2.0384  -21.5678  -50.5980 H         1 UNK         0.0600 
    229 H229       -3.5096  -22.5180  -50.4022 H         1 UNK         0.0600 
    230 H230       -2.5711  -23.3550  -54.6873 H         1 UNK         0.3000 
    231 H231       -4.4210  -21.2678  -55.4220 H         1 UNK         0.0600 
    232 H232       -2.3703  -22.8334  -57.0858 H         1 UNK         0.0600 
    233 H233       -3.6581  -21.8278  -57.7406 H         1 UNK         0.0600 
    234 H234       -4.0571  -23.2802  -56.8345 H         1 UNK         0.0600 
    235 H235       -4.0290  -19.1413  -55.5736 H         1 UNK         0.3000 
    236 H236       -3.0922  -17.1448  -55.3871 H         1 UNK         0.0600 
    237 H237       -2.2950  -17.6470  -57.7100 H         1 UNK         0.0600 
    238 H238       -1.2015  -16.5690  -56.8598 H         1 UNK         0.0600 
    239 H239       -0.7783  -18.2641  -57.0566 H         1 UNK         0.0600 
    240 H240       -2.6383  -18.9921  -53.2567 H         1 UNK         0.3000 
    241 H241       -1.7016  -19.1571  -51.2957 H         1 UNK         0.0600 
    242 H242       -0.2650  -20.2926  -53.9668 H         1 UNK         0.3800 
    243 H243        1.1490  -20.9869  -53.2177 H         1 UNK         0.3800 
    244 H244       -0.1998  -17.5395  -50.2791 H         1 UNK         0.0800 
    245 H245        0.1427  -16.7730  -51.8130 H         1 UNK         0.0800 
    246 H246       -1.0004  -14.1491  -50.2414 H         1 UNK         0.0800 
    247 H247       -0.5624  -15.4816  -49.1970 H         1 UNK         0.0800 
@<TRIPOS>BOND
     1    1    2 1    
     2    1  127 1    
     3    1  128 1    
     4    1  129 1    
     5    2    3 2    
     6    2    4 am   BACKBONE|DICT|INTERRES
     7    4    5 1    
     8    4  130 1    
     9    5    6 1    
    10    5   65 1    
    11    5  131 1    
    12    6    7 1    
    13    6  132 1    
    14    6  133 1    
    15    7    8 1    
    16    8    9 1    
    17    8  134 1    
    18    8  135 1    
    19    9   10 ar   
    20    9   14 ar   
    21   10   11 ar   
    22   10  136 1    
    23   11   12 ar   
    24   11  126 1    
    25   12   13 ar   
    26   12  137 1    
    27   13   14 ar   
    28   13   15 1    
    29   14  138 1    
    30   15   16 1    
    31   15  139 1    
    32   15  140 1    
    33   16   17 1    
    34   17   18 1    
    35   17  141 1    
    36   17  142 1    
    37   18   19 1    
    38   18   67 1    
    39   18  143 1    
    40   19   20 am   BACKBONE|DICT|INTERRES
    41   19  144 1    
    42   20   21 2    
    43   20   22 1    
    44   22   23 1    
    45   22   24 1    
    46   22  145 1    
    47   23  146 1    
    48   23  147 1    
    49   23  148 1    
    50   24   25 am   BACKBONE|DICT|INTERRES
    51   24  149 1    
    52   25   26 2    
    53   25   27 1    
    54   27   28 1    
    55   27   29 1    
    56   27  150 1    
    57   28  151 1    
    58   28  152 1    
    59   28  153 1    
    60   29   30 am   BACKBONE|DICT|INTERRES
    61   29  154 1    
    62   30   31 2    
    63   30   32 1    
    64   32   33 1    
    65   32   34 1    
    66   32  155 1    
    67   33  156 1    
    68   33  157 1    
    69   33  158 1    
    70   34   35 am   BACKBONE|DICT|INTERRES
    71   34  159 1    
    72   35   36 2    
    73   35   37 1    
    74   37   38 1    
    75   37   39 1    
    76   37  160 1    
    77   38  161 1    
    78   38  162 1    
    79   38  163 1    
    80   39   40 am   BACKBONE|DICT|INTERRES
    81   39  164 1    
    82   40   41 2    
    83   40   42 1    
    84   42   43 1    
    85   42   44 1    
    86   42  165 1    
    87   43  166 1    
    88   43  167 1    
    89   43  168 1    
    90   44   45 am   BACKBONE|DICT|INTERRES
    91   44  169 1    
    92   45   46 2    
    93   45   47 1    
    94   47   48 1    
    95   47   49 1    
    96   47  170 1    
    97   48  171 1    
    98   48  172 1    
    99   48  173 1    
   100   49   50 am   BACKBONE|DICT|INTERRES
   101   49  174 1    
   102   50   51 2    
   103   50   52 1    
   104   52   53 1    
   105   52   54 1    
   106   52  175 1    
   107   53  176 1    
   108   53  177 1    
   109   53  178 1    
   110   54   55 am   BACKBONE|DICT|INTERRES
   111   54  179 1    
   112   55   56 2    
   113   55   57 1    
   114   57   58 1    
   115   57   59 1    
   116   57  180 1    
   117   58  181 1    
   118   58  182 1    
   119   58  183 1    
   120   59   60 am   BACKBONE|DICT|INTERRES
   121   59  184 1    
   122   60   61 2    
   123   60   62 1    
   124   62   63 1    
   125   62   64 1    
   126   62  185 1    
   127   63  186 1    
   128   63  187 1    
   129   63  188 1    
   130   64   65 am   BACKBONE|DICT|INTERRES
   131   64  189 1    
   132   65   66 2    
   133   67   68 2    
   134   67   69 am   BACKBONE|DICT|INTERRES
   135   69   70 1    
   136   69  190 1    
   137   70   71 1    
   138   70   72 1    
   139   70  191 1    
   140   71  192 1    
   141   71  193 1    
   142   71  194 1    
   143   72   73 2    
   144   72   74 am   BACKBONE|DICT|INTERRES
   145   74   75 1    
   146   74  195 1    
   147   75   76 1    
   148   75   77 1    
   149   75  196 1    
   150   76  197 1    
   151   76  198 1    
   152   76  199 1    
   153   77   78 2    
   154   77   79 am   BACKBONE|DICT|INTERRES
   155   79   80 1    
   156   79  200 1    
   157   80   81 1    
   158   80   82 1    
   159   80  201 1    
   160   81  202 1    
   161   81  203 1    
   162   81  204 1    
   163   82   83 2    
   164   82   84 am   BACKBONE|DICT|INTERRES
   165   84   85 1    
   166   84  205 1    
   167   85   86 1    
   168   85   87 1    
   169   85  206 1    
   170   86  207 1    
   171   86  208 1    
   172   86  209 1    
   173   87   88 2    
   174   87   89 am   BACKBONE|DICT|INTERRES
   175   89   90 1    
   176   89  210 1    
   177   90   91 1    
   178   90   92 1    
   179   90  211 1    
   180   91  212 1    
   181   91  213 1    
   182   91  214 1    
   183   92   93 2    
   184   92   94 am   BACKBONE|DICT|INTERRES
   185   94   95 1    
   186   94  215 1    
   187   95   96 1    
   188   95   97 1    
   189   95  216 1    
   190   96  217 1    
   191   96  218 1    
   192   96  219 1    
   193   97   98 2    
   194   97   99 am   BACKBONE|DICT|INTERRES
   195   99  100 1    
   196   99  220 1    
   197  100  101 1    
   198  100  102 1    
   199  100  221 1    
   200  101  222 1    
   201  101  223 1    
   202  101  224 1    
   203  102  103 2    
   204  102  104 am   BACKBONE|DICT|INTERRES
   205  104  105 1    
   206  104  225 1    
   207  105  106 1    
   208  105  107 1    
   209  105  226 1    
   210  106  227 1    
   211  106  228 1    
   212  106  229 1    
   213  107  108 2    
   214  107  109 am   BACKBONE|DICT|INTERRES
   215  109  110 1    
   216  109  230 1    
   217  110  111 1    
   218  110  112 1    
   219  110  231 1    
   220  111  232 1    
   221  111  233 1    
   222  111  234 1    
   223  112  113 2    
   224  112  114 am   BACKBONE|DICT|INTERRES
   225  114  115 1    
   226  114  235 1    
   227  115  116 1    
   228  115  117 1    
   229  115  236 1    
   230  116  237 1    
   231  116  238 1    
   232  116  239 1    
   233  117  118 2    
   234  117  119 am   BACKBONE|DICT|INTERRES
   235  119  120 1    
   236  119  240 1    
   237  120  121 1    
   238  120  124 1    
   239  120  241 1    
   240  121  122 am   BACKBONE|DICT|INTERRES
   241  121  123 2    
   242  122  242 1    
   243  122  243 1    
   244  124  125 1    
   245  124  244 1    
   246  124  245 1    
   247  125  126 1    
   248  126  246 1    
   249  126  247 1    
@<TRIPOS>SUBSTRUCTURE
     1 UNK         1 GROUP             0       ****    0 ROOT    
