@<TRIPOS>MOLECULE
3R540
247   249    1
SMALL
USER_CHARGES


@<TRIPOS>ATOM
      1 CA          1.9967  -11.1761  -52.9065 C.3       0 UNK        -0.1800 
      2 C           1.6420  -11.5956  -51.4867 C.2       0 UNK         0.5000 
      3 O           2.5376  -11.8622  -50.6850 O.2       0 UNK        -0.5000 
      4 N           0.3414  -11.6629  -51.1764 N.am      1 UNK        -0.5000 
      5 CA         -0.1874  -11.9807  -49.8479 C.3       1 UNK         0.1400 
      6 C6         -1.6850  -12.3853  -49.9353 C.3       23 UNK        -0.0398 
      7 S7         -2.5407  -12.7003  -48.3474 S.3       23 UNK        -0.2404 
      8 C8         -1.6585  -14.1508  -47.6915 C.3       23 UNK        -0.0205 
      9 C9         -1.9703  -15.4214  -48.4652 C.ar      23 UNK        -0.0193 
     10 C10        -1.0824  -15.9004  -49.4345 C.ar      23 UNK        -0.1150 
     11 C11        -1.3552  -17.0900  -50.1164 C.ar      23 UNK        -0.0193 
     12 C12        -2.5149  -17.8048  -49.8092 C.ar      23 UNK        -0.1150 
     13 C13        -3.4096  -17.3414  -48.8431 C.ar      23 UNK        -0.0193 
     14 C14        -3.1380  -16.1373  -48.1854 C.ar      23 UNK        -0.1150 
     15 C15        -4.6623  -18.1521  -48.5286 C.3       23 UNK        -0.0205 
     16 S16        -4.9489  -18.4237  -46.7452 S.3       23 UNK        -0.2404 
     17 C17        -3.3210  -18.9833  -46.1287 C.3       23 UNK        -0.0398 
     18 CA         -2.8255  -20.3512  -46.6625 C.3       11 UNK         0.1400 
     19 N          -1.3955  -20.5173  -46.3863 N.am      11 UNK        -0.5000 
     20 C          -0.6031  -21.4831  -46.8690 C.2       10 UNK         0.5000 
     21 O          -0.9750  -22.3423  -47.6616 O.2       10 UNK        -0.5000 
     22 CA          0.8432  -21.5241  -46.3418 C.3       10 UNK         0.1400 
     23 CB          1.7542  -20.6249  -47.1908 C.3       10 UNK        -0.1800 
     24 N           0.9547  -21.1536  -44.9277 N.am      10 UNK        -0.5000 
     25 C           0.3682  -21.8160  -43.9192 C.2       9 UNK         0.5000 
     26 O          -0.3178  -22.8264  -44.0758 O.2       9 UNK        -0.5000 
     27 CA          0.5203  -21.2195  -42.5085 C.3       9 UNK         0.1400 
     28 CB          1.9135  -21.5102  -41.9313 C.3       9 UNK        -0.1800 
     29 N           0.2610  -19.7799  -42.4869 N.am      9 UNK        -0.5000 
     30 C          -0.9286  -19.2218  -42.7559 C.2       8 UNK         0.5000 
     31 O          -1.9533  -19.8691  -42.9718 O.2       8 UNK        -0.5000 
     32 CA         -0.9719  -17.6844  -42.8505 C.3       8 UNK         0.1400 
     33 CB         -1.1020  -17.0500  -41.4581 C.3       8 UNK        -0.1800 
     34 N           0.1950  -17.1275  -43.5363 N.am      8 UNK        -0.5000 
     35 C           0.5176  -17.3766  -44.8133 C.2       7 UNK         0.5000 
     36 O          -0.1657  -18.0667  -45.5659 O.2       7 UNK        -0.5000 
     37 CA          1.8568  -16.8151  -45.3172 C.3       7 UNK         0.1400 
     38 CB          1.7249  -15.3400  -45.7165 C.3       7 UNK        -0.1800 
     39 N           2.9181  -16.9702  -44.3238 N.am      7 UNK        -0.5000 
     40 C           3.4527  -18.1483  -43.9731 C.2       6 UNK         0.5000 
     41 O           3.1307  -19.2230  -44.4789 O.2       6 UNK        -0.5000 
     42 CA          4.4916  -18.1239  -42.8377 C.3       6 UNK         0.1400 
     43 CB          5.8856  -17.7845  -43.3859 C.3       6 UNK        -0.1800 
     44 N           4.1409  -17.1748  -41.7802 N.am      6 UNK        -0.5000 
     45 C           3.0878  -17.3102  -40.9618 C.2       5 UNK         0.5000 
     46 O           2.3203  -18.2721  -40.9887 O.2       5 UNK        -0.5000 
     47 CA          2.8211  -16.1482  -39.9864 C.3       5 UNK         0.1400 
     48 CB          3.6586  -16.3098  -38.7092 C.3       5 UNK        -0.1800 
     49 N           3.0790  -14.8304  -40.5774 N.am      5 UNK        -0.5000 
     50 C           2.4046  -14.3283  -41.6197 C.2       4 UNK         0.5000 
     51 O           1.5094  -14.9389  -42.2079 O.2       4 UNK        -0.5000 
     52 CA          2.8416  -12.9443  -42.1260 C.3       4 UNK         0.1400 
     53 CB          3.9443  -13.0875  -43.1866 C.3       4 UNK        -0.1800 
     54 N           1.7091  -12.2389  -42.7197 N.am      4 UNK        -0.5000 
     55 C           0.7919  -11.5456  -42.0369 C.2       3 UNK         0.5000 
     56 O           0.8693  -11.3422  -40.8234 O.2       3 UNK        -0.5000 
     57 CA         -0.4008  -10.9799  -42.8450 C.3       3 UNK         0.1400 
     58 CB         -1.2065   -9.9326  -42.0544 C.3       3 UNK        -0.1800 
     59 N          -0.0114  -10.3937  -44.1333 N.am      3 UNK        -0.5000 
     60 C           0.2719  -11.0832  -45.2435 C.2       2 UNK         0.5000 
     61 O           0.2922  -12.3166  -45.2899 O.2       2 UNK        -0.5000 
     62 CA          0.6211  -10.2704  -46.4982 C.3       2 UNK         0.1400 
     63 CB          2.0675   -9.7508  -46.4417 C.3       2 UNK        -0.1800 
     64 N           0.4640  -11.1554  -47.6432 N.am      2 UNK        -0.5000 
     65 C           0.0694  -10.8104  -48.8709 C.2       1 UNK         0.5000 
     66 O          -0.1169   -9.6463  -49.2353 O.2       1 UNK        -0.5000 
     67 C          -3.6856  -21.5199  -46.1278 C.2       11 UNK         0.5000 
     68 O          -4.7631  -21.7620  -46.6697 O.2       11 UNK        -0.5000 
     69 N          -3.2121  -22.2241  -45.0901 N.am      12 UNK        -0.5000 
     70 CA         -3.8656  -23.4079  -44.5336 C.3       12 UNK         0.1400 
     71 CB         -3.6473  -23.4390  -43.0125 C.3       12 UNK        -0.1800 
     72 C          -3.3449  -24.6990  -45.1898 C.2       12 UNK         0.5000 
     73 O          -4.1436  -25.5646  -45.5514 O.2       12 UNK        -0.5000 
     74 N          -2.0173  -24.8089  -45.3222 N.am      13 UNK        -0.5000 
     75 CA         -1.3108  -25.9555  -45.8945 C.3       13 UNK         0.1400 
     76 CB          0.1831  -25.8093  -45.5605 C.3       13 UNK        -0.1800 
     77 C          -1.5077  -26.1013  -47.4170 C.2       13 UNK         0.5000 
     78 O          -1.9828  -25.1764  -48.0760 O.2       13 UNK        -0.5000 
     79 N          -1.1034  -27.2642  -47.9513 N.am      14 UNK        -0.5000 
     80 CA         -1.0037  -27.5894  -49.3818 C.3       14 UNK         0.1400 
     81 CB          0.1788  -26.8218  -50.0106 C.3       14 UNK        -0.1800 
     82 C          -2.3223  -27.3781  -50.1551 C.2       14 UNK         0.5000 
     83 O          -2.3345  -26.6996  -51.1832 O.2       14 UNK        -0.5000 
     84 N          -3.4185  -27.9316  -49.6143 N.am      15 UNK        -0.5000 
     85 CA         -4.7973  -27.7885  -50.1036 C.3       15 UNK         0.1400 
     86 CB         -4.9776  -28.5002  -51.4615 C.3       15 UNK        -0.1800 
     87 C          -5.2544  -26.3139  -50.1278 C.2       15 UNK         0.5000 
     88 O          -5.8294  -25.8521  -51.1153 O.2       15 UNK        -0.5000 
     89 N          -4.9444  -25.6013  -49.0360 N.am      16 UNK        -0.5000 
     90 CA         -5.1651  -24.1726  -48.8113 C.3       16 UNK         0.1400 
     91 CB         -6.6712  -23.8696  -48.6687 C.3       16 UNK        -0.1800 
     92 C          -4.4692  -23.3013  -49.8754 C.2       16 UNK         0.5000 
     93 O          -5.1298  -22.5254  -50.5676 O.2       16 UNK        -0.5000 
     94 N          -3.1504  -23.4941  -50.0214 N.am      17 UNK        -0.5000 
     95 CA         -2.2714  -22.8817  -51.0247 C.3       17 UNK         0.1400 
     96 CB         -2.1271  -21.3692  -50.7644 C.3       17 UNK        -0.1800 
     97 C          -2.7272  -23.1791  -52.4692 C.2       17 UNK         0.5000 
     98 O          -2.7506  -22.2737  -53.3070 O.2       17 UNK        -0.5000 
     99 N          -3.1210  -24.4371  -52.7165 N.am      18 UNK        -0.5000 
    100 CA        -3.7338  -24.9510  -53.9442 C.3       18 UNK         0.1400 
    101 CB        -2.6871  -25.0289  -55.0740 C.3       18 UNK        -0.1800 
    102 C         -5.0038  -24.1637  -54.3327 C.2       18 UNK         0.5000 
    103 O         -5.1155  -23.6837  -55.4612 O.2       18 UNK        -0.5000 
    104 N         -5.9175  -24.0191  -53.3617 N.am      19 UNK        -0.5000 
    105 CA        -7.1448  -23.2173  -53.4069 C.3       19 UNK         0.1400 
    106 CB        -8.1617  -23.8269  -54.3944 C.3       19 UNK        -0.1800 
    107 C         -6.8625  -21.7201  -53.6638 C.2       19 UNK         0.5000 
    108 O         -7.4721  -21.1112  -54.5454 O.2       19 UNK        -0.5000 
    109 N         -5.9277  -21.1665  -52.8784 N.am      20 UNK        -0.5000 
    110 CA        -5.4474  -19.7804  -52.8857 C.3       20 UNK         0.1400 
    111 CB        -6.5536  -18.8192  -52.4048 C.3       20 UNK        -0.1800 
    112 C         -4.7975  -19.3401  -54.2162 C.2       20 UNK         0.5000 
    113 O         -4.8372  -18.1561  -54.5562 O.2       20 UNK        -0.5000 
    114 N         -4.1959  -20.2920  -54.9410 N.am      21 UNK        -0.5000 
    115 CA        -3.4179  -20.0382  -56.1535 C.3       21 UNK         0.1400 
    116 CB        -3.4241  -21.2957  -57.0337 C.3       21 UNK        -0.1800 
    117 C         -1.9737  -19.6138  -55.8309 C.2       21 UNK         0.5000 
    118 O         -1.3738  -18.8790  -56.6165 O.2       21 UNK        -0.5000 
    119 N         -1.4491  -20.0808  -54.6884 N.am      22 UNK        -0.5000 
    120 CA        -0.1036  -19.7915  -54.1570 C.3       22 UNK         0.1400 
    121 C          1.0647  -20.4459  -54.9571 C.2       22 UNK         0.5000 
    122 N          0.8111  -21.4254  -55.8165 N.am      22 UNK        -0.7600 
    123 O          2.2252  -20.0867  -54.7765 O.2       22 UNK        -0.5000 
    124 C124        0.1462  -18.2814  -53.8675 C.3       23 UNK        -0.0398 
    125 S125       -1.1491  -17.5097  -52.8364 S.3       23 UNK        -0.2404 
    126 C126       -0.4040  -17.6180  -51.1797 C.3       23 UNK        -0.0205 
    127 H127        2.6006  -10.2689  -52.8896 H         1 UNK         0.0600 
    128 H128        1.1073  -10.9813  -53.5064 H         1 UNK         0.0600 
    129 H129        2.5721  -11.9612  -53.3971 H         1 UNK         0.0600 
    130 H130       -0.3432  -11.4000  -51.8707 H         1 UNK         0.3000 
    131 H131        0.3683  -12.8483  -49.4872 H         1 UNK         0.0600 
    132 H132       -2.2462  -11.5996  -50.4438 H         1 UNK         0.0800 
    133 H133       -1.7910  -13.2725  -50.5609 H         1 UNK         0.0800 
    134 H134       -0.5866  -13.9613  -47.6790 H         1 UNK         0.0800 
    135 H135       -1.9437  -14.2870  -46.6470 H         1 UNK         0.0800 
    136 H136       -0.1798  -15.3493  -49.6567 H         1 UNK         0.1150 
    137 H137       -2.7241  -18.7197  -50.3394 H         1 UNK         0.1150 
    138 H138       -3.8255  -15.7674  -47.4378 H         1 UNK         0.1150 
    139 H139       -5.5263  -17.6343  -48.9467 H         1 UNK         0.0800 
    140 H140       -4.6254  -19.1255  -49.0211 H         1 UNK         0.0800 
    141 H141       -3.3646  -18.9966  -45.0392 H         1 UNK         0.0800 
    142 H142       -2.5987  -18.2064  -46.3753 H         1 UNK         0.0800 
    143 H143       -2.9305  -20.3519  -47.7485 H         1 UNK         0.0600 
    144 H144       -0.9671  -19.7985  -45.8096 H         1 UNK         0.3000 
    145 H145        1.1989  -22.5514  -46.4396 H         1 UNK         0.0600 
    146 H146        2.7935  -20.7014  -46.8713 H         1 UNK         0.0600 
    147 H147        1.7146  -20.9125  -48.2422 H         1 UNK         0.0600 
    148 H148        1.4596  -19.5777  -47.1272 H         1 UNK         0.0600 
    149 H149        1.5359  -20.3479  -44.7157 H         1 UNK         0.3000 
    150 H150       -0.2178  -21.7016  -41.8640 H         1 UNK         0.0600 
    151 H151        2.1149  -22.5821  -41.9201 H         1 UNK         0.0600 
    152 H152        1.9958  -21.1527  -40.9047 H         1 UNK         0.0600 
    153 H153        2.7019  -21.0340  -42.5137 H         1 UNK         0.0600 
    154 H154        1.0434  -19.1770  -42.2534 H         1 UNK         0.3000 
    155 H155       -1.8560  -17.4129  -43.4311 H         1 UNK         0.0600 
    156 H156       -1.9911  -17.4169  -40.9440 H         1 UNK         0.0600 
    157 H157       -1.1880  -15.9653  -41.5258 H         1 UNK         0.0600 
    158 H158       -0.2414  -17.2779  -40.8294 H         1 UNK         0.0600 
    159 H159        0.7827  -16.4954  -42.9987 H         1 UNK         0.3000 
    160 H160        2.1414  -17.3780  -46.2085 H         1 UNK         0.0600 
    161 H161        1.4219  -14.7187  -44.8742 H         1 UNK         0.0600 
    162 H162        0.9745  -15.2210  -46.4971 H         1 UNK         0.0600 
    163 H163        2.6639  -14.9475  -46.1064 H         1 UNK         0.0600 
    164 H164        3.1985  -16.1414  -43.8228 H         1 UNK         0.3000 
    165 H165        4.5303  -19.1236  -42.3998 H         1 UNK         0.0600 
    166 H166        6.6410  -17.8380  -42.6018 H         1 UNK         0.0600 
    167 H167        6.1788  -18.4875  -44.1667 H         1 UNK         0.0600 
    168 H168        5.9183  -16.7829  -43.8165 H         1 UNK         0.0600 
    169 H169        4.7218  -16.3548  -41.6880 H         1 UNK         0.3000 
    170 H170        1.7660  -16.1883  -39.7079 H         1 UNK         0.0600 
    171 H171        3.4714  -17.2767  -38.2400 H         1 UNK         0.0600 
    172 H172        4.7277  -16.2467  -38.9160 H         1 UNK         0.0600 
    173 H173        3.4120  -15.5417  -37.9761 H         1 UNK         0.0600 
    174 H174        3.8084  -14.2783  -40.1493 H         1 UNK         0.3000 
    175 H175        3.2339  -12.3641  -41.2881 H         1 UNK         0.0600 
    176 H176        3.6033  -13.6556  -44.0523 H         1 UNK         0.0600 
    177 H177        4.2767  -12.1113  -43.5403 H         1 UNK         0.0600 
    178 H178        4.8177  -13.5989  -42.7801 H         1 UNK         0.0600 
    179 H179        1.5129  -12.4277  -43.6964 H         1 UNK         0.3000 
    180 H180       -1.0670  -11.8232  -43.0396 H         1 UNK         0.0600 
    181 H181       -0.5971   -9.0642  -41.8016 H         1 UNK         0.0600 
    182 H182       -1.5886  -10.3504  -41.1221 H         1 UNK         0.0600 
    183 H183       -2.0677   -9.5843  -42.6251 H         1 UNK         0.0600 
    184 H184        0.0387   -9.3854  -44.1614 H         1 UNK         0.3000 
    185 H185       -0.0757   -9.4331  -46.5760 H         1 UNK         0.0600 
    186 H186        2.2122   -9.0809  -45.5934 H         1 UNK         0.0600 
    187 H187        2.7837  -10.5676  -46.3425 H         1 UNK         0.0600 
    188 H188        2.3207   -9.1923  -47.3430 H         1 UNK         0.0600 
    189 H189        0.5393  -12.1331  -47.3927 H         1 UNK         0.3000 
    190 H190       -2.3096  -21.9781  -44.7037 H         1 UNK         0.3000 
    191 H191       -4.9421  -23.3545  -44.7098 H         1 UNK         0.0600 
    192 H192       -4.0575  -22.5466  -42.5394 H         1 UNK         0.0600 
    193 H193       -4.1421  -24.3021  -42.5655 H         1 UNK         0.0600 
    194 H194       -2.5899  -23.4960  -42.7528 H         1 UNK         0.0600 
    195 H195       -1.4322  -24.0455  -44.9947 H         1 UNK         0.3000 
    196 H196       -1.6909  -26.8599  -45.4154 H         1 UNK         0.0600 
    197 H197        0.7562  -26.6714  -45.9034 H         1 UNK         0.0600 
    198 H198        0.3407  -25.7246  -44.4850 H         1 UNK         0.0600 
    199 H199        0.6106  -24.9228  -46.0302 H         1 UNK         0.0600 
    200 H200       -0.7524  -27.9761  -47.3258 H         1 UNK         0.3000 
    201 H201       -0.7779  -28.6546  -49.4474 H         1 UNK         0.0600 
    202 H202        1.1074  -27.0219  -49.4761 H         1 UNK         0.0600 
    203 H203        0.0124  -25.7438  -49.9996 H         1 UNK         0.0600 
    204 H204        0.3323  -27.1192  -51.0486 H         1 UNK         0.0600 
    205 H205       -3.3083  -28.4542  -48.7565 H         1 UNK         0.3000 
    206 H206       -5.4385  -28.2944  -49.3805 H         1 UNK         0.0600 
    207 H207       -4.6674  -29.5433  -51.4033 H         1 UNK         0.0600 
    208 H208       -6.0234  -28.4900  -51.7706 H         1 UNK         0.0600 
    209 H209       -4.4001  -28.0229  -52.2533 H         1 UNK         0.0600 
    210 H210       -4.4167  -26.0637  -48.3086 H         1 UNK         0.3000 
    211 H211       -4.6828  -23.9530  -47.8612 H         1 UNK         0.0600 
    212 H212       -7.2167  -24.0666  -49.5920 H         1 UNK         0.0600 
    213 H213       -6.8311  -22.8218  -48.4114 H         1 UNK         0.0600 
    214 H214       -7.1195  -24.4698  -47.8772 H         1 UNK         0.0600 
    215 H215       -2.6929  -24.1395  -49.3767 H         1 UNK         0.3000 
    216 H216       -1.2903  -23.3421  -50.9018 H         1 UNK         0.0600 
    217 H217       -1.4112  -20.9157  -51.4474 H         1 UNK         0.0600 
    218 H218       -1.7772  -21.1637  -49.7561 H         1 UNK         0.0600 
    219 H219       -3.0772  -20.8559  -50.8956 H         1 UNK         0.0600 
    220 H220       -3.0097  -25.1261  -51.9762 H         1 UNK         0.3000 
    221 H221       -4.0594  -25.9686  -53.7244 H         1 UNK         0.0600 
    222 H222       -2.2879  -24.0475  -55.3275 H         1 UNK         0.0600 
    223 H223       -1.8492  -25.6637  -54.7858 H         1 UNK         0.0600 
    224 H224       -3.1191  -25.4537  -55.9808 H         1 UNK         0.0600 
    225 H225       -5.7411  -24.4840  -52.4740 H         1 UNK         0.3000 
    226 H226       -7.5808  -23.2779  -52.4085 H         1 UNK         0.0600 
    227 H227       -8.3552  -24.8742  -54.1628 H         1 UNK         0.0600 
    228 H228       -9.1161  -23.3017  -54.3437 H         1 UNK         0.0600 
    229 H229       -7.8124  -23.7700  -55.4257 H         1 UNK         0.0600 
    230 H230       -5.5204  -21.7548  -52.1516 H         1 UNK         0.3000 
    231 H231       -4.6480  -19.7400  -52.1466 H         1 UNK         0.0600 
    232 H232       -7.3731  -18.7554  -53.1211 H         1 UNK         0.0600 
    233 H233       -6.1626  -17.8110  -52.2625 H         1 UNK         0.0600 
    234 H234       -6.9660  -19.1415  -51.4486 H         1 UNK         0.0600 
    235 H235       -4.1681  -21.2352  -54.5709 H         1 UNK         0.3000 
    236 H236       -3.8867  -19.2301  -56.7189 H         1 UNK         0.0600 
    237 H237       -4.4408  -21.5807  -57.3052 H         1 UNK         0.0600 
    238 H238       -2.8734  -21.1284  -57.9601 H         1 UNK         0.0600 
    239 H239       -2.9647  -22.1429  -56.5254 H         1 UNK         0.0600 
    240 H240       -2.0061  -20.7298  -54.1386 H         1 UNK         0.3000 
    241 H241       -0.0691  -20.3000  -53.1948 H         1 UNK         0.0600 
    242 H242        1.5712  -21.8514  -56.3232 H         1 UNK         0.3800 
    243 H243       -0.1334  -21.7407  -55.9665 H         1 UNK         0.3800 
    244 H244        1.1098  -18.1399  -53.3755 H         1 UNK         0.0800 
    245 H245        0.2085  -17.7229  -54.8022 H         1 UNK         0.0800 
    246 H246       -0.1560  -18.6569  -50.9573 H         1 UNK         0.0800 
    247 H247        0.5345  -17.0616  -51.1676 H         1 UNK         0.0800 
@<TRIPOS>BOND
     1    1    2 1    
     2    1  127 1    
     3    1  128 1    
     4    1  129 1    
     5    2    3 2    
     6    2    4 am   BACKBONE|DICT|INTERRES
     7    4    5 1    
     8    4  130 1    
     9    5    6 1    
    10    5   65 1    
    11    5  131 1    
    12    6    7 1    
    13    6  132 1    
    14    6  133 1    
    15    7    8 1    
    16    8    9 1    
    17    8  134 1    
    18    8  135 1    
    19    9   10 ar   
    20    9   14 ar   
    21   10   11 ar   
    22   10  136 1    
    23   11   12 ar   
    24   11  126 1    
    25   12   13 ar   
    26   12  137 1    
    27   13   14 ar   
    28   13   15 1    
    29   14  138 1    
    30   15   16 1    
    31   15  139 1    
    32   15  140 1    
    33   16   17 1    
    34   17   18 1    
    35   17  141 1    
    36   17  142 1    
    37   18   19 1    
    38   18   67 1    
    39   18  143 1    
    40   19   20 am   BACKBONE|DICT|INTERRES
    41   19  144 1    
    42   20   21 2    
    43   20   22 1    
    44   22   23 1    
    45   22   24 1    
    46   22  145 1    
    47   23  146 1    
    48   23  147 1    
    49   23  148 1    
    50   24   25 am   BACKBONE|DICT|INTERRES
    51   24  149 1    
    52   25   26 2    
    53   25   27 1    
    54   27   28 1    
    55   27   29 1    
    56   27  150 1    
    57   28  151 1    
    58   28  152 1    
    59   28  153 1    
    60   29   30 am   BACKBONE|DICT|INTERRES
    61   29  154 1    
    62   30   31 2    
    63   30   32 1    
    64   32   33 1    
    65   32   34 1    
    66   32  155 1    
    67   33  156 1    
    68   33  157 1    
    69   33  158 1    
    70   34   35 am   BACKBONE|DICT|INTERRES
    71   34  159 1    
    72   35   36 2    
    73   35   37 1    
    74   37   38 1    
    75   37   39 1    
    76   37  160 1    
    77   38  161 1    
    78   38  162 1    
    79   38  163 1    
    80   39   40 am   BACKBONE|DICT|INTERRES
    81   39  164 1    
    82   40   41 2    
    83   40   42 1    
    84   42   43 1    
    85   42   44 1    
    86   42  165 1    
    87   43  166 1    
    88   43  167 1    
    89   43  168 1    
    90   44   45 am   BACKBONE|DICT|INTERRES
    91   44  169 1    
    92   45   46 2    
    93   45   47 1    
    94   47   48 1    
    95   47   49 1    
    96   47  170 1    
    97   48  171 1    
    98   48  172 1    
    99   48  173 1    
   100   49   50 am   BACKBONE|DICT|INTERRES
   101   49  174 1    
   102   50   51 2    
   103   50   52 1    
   104   52   53 1    
   105   52   54 1    
   106   52  175 1    
   107   53  176 1    
   108   53  177 1    
   109   53  178 1    
   110   54   55 am   BACKBONE|DICT|INTERRES
   111   54  179 1    
   112   55   56 2    
   113   55   57 1    
   114   57   58 1    
   115   57   59 1    
   116   57  180 1    
   117   58  181 1    
   118   58  182 1    
   119   58  183 1    
   120   59   60 am   BACKBONE|DICT|INTERRES
   121   59  184 1    
   122   60   61 2    
   123   60   62 1    
   124   62   63 1    
   125   62   64 1    
   126   62  185 1    
   127   63  186 1    
   128   63  187 1    
   129   63  188 1    
   130   64   65 am   BACKBONE|DICT|INTERRES
   131   64  189 1    
   132   65   66 2    
   133   67   68 2    
   134   67   69 am   BACKBONE|DICT|INTERRES
   135   69   70 1    
   136   69  190 1    
   137   70   71 1    
   138   70   72 1    
   139   70  191 1    
   140   71  192 1    
   141   71  193 1    
   142   71  194 1    
   143   72   73 2    
   144   72   74 am   BACKBONE|DICT|INTERRES
   145   74   75 1    
   146   74  195 1    
   147   75   76 1    
   148   75   77 1    
   149   75  196 1    
   150   76  197 1    
   151   76  198 1    
   152   76  199 1    
   153   77   78 2    
   154   77   79 am   BACKBONE|DICT|INTERRES
   155   79   80 1    
   156   79  200 1    
   157   80   81 1    
   158   80   82 1    
   159   80  201 1    
   160   81  202 1    
   161   81  203 1    
   162   81  204 1    
   163   82   83 2    
   164   82   84 am   BACKBONE|DICT|INTERRES
   165   84   85 1    
   166   84  205 1    
   167   85   86 1    
   168   85   87 1    
   169   85  206 1    
   170   86  207 1    
   171   86  208 1    
   172   86  209 1    
   173   87   88 2    
   174   87   89 am   BACKBONE|DICT|INTERRES
   175   89   90 1    
   176   89  210 1    
   177   90   91 1    
   178   90   92 1    
   179   90  211 1    
   180   91  212 1    
   181   91  213 1    
   182   91  214 1    
   183   92   93 2    
   184   92   94 am   BACKBONE|DICT|INTERRES
   185   94   95 1    
   186   94  215 1    
   187   95   96 1    
   188   95   97 1    
   189   95  216 1    
   190   96  217 1    
   191   96  218 1    
   192   96  219 1    
   193   97   98 2    
   194   97   99 am   BACKBONE|DICT|INTERRES
   195   99  100 1    
   196   99  220 1    
   197  100  101 1    
   198  100  102 1    
   199  100  221 1    
   200  101  222 1    
   201  101  223 1    
   202  101  224 1    
   203  102  103 2    
   204  102  104 am   BACKBONE|DICT|INTERRES
   205  104  105 1    
   206  104  225 1    
   207  105  106 1    
   208  105  107 1    
   209  105  226 1    
   210  106  227 1    
   211  106  228 1    
   212  106  229 1    
   213  107  108 2    
   214  107  109 am   BACKBONE|DICT|INTERRES
   215  109  110 1    
   216  109  230 1    
   217  110  111 1    
   218  110  112 1    
   219  110  231 1    
   220  111  232 1    
   221  111  233 1    
   222  111  234 1    
   223  112  113 2    
   224  112  114 am   BACKBONE|DICT|INTERRES
   225  114  115 1    
   226  114  235 1    
   227  115  116 1    
   228  115  117 1    
   229  115  236 1    
   230  116  237 1    
   231  116  238 1    
   232  116  239 1    
   233  117  118 2    
   234  117  119 am   BACKBONE|DICT|INTERRES
   235  119  120 1    
   236  119  240 1    
   237  120  121 1    
   238  120  124 1    
   239  120  241 1    
   240  121  122 am   BACKBONE|DICT|INTERRES
   241  121  123 2    
   242  122  242 1    
   243  122  243 1    
   244  124  125 1    
   245  124  244 1    
   246  124  245 1    
   247  125  126 1    
   248  126  246 1    
   249  126  247 1    
@<TRIPOS>SUBSTRUCTURE
     1 UNK         1 GROUP             0       ****    0 ROOT    
