@<TRIPOS>MOLECULE
3R540
247   249    1
SMALL
USER_CHARGES


@<TRIPOS>ATOM
      1 CA          1.9182  -13.5128  -49.1652 C.3       0 UNK        -0.1800 
      2 C           3.3051  -13.7197  -48.5755 C.2       0 UNK         0.5000 
      3 O           3.5022  -14.6168  -47.7594 O.2       0 UNK        -0.5000 
      4 N           4.2613  -12.8706  -48.9763 N.am      1 UNK        -0.5000 
      5 CA          5.6894  -12.9233  -48.6149 C.3       1 UNK         0.1400 
      6 C6          6.4304  -14.1511  -49.2178 C.3       23 UNK        -0.0398 
      7 S7          6.2605  -14.2638  -51.0364 S.3       23 UNK        -0.2404 
      8 C8          5.9683  -16.0446  -51.3031 C.3       23 UNK        -0.0205 
      9 C9          4.6164  -16.4979  -50.7715 C.ar      23 UNK        -0.0193 
     10 C10         3.4438  -16.1997  -51.4741 C.ar      23 UNK        -0.1150 
     11 C11         2.1974  -16.5802  -50.9670 C.ar      23 UNK        -0.0193 
     12 C12         2.1342  -17.2610  -49.7483 C.ar      23 UNK        -0.1150 
     13 C13         3.2984  -17.6023  -49.0581 C.ar      23 UNK        -0.0193 
     14 C14         4.5376  -17.2165  -49.5747 C.ar      23 UNK        -0.1150 
     15 C15         3.2145  -18.3637  -47.7434 C.3       23 UNK        -0.0205 
     16 S16         3.8872  -20.0515  -47.8832 S.3       23 UNK        -0.2404 
     17 C17         2.6517  -20.8593  -48.9595 C.3       23 UNK        -0.0398 
     18 CA          1.7861  -21.8991  -48.2044 C.3       11 UNK         0.1400 
     19 N           1.0564  -21.2926  -47.0829 N.am      11 UNK        -0.5000 
     20 C           0.8851  -21.8635  -45.8856 C.2       10 UNK         0.5000 
     21 O           1.2588  -23.0083  -45.6269 O.2       10 UNK        -0.5000 
     22 CA          0.2036  -21.0394  -44.7757 C.3       10 UNK         0.1400 
     23 CB          1.1954  -20.7716  -43.6312 C.3       10 UNK        -0.1800 
     24 N          -0.3674  -19.7619  -45.2111 N.am      10 UNK        -0.5000 
     25 C          -1.5492  -19.6273  -45.8294 C.2       9 UNK         0.5000 
     26 O          -2.1989  -20.5831  -46.2593 O.2       9 UNK        -0.5000 
     27 CA         -2.1274  -18.2050  -45.9840 C.3       9 UNK         0.1400 
     28 CB         -3.3710  -18.0419  -45.0960 C.3       9 UNK        -0.1800 
     29 N          -1.1678  -17.1606  -45.6306 N.am      9 UNK        -0.5000 
     30 C          -0.4723  -16.4224  -46.5057 C.2       8 UNK         0.5000 
     31 O          -0.6108  -16.5000  -47.7260 O.2       8 UNK        -0.5000 
     32 CA          0.5487  -15.4151  -45.9346 C.3       8 UNK         0.1400 
     33 CB          0.0410  -13.9742  -46.0964 C.3       8 UNK        -0.1800 
     34 N           0.8981  -15.6318  -44.5295 N.am      8 UNK        -0.5000 
     35 C           1.5463  -16.7029  -44.0539 C.2       7 UNK         0.5000 
     36 O           1.9329  -17.6371  -44.7535 O.2       7 UNK        -0.5000 
     37 CA          1.7172  -16.7749  -42.5280 C.3       7 UNK         0.1400 
     38 CB          2.9215  -15.9381  -42.0725 C.3       7 UNK        -0.1800 
     39 N           0.5111  -16.3335  -41.8241 N.am      7 UNK        -0.5000 
     40 C          -0.6522  -17.0017  -41.8245 C.2       6 UNK         0.5000 
     41 O          -0.8245  -18.0749  -42.3999 O.2       6 UNK        -0.5000 
     42 CA         -1.8329  -16.3352  -41.0971 C.3       6 UNK         0.1400 
     43 CB         -1.7368  -16.5607  -39.5807 C.3       6 UNK        -0.1800 
     44 N          -1.9139  -14.9011  -41.3724 N.am      6 UNK        -0.5000 
     45 C          -2.2159  -14.3735  -42.5676 C.2       5 UNK         0.5000 
     46 O          -2.5129  -15.0423  -43.5563 O.2       5 UNK        -0.5000 
     47 CA         -2.1435  -12.8394  -42.6838 C.3       5 UNK         0.1400 
     48 CB         -3.5061  -12.2100  -42.3579 C.3       5 UNK        -0.1800 
     49 N          -1.1165  -12.2386  -41.8280 N.am      5 UNK        -0.5000 
     50 C           0.1996  -12.4532  -41.9503 C.2       4 UNK         0.5000 
     51 O           0.6989  -13.2136  -42.7834 O.2       4 UNK        -0.5000 
     52 CA          1.1057  -11.7348  -40.9389 C.3       4 UNK         0.1400 
     53 CB          1.7237  -12.7383  -39.9527 C.3       4 UNK        -0.1800 
     54 N           2.1724  -11.0135  -41.6262 N.am      4 UNK        -0.5000 
     55 C           2.0198   -9.8241  -42.2239 C.2       3 UNK         0.5000 
     56 O           0.9648   -9.1883  -42.2207 O.2       3 UNK        -0.5000 
     57 CA          3.2550   -9.2372  -42.9331 C.3       3 UNK         0.1400 
     58 CB          4.0317   -8.3143  -41.9811 C.3       3 UNK        -0.1800 
     59 N           4.1604  -10.2695  -43.4430 N.am      3 UNK        -0.5000 
     60 C           3.9440  -10.9659  -44.5648 C.2       2 UNK         0.5000 
     61 O           2.9709  -10.7968  -45.3054 O.2       2 UNK        -0.5000 
     62 CA          4.9859  -12.0362  -44.9118 C.3       2 UNK         0.1400 
     63 CB          4.6525  -13.3653  -44.2080 C.3       2 UNK        -0.1800 
     64 N           4.9824  -12.2235  -46.3563 N.am      2 UNK        -0.5000 
     65 C           5.9555  -12.7706  -47.0935 C.2       1 UNK         0.5000 
     66 O           7.0329  -13.1349  -46.6182 O.2       1 UNK        -0.5000 
     67 C           0.8472  -22.6663  -49.1653 C.2       11 UNK         0.5000 
     68 O           1.2881  -23.0734  -50.2420 O.2       11 UNK        -0.5000 
     69 N          -0.4216  -22.8534  -48.7752 N.am      12 UNK        -0.5000 
     70 CA         -1.4455  -23.5796  -49.5248 C.3       12 UNK         0.1400 
     71 CB         -2.7835  -23.4471  -48.7839 C.3       12 UNK        -0.1800 
     72 C          -1.1176  -25.0723  -49.7210 C.2       12 UNK         0.5000 
     73 O          -0.4639  -25.6851  -48.8723 O.2       12 UNK        -0.5000 
     74 N          -1.6349  -25.6367  -50.8179 N.am      13 UNK        -0.5000 
     75 CA         -1.6371  -27.0722  -51.0982 C.3       13 UNK         0.1400 
     76 CB         -1.7917  -27.2739  -52.6162 C.3       13 UNK        -0.1800 
     77 C          -2.7639  -27.7914  -50.3273 C.2       13 UNK         0.5000 
     78 O          -3.5785  -27.1458  -49.6618 O.2       13 UNK        -0.5000 
     79 N          -2.8210  -29.1230  -50.4706 N.am      14 UNK        -0.5000 
     80 CA         -3.7864  -30.0231  -49.8233 C.3       14 UNK         0.1400 
     81 CB         -3.4321  -31.4722  -50.1919 C.3       14 UNK        -0.1800 
     82 C          -5.2724  -29.7372  -50.1362 C.2       14 UNK         0.5000 
     83 O          -6.1416  -30.1713  -49.3795 O.2       14 UNK        -0.5000 
     84 N          -5.5401  -28.9951  -51.2201 N.am      15 UNK        -0.5000 
     85 CA         -6.8624  -28.4826  -51.5900 C.3       15 UNK         0.1400 
     86 CB         -6.8145  -28.0166  -53.0545 C.3       15 UNK        -0.1800 
     87 C          -7.3720  -27.3453  -50.6738 C.2       15 UNK         0.5000 
     88 O          -8.5524  -27.0054  -50.7579 O.2       15 UNK        -0.5000 
     89 N          -6.4849  -26.7936  -49.8294 N.am      16 UNK        -0.5000 
     90 CA         -6.6528  -25.6592  -48.9156 C.3       16 UNK         0.1400 
     91 CB         -7.9002  -25.8016  -48.0202 C.3       16 UNK        -0.1800 
     92 C          -6.6223  -24.3059  -49.6458 C.2       16 UNK         0.5000 
     93 O          -6.8366  -24.2361  -50.8584 O.2       16 UNK        -0.5000 
     94 N          -6.3370  -23.2431  -48.8804 N.am      17 UNK        -0.5000 
     95 CA         -6.0704  -21.8795  -49.3540 C.3       17 UNK         0.1400 
     96 CB         -5.7957  -20.9760  -48.1411 C.3       17 UNK        -0.1800 
     97 C          -7.1733  -21.2631  -50.2325 C.2       17 UNK         0.5000 
     98 O          -6.8598  -20.4764  -51.1249 O.2       17 UNK        -0.5000 
     99 N          -8.4304  -21.6534  -49.9875 N.am      18 UNK        -0.5000 
    100 CA        -9.6037  -21.2233  -50.7487 C.3       18 UNK         0.1400 
    101 CB       -10.8690  -21.6941  -50.0150 C.3       18 UNK        -0.1800 
    102 C         -9.6167  -21.7152  -52.2106 C.2       18 UNK         0.5000 
    103 O        -10.2385  -21.0646  -53.0518 O.2       18 UNK        -0.5000 
    104 N         -8.9463  -22.8421  -52.4858 N.am      19 UNK        -0.5000 
    105 CA        -8.8540  -23.4511  -53.8121 C.3       19 UNK         0.1400 
    106 CB        -9.2839  -24.9226  -53.7158 C.3       19 UNK        -0.1800 
    107 C         -7.4313  -23.3483  -54.3827 C.2       19 UNK         0.5000 
    108 O         -7.2756  -23.0698  -55.5722 O.2       19 UNK        -0.5000 
    109 N         -6.4200  -23.5863  -53.5374 N.am      20 UNK        -0.5000 
    110 CA        -5.0118  -23.6370  -53.9271 C.3       20 UNK         0.1400 
    111 CB        -4.2254  -24.3860  -52.8389 C.3       20 UNK        -0.1800 
    112 C         -4.3799  -22.2533  -54.1554 C.2       20 UNK         0.5000 
    113 O         -3.4274  -22.1588  -54.9307 O.2       20 UNK        -0.5000 
    114 N         -4.8937  -21.2331  -53.4488 N.am      21 UNK        -0.5000 
    115 CA        -4.3017  -19.9072  -53.2236 C.3       21 UNK         0.1400 
    116 CB        -4.0343  -19.1626  -54.5482 C.3       21 UNK        -0.1800 
    117 C         -3.0393  -19.9745  -52.3351 C.2       21 UNK         0.5000 
    118 O         -2.4897  -21.0537  -52.1017 O.2       21 UNK        -0.5000 
    119 N         -2.6147  -18.8103  -51.8255 N.am      22 UNK        -0.5000 
    120 CA        -1.4314  -18.6367  -50.9585 C.3       22 UNK         0.1400 
    121 C         -1.4942  -19.3755  -49.5857 C.2       22 UNK         0.5000 
    122 N         -2.6601  -19.7935  -49.1112 N.am      22 UNK        -0.7600 
    123 O         -0.4829  -19.5351  -48.9107 O.2       22 UNK        -0.5000 
    124 C124       -0.0953  -18.8843  -51.7212 C.3       23 UNK        -0.0398 
    125 S125        0.3393  -17.5163  -52.8503 S.3       23 UNK        -0.2404 
    126 C126        0.9155  -16.2139  -51.7035 C.3       23 UNK        -0.0205 
    127 H127        1.3110  -14.4093  -49.0383 H         1 UNK         0.0600 
    128 H128        1.9775  -13.2951  -50.2317 H         1 UNK         0.0600 
    129 H129        1.4155  -12.6840  -48.6673 H         1 UNK         0.0600 
    130 H130        4.0193  -12.1473  -49.6388 H         1 UNK         0.3000 
    131 H131        6.1317  -12.0332  -49.0645 H         1 UNK         0.0600 
    132 H132        7.4984  -14.0986  -49.0009 H         1 UNK         0.0800 
    133 H133        6.0746  -15.0682  -48.7492 H         1 UNK         0.0800 
    134 H134        6.7768  -16.6158  -50.8441 H         1 UNK         0.0800 
    135 H135        6.0195  -16.2525  -52.3728 H         1 UNK         0.0800 
    136 H136        3.5020  -15.6516  -52.4039 H         1 UNK         0.1150 
    137 H137        1.1732  -17.5322  -49.3365 H         1 UNK         0.1150 
    138 H138        5.4387  -17.4638  -49.0316 H         1 UNK         0.1150 
    139 H139        3.7718  -17.8174  -46.9810 H         1 UNK         0.0800 
    140 H140        2.1838  -18.4151  -47.3880 H         1 UNK         0.0800 
    141 H141        3.2030  -21.3364  -49.7714 H         1 UNK         0.0800 
    142 H142        2.0210  -20.1073  -49.4295 H         1 UNK         0.0800 
    143 H143        2.4749  -22.6502  -47.8124 H         1 UNK         0.0600 
    144 H144        0.6450  -20.3849  -47.2674 H         1 UNK         0.3000 
    145 H145       -0.6061  -21.6537  -44.3761 H         1 UNK         0.0600 
    146 H146        2.0512  -20.1875  -43.9705 H         1 UNK         0.0600 
    147 H147        0.7213  -20.2323  -42.8118 H         1 UNK         0.0600 
    148 H148        1.5813  -21.7050  -43.2195 H         1 UNK         0.0600 
    149 H149        0.1415  -18.9296  -44.9412 H         1 UNK         0.3000 
    150 H150       -2.4433  -18.0838  -47.0202 H         1 UNK         0.0600 
    151 H151       -4.1333  -18.7805  -45.3474 H         1 UNK         0.0600 
    152 H152       -3.8192  -17.0564  -45.2250 H         1 UNK         0.0600 
    153 H153       -3.1296  -18.1626  -44.0393 H         1 UNK         0.0600 
    154 H154       -1.0241  -17.0003  -44.6428 H         1 UNK         0.3000 
    155 H155        1.4598  -15.5298  -46.5218 H         1 UNK         0.0600 
    156 H156       -0.2313  -13.7654  -47.1310 H         1 UNK         0.0600 
    157 H157       -0.8435  -13.7941  -45.4866 H         1 UNK         0.0600 
    158 H158        0.8048  -13.2518  -45.8062 H         1 UNK         0.0600 
    159 H159        0.6503  -14.8888  -43.8831 H         1 UNK         0.3000 
    160 H160        1.9059  -17.8168  -42.2599 H         1 UNK         0.0600 
    161 H161        3.0714  -16.0127  -40.9954 H         1 UNK         0.0600 
    162 H162        3.8378  -16.2820  -42.5539 H         1 UNK         0.0600 
    163 H163        2.7977  -14.8851  -42.3244 H         1 UNK         0.0600 
    164 H164        0.5538  -15.4328  -41.3721 H         1 UNK         0.3000 
    165 H165       -2.7526  -16.8035  -41.4545 H         1 UNK         0.0600 
    166 H166       -2.6092  -16.1570  -39.0665 H         1 UNK         0.0600 
    167 H167       -1.6876  -17.6252  -39.3477 H         1 UNK         0.0600 
    168 H168       -0.8491  -16.0902  -39.1561 H         1 UNK         0.0600 
    169 H169       -1.6948  -14.2746  -40.6124 H         1 UNK         0.3000 
    170 H170       -1.8972  -12.5969  -43.7191 H         1 UNK         0.0600 
    171 H171       -4.2887  -12.6215  -42.9970 H         1 UNK         0.0600 
    172 H172       -3.7978  -12.3926  -41.3229 H         1 UNK         0.0600 
    173 H173       -3.4916  -11.1318  -42.5185 H         1 UNK         0.0600 
    174 H174       -1.4439  -11.5993  -41.1179 H         1 UNK         0.3000 
    175 H175        0.5095  -11.0223  -40.3644 H         1 UNK         0.0600 
    176 H176        2.3786  -13.4502  -40.4543 H         1 UNK         0.0600 
    177 H177        2.3117  -12.2266  -39.1906 H         1 UNK         0.0600 
    178 H178        0.9504  -13.3084  -39.4362 H         1 UNK         0.0600 
    179 H179        3.0573  -11.4886  -41.7148 H         1 UNK         0.3000 
    180 H180        2.8997   -8.6343  -43.7719 H         1 UNK         0.0600 
    181 H181        4.4233   -8.8586  -41.1209 H         1 UNK         0.0600 
    182 H182        3.3911   -7.5172  -41.6012 H         1 UNK         0.0600 
    183 H183        4.8712   -7.8396  -42.4896 H         1 UNK         0.0600 
    184 H184        4.9878  -10.4571  -42.8948 H         1 UNK         0.3000 
    185 H185        5.9710  -11.6858  -44.5968 H         1 UNK         0.0600 
    186 H186        5.3918  -14.1332  -44.4354 H         1 UNK         0.0600 
    187 H187        4.6354  -13.2434  -43.1246 H         1 UNK         0.0600 
    188 H188        3.6754  -13.7442  -44.5130 H         1 UNK         0.0600 
    189 H189        4.1298  -11.9205  -46.8102 H         1 UNK         0.3000 
    190 H190       -0.6973  -22.4744  -47.8815 H         1 UNK         0.3000 
    191 H191       -1.5367  -23.1068  -50.5049 H         1 UNK         0.0600 
    192 H192       -2.7348  -23.8792  -47.7836 H         1 UNK         0.0600 
    193 H193       -3.5789  -23.9607  -49.3241 H         1 UNK         0.0600 
    194 H194       -3.0775  -22.4054  -48.6832 H         1 UNK         0.0600 
    195 H195       -2.1914  -25.0663  -51.4356 H         1 UNK         0.3000 
    196 H196       -0.6819  -27.4983  -50.7843 H         1 UNK         0.0600 
    197 H197       -1.6520  -28.3193  -52.8930 H         1 UNK         0.0600 
    198 H198       -1.0491  -26.6978  -53.1689 H         1 UNK         0.0600 
    199 H199       -2.7784  -26.9740  -52.9690 H         1 UNK         0.0600 
    200 H200       -2.1253  -29.5731  -51.0479 H         1 UNK         0.3000 
    201 H201       -3.6635  -29.9067  -48.7446 H         1 UNK         0.0600 
    202 H202       -2.4189  -31.7240  -49.8780 H         1 UNK         0.0600 
    203 H203       -3.5042  -31.6418  -51.2669 H         1 UNK         0.0600 
    204 H204       -4.1053  -32.1777  -49.7027 H         1 UNK         0.0600 
    205 H205       -4.7637  -28.6923  -51.7884 H         1 UNK         0.3000 
    206 H206       -7.5782  -29.3039  -51.5174 H         1 UNK         0.0600 
    207 H207       -6.4706  -28.8141  -53.7132 H         1 UNK         0.0600 
    208 H208       -7.8048  -27.7195  -53.4011 H         1 UNK         0.0600 
    209 H209       -6.1512  -27.1614  -53.1852 H         1 UNK         0.0600 
    210 H210       -5.5285  -27.1318  -49.8789 H         1 UNK         0.3000 
    211 H211       -5.7750  -25.6887  -48.2681 H         1 UNK         0.0600 
    212 H212       -8.8248  -25.6433  -48.5759 H         1 UNK         0.0600 
    213 H213       -7.8848  -25.0711  -47.2109 H         1 UNK         0.0600 
    214 H214       -7.9471  -26.7896  -47.5620 H         1 UNK         0.0600 
    215 H215       -6.2016  -23.3919  -47.8909 H         1 UNK         0.3000 
    216 H216       -5.1661  -21.9203  -49.9647 H         1 UNK         0.0600 
    217 H217       -5.5775  -19.9535  -48.4519 H         1 UNK         0.0600 
    218 H218       -6.6548  -20.9351  -47.4705 H         1 UNK         0.0600 
    219 H219       -4.9405  -21.3283  -47.5642 H         1 UNK         0.0600 
    220 H220       -8.5887  -22.3134  -49.2405 H         1 UNK         0.3000 
    221 H221       -9.6072  -20.1315  -50.7711 H         1 UNK         0.0600 
    222 H222      -10.9090  -22.7817  -49.9407 H         1 UNK         0.0600 
    223 H223      -10.9157  -21.2855  -49.0054 H         1 UNK         0.0600 
    224 H224      -11.7688  -21.3675  -50.5380 H         1 UNK         0.0600 
    225 H225       -8.4304  -23.2990  -51.7419 H         1 UNK         0.3000 
    226 H226       -9.5253  -22.9537  -54.5151 H         1 UNK         0.0600 
    227 H227      -10.3185  -25.0092  -53.3840 H         1 UNK         0.0600 
    228 H228       -9.2078  -25.4199  -54.6836 H         1 UNK         0.0600 
    229 H229       -8.6614  -25.4734  -53.0110 H         1 UNK         0.0600 
    230 H230       -6.6250  -23.8284  -52.5695 H         1 UNK         0.3000 
    231 H231       -4.9300  -24.2026  -54.8579 H         1 UNK         0.0600 
    232 H232       -3.1839  -24.5098  -53.1369 H         1 UNK         0.0600 
    233 H233       -4.6388  -25.3775  -52.6575 H         1 UNK         0.0600 
    234 H234       -4.2347  -23.8425  -51.8931 H         1 UNK         0.0600 
    235 H235       -5.6864  -21.4379  -52.8548 H         1 UNK         0.3000 
    236 H236       -5.0497  -19.3375  -52.6714 H         1 UNK         0.0600 
    237 H237       -3.8020  -18.1131  -54.3653 H         1 UNK         0.0600 
    238 H238       -4.9069  -19.1911  -55.2008 H         1 UNK         0.0600 
    239 H239       -3.1907  -19.5852  -55.0941 H         1 UNK         0.0600 
    240 H240       -3.1219  -17.9651  -52.0445 H         1 UNK         0.3000 
    241 H241       -1.4535  -17.5897  -50.6593 H         1 UNK         0.0600 
    242 H242       -2.6728  -20.2459  -48.2059 H         1 UNK         0.3800 
    243 H243       -3.5064  -19.6557  -49.6355 H         1 UNK         0.3800 
    244 H244       -0.1529  -19.8033  -52.3046 H         1 UNK         0.0800 
    245 H245        0.7448  -19.0465  -51.0521 H         1 UNK         0.0800 
    246 H246        0.1318  -15.9746  -50.9841 H         1 UNK         0.0800 
    247 H247        1.0753  -15.2993  -52.2763 H         1 UNK         0.0800 
@<TRIPOS>BOND
     1    1    2 1    
     2    1  127 1    
     3    1  128 1    
     4    1  129 1    
     5    2    3 2    
     6    2    4 am   BACKBONE|DICT|INTERRES
     7    4    5 1    
     8    4  130 1    
     9    5    6 1    
    10    5   65 1    
    11    5  131 1    
    12    6    7 1    
    13    6  132 1    
    14    6  133 1    
    15    7    8 1    
    16    8    9 1    
    17    8  134 1    
    18    8  135 1    
    19    9   10 ar   
    20    9   14 ar   
    21   10   11 ar   
    22   10  136 1    
    23   11   12 ar   
    24   11  126 1    
    25   12   13 ar   
    26   12  137 1    
    27   13   14 ar   
    28   13   15 1    
    29   14  138 1    
    30   15   16 1    
    31   15  139 1    
    32   15  140 1    
    33   16   17 1    
    34   17   18 1    
    35   17  141 1    
    36   17  142 1    
    37   18   19 1    
    38   18   67 1    
    39   18  143 1    
    40   19   20 am   BACKBONE|DICT|INTERRES
    41   19  144 1    
    42   20   21 2    
    43   20   22 1    
    44   22   23 1    
    45   22   24 1    
    46   22  145 1    
    47   23  146 1    
    48   23  147 1    
    49   23  148 1    
    50   24   25 am   BACKBONE|DICT|INTERRES
    51   24  149 1    
    52   25   26 2    
    53   25   27 1    
    54   27   28 1    
    55   27   29 1    
    56   27  150 1    
    57   28  151 1    
    58   28  152 1    
    59   28  153 1    
    60   29   30 am   BACKBONE|DICT|INTERRES
    61   29  154 1    
    62   30   31 2    
    63   30   32 1    
    64   32   33 1    
    65   32   34 1    
    66   32  155 1    
    67   33  156 1    
    68   33  157 1    
    69   33  158 1    
    70   34   35 am   BACKBONE|DICT|INTERRES
    71   34  159 1    
    72   35   36 2    
    73   35   37 1    
    74   37   38 1    
    75   37   39 1    
    76   37  160 1    
    77   38  161 1    
    78   38  162 1    
    79   38  163 1    
    80   39   40 am   BACKBONE|DICT|INTERRES
    81   39  164 1    
    82   40   41 2    
    83   40   42 1    
    84   42   43 1    
    85   42   44 1    
    86   42  165 1    
    87   43  166 1    
    88   43  167 1    
    89   43  168 1    
    90   44   45 am   BACKBONE|DICT|INTERRES
    91   44  169 1    
    92   45   46 2    
    93   45   47 1    
    94   47   48 1    
    95   47   49 1    
    96   47  170 1    
    97   48  171 1    
    98   48  172 1    
    99   48  173 1    
   100   49   50 am   BACKBONE|DICT|INTERRES
   101   49  174 1    
   102   50   51 2    
   103   50   52 1    
   104   52   53 1    
   105   52   54 1    
   106   52  175 1    
   107   53  176 1    
   108   53  177 1    
   109   53  178 1    
   110   54   55 am   BACKBONE|DICT|INTERRES
   111   54  179 1    
   112   55   56 2    
   113   55   57 1    
   114   57   58 1    
   115   57   59 1    
   116   57  180 1    
   117   58  181 1    
   118   58  182 1    
   119   58  183 1    
   120   59   60 am   BACKBONE|DICT|INTERRES
   121   59  184 1    
   122   60   61 2    
   123   60   62 1    
   124   62   63 1    
   125   62   64 1    
   126   62  185 1    
   127   63  186 1    
   128   63  187 1    
   129   63  188 1    
   130   64   65 am   BACKBONE|DICT|INTERRES
   131   64  189 1    
   132   65   66 2    
   133   67   68 2    
   134   67   69 am   BACKBONE|DICT|INTERRES
   135   69   70 1    
   136   69  190 1    
   137   70   71 1    
   138   70   72 1    
   139   70  191 1    
   140   71  192 1    
   141   71  193 1    
   142   71  194 1    
   143   72   73 2    
   144   72   74 am   BACKBONE|DICT|INTERRES
   145   74   75 1    
   146   74  195 1    
   147   75   76 1    
   148   75   77 1    
   149   75  196 1    
   150   76  197 1    
   151   76  198 1    
   152   76  199 1    
   153   77   78 2    
   154   77   79 am   BACKBONE|DICT|INTERRES
   155   79   80 1    
   156   79  200 1    
   157   80   81 1    
   158   80   82 1    
   159   80  201 1    
   160   81  202 1    
   161   81  203 1    
   162   81  204 1    
   163   82   83 2    
   164   82   84 am   BACKBONE|DICT|INTERRES
   165   84   85 1    
   166   84  205 1    
   167   85   86 1    
   168   85   87 1    
   169   85  206 1    
   170   86  207 1    
   171   86  208 1    
   172   86  209 1    
   173   87   88 2    
   174   87   89 am   BACKBONE|DICT|INTERRES
   175   89   90 1    
   176   89  210 1    
   177   90   91 1    
   178   90   92 1    
   179   90  211 1    
   180   91  212 1    
   181   91  213 1    
   182   91  214 1    
   183   92   93 2    
   184   92   94 am   BACKBONE|DICT|INTERRES
   185   94   95 1    
   186   94  215 1    
   187   95   96 1    
   188   95   97 1    
   189   95  216 1    
   190   96  217 1    
   191   96  218 1    
   192   96  219 1    
   193   97   98 2    
   194   97   99 am   BACKBONE|DICT|INTERRES
   195   99  100 1    
   196   99  220 1    
   197  100  101 1    
   198  100  102 1    
   199  100  221 1    
   200  101  222 1    
   201  101  223 1    
   202  101  224 1    
   203  102  103 2    
   204  102  104 am   BACKBONE|DICT|INTERRES
   205  104  105 1    
   206  104  225 1    
   207  105  106 1    
   208  105  107 1    
   209  105  226 1    
   210  106  227 1    
   211  106  228 1    
   212  106  229 1    
   213  107  108 2    
   214  107  109 am   BACKBONE|DICT|INTERRES
   215  109  110 1    
   216  109  230 1    
   217  110  111 1    
   218  110  112 1    
   219  110  231 1    
   220  111  232 1    
   221  111  233 1    
   222  111  234 1    
   223  112  113 2    
   224  112  114 am   BACKBONE|DICT|INTERRES
   225  114  115 1    
   226  114  235 1    
   227  115  116 1    
   228  115  117 1    
   229  115  236 1    
   230  116  237 1    
   231  116  238 1    
   232  116  239 1    
   233  117  118 2    
   234  117  119 am   BACKBONE|DICT|INTERRES
   235  119  120 1    
   236  119  240 1    
   237  120  121 1    
   238  120  124 1    
   239  120  241 1    
   240  121  122 am   BACKBONE|DICT|INTERRES
   241  121  123 2    
   242  122  242 1    
   243  122  243 1    
   244  124  125 1    
   245  124  244 1    
   246  124  245 1    
   247  125  126 1    
   248  126  246 1    
   249  126  247 1    
@<TRIPOS>SUBSTRUCTURE
     1 UNK         1 GROUP             0       ****    0 ROOT    
