@<TRIPOS>MOLECULE
3R540
247   249    1
SMALL
USER_CHARGES


@<TRIPOS>ATOM
      1 CA          9.2774  -14.6802  -49.4490 C.3       0 UNK        -0.1800 
      2 C           8.4280  -15.8731  -49.8852 C.2       0 UNK         0.5000 
      3 O           8.8870  -16.6741  -50.6976 O.2       0 UNK        -0.5000 
      4 N           7.2036  -16.0499  -49.3705 N.am      1 UNK        -0.5000 
      5 CA          6.4749  -15.1501  -48.4696 C.3       1 UNK         0.1400 
      6 C6          5.2948  -15.8736  -47.7624 C.3       23 UNK        -0.0398 
      7 S7          4.1805  -16.8526  -48.8384 S.3       23 UNK        -0.2404 
      8 C8          3.0918  -15.5615  -49.5225 C.3       23 UNK        -0.0205 
      9 C9          1.6544  -16.0238  -49.7142 C.ar      23 UNK        -0.0193 
     10 C10         0.6132  -15.2977  -49.1292 C.ar      23 UNK        -0.1150 
     11 C11        -0.7164  -15.6654  -49.3381 C.ar      23 UNK        -0.0193 
     12 C12        -1.0045  -16.7895  -50.1157 C.ar      23 UNK        -0.1150 
     13 C13         0.0245  -17.5313  -50.7028 C.ar      23 UNK        -0.0193 
     14 C14         1.3526  -17.1347  -50.5100 C.ar      23 UNK        -0.1150 
     15 C15        -0.3097  -18.7517  -51.5531 C.3       23 UNK        -0.0205 
     16 S16         0.3643  -20.3057  -50.8774 S.3       23 UNK        -0.2404 
     17 C17        -0.1210  -20.1919  -49.1241 C.3       23 UNK        -0.0398 
     18 CA          0.0415  -21.5326  -48.3701 C.3       11 UNK         0.1400 
     19 N           0.3131  -21.3305  -46.9457 N.am      11 UNK        -0.5000 
     20 C           0.6766  -22.2964  -46.0909 C.2       10 UNK         0.5000 
     21 O           0.8492  -23.4706  -46.4163 O.2       10 UNK        -0.5000 
     22 CA          0.8306  -21.8934  -44.6144 C.3       10 UNK         0.1400 
     23 CB          2.1800  -21.2001  -44.3752 C.3       10 UNK        -0.1800 
     24 N          -0.2594  -21.0355  -44.1482 N.am      10 UNK        -0.5000 
     25 C          -1.5450  -21.4124  -44.0899 C.2       9 UNK         0.5000 
     26 O          -1.9424  -22.5367  -44.3946 O.2       9 UNK        -0.5000 
     27 CA         -2.5663  -20.3460  -43.6583 C.3       9 UNK         0.1400 
     28 CB         -2.5504  -20.1579  -42.1341 C.3       9 UNK        -0.1800 
     29 N          -2.3529  -19.0568  -44.3141 N.am      9 UNK        -0.5000 
     30 C          -2.4307  -18.8494  -45.6366 C.2       8 UNK         0.5000 
     31 O          -2.7084  -19.7214  -46.4603 O.2       8 UNK        -0.5000 
     32 CA         -2.0922  -17.4313  -46.1245 C.3       8 UNK         0.1400 
     33 CB         -3.2364  -16.4631  -45.7872 C.3       8 UNK        -0.1800 
     34 N          -0.8400  -16.9251  -45.5629 N.am      8 UNK        -0.5000 
     35 C           0.3554  -17.5214  -45.6849 C.2       7 UNK         0.5000 
     36 O           0.5491  -18.5514  -46.3267 O.2       7 UNK        -0.5000 
     37 CA          1.5181  -16.9017  -44.8944 C.3       7 UNK         0.1400 
     38 CB          2.0769  -15.6639  -45.6113 C.3       7 UNK        -0.1800 
     39 N           1.1219  -16.5582  -43.5286 N.am      7 UNK        -0.5000 
     40 C           0.7846  -17.4550  -42.5894 C.2       6 UNK         0.5000 
     41 O           0.8153  -18.6731  -42.7603 O.2       6 UNK        -0.5000 
     42 CA          0.2852  -16.8908  -41.2474 C.3       6 UNK         0.1400 
     43 CB          1.4678  -16.5175  -40.3413 C.3       6 UNK        -0.1800 
     44 N          -0.5783  -15.7233  -41.4262 N.am      6 UNK        -0.5000 
     45 C          -1.7918  -15.7591  -41.9957 C.2       5 UNK         0.5000 
     46 O          -2.3372  -16.7951  -42.3754 O.2       5 UNK        -0.5000 
     47 CA         -2.4818  -14.4003  -42.2263 C.3       5 UNK         0.1400 
     48 CB         -3.2678  -13.9726  -40.9782 C.3       5 UNK        -0.1800 
     49 N          -1.5315  -13.3444  -42.5929 N.am      5 UNK        -0.5000 
     50 C          -0.8269  -13.3360  -43.7313 C.2       4 UNK         0.5000 
     51 O          -0.9490  -14.1887  -44.6158 O.2       4 UNK        -0.5000 
     52 CA          0.2357  -12.2386  -43.8800 C.3       4 UNK         0.1400 
     53 CB          1.4775  -12.6019  -43.0372 C.3       4 UNK        -0.1800 
     54 N           0.5738  -12.1336  -45.2973 N.am      4 UNK        -0.5000 
     55 C           1.4165  -11.2654  -45.8636 C.2       3 UNK         0.5000 
     56 O           2.0378  -10.3960  -45.2476 O.2       3 UNK        -0.5000 
     57 CA          1.6007  -11.3833  -47.3812 C.3       3 UNK         0.1400 
     58 CB          0.7744  -10.3216  -48.1287 C.3       3 UNK        -0.1800 
     59 N           3.0218  -11.2376  -47.6762 N.am      3 UNK        -0.5000 
     60 C           3.6359  -11.6585  -48.7871 C.2       2 UNK         0.5000 
     61 O           3.0432  -12.1575  -49.7435 O.2       2 UNK        -0.5000 
     62 CA          5.1722  -11.5440  -48.8252 C.3       2 UNK         0.1400 
     63 CB          5.7270  -10.4008  -47.9523 C.3       2 UNK        -0.1800 
     64 N           5.7582  -12.8094  -48.3836 N.am      2 UNK        -0.5000 
     65 C           6.0116  -13.8567  -49.1796 C.2       1 UNK         0.5000 
     66 O           5.8857  -13.8327  -50.4063 O.2       1 UNK        -0.5000 
     67 C          -1.1644  -22.4654  -48.5920 C.2       11 UNK         0.5000 
     68 O          -1.0656  -23.4041  -49.3818 O.2       11 UNK        -0.5000 
     69 N          -2.2574  -22.2298  -47.8499 N.am      12 UNK        -0.5000 
     70 CA         -3.4543  -23.0701  -47.8506 C.3       12 UNK         0.1400 
     71 CB         -4.5467  -22.4270  -46.9848 C.3       12 UNK        -0.1800 
     72 C          -3.1713  -24.5108  -47.3940 C.2       12 UNK         0.5000 
     73 O          -3.6448  -25.4453  -48.0387 O.2       12 UNK        -0.5000 
     74 N          -2.3796  -24.6696  -46.3247 N.am      13 UNK        -0.5000 
     75 CA         -1.9412  -25.9666  -45.8095 C.3       13 UNK         0.1400 
     76 CB         -1.2195  -25.7764  -44.4668 C.3       13 UNK        -0.1800 
     77 C          -1.0551  -26.7333  -46.8079 C.2       13 UNK         0.5000 
     78 O          -1.2930  -27.9193  -47.0381 O.2       13 UNK        -0.5000 
     79 N          -0.0765  -26.0389  -47.4059 N.am      14 UNK        -0.5000 
     80 CA          0.8447  -26.5862  -48.4044 C.3       14 UNK         0.1400 
     81 CB          1.9527  -25.5622  -48.6942 C.3       14 UNK        -0.1800 
     82 C           0.1439  -27.0075  -49.7089 C.2       14 UNK         0.5000 
     83 O           0.4725  -28.0559  -50.2651 O.2       14 UNK        -0.5000 
     84 N          -0.8189  -26.1947  -50.1616 N.am      15 UNK        -0.5000 
     85 CA         -1.6137  -26.4356  -51.3662 C.3       15 UNK         0.1400 
     86 CB         -2.1564  -25.0901  -51.8679 C.3       15 UNK        -0.1800 
     87 C          -2.7728  -27.4292  -51.1573 C.2       15 UNK         0.5000 
     88 O          -3.4224  -27.7917  -52.1371 O.2       15 UNK        -0.5000 
     89 N          -3.0453  -27.8188  -49.9029 N.am      16 UNK        -0.5000 
     90 CA         -4.1698  -28.6531  -49.4623 C.3       16 UNK         0.1400 
     91 CB         -4.0256  -30.0970  -49.9864 C.3       16 UNK        -0.1800 
     92 C          -5.5325  -28.0097  -49.8017 C.2       16 UNK         0.5000 
     93 O          -6.4152  -28.6615  -50.3619 O.2       16 UNK        -0.5000 
     94 N          -5.6469  -26.7164  -49.4693 N.am      17 UNK        -0.5000 
     95 CA         -6.7895  -25.8164  -49.6580 C.3       17 UNK         0.1400 
     96 CB         -8.0396  -26.3392  -48.9205 C.3       17 UNK        -0.1800 
     97 C          -7.0845  -25.4375  -51.1259 C.2       17 UNK         0.5000 
     98 O          -8.1172  -24.8188  -51.3867 O.2       17 UNK        -0.5000 
     99 N          -6.1808  -25.7726  -52.0591 N.am      18 UNK        -0.5000 
    100 CA        -6.2962  -25.4118  -53.4762 C.3       18 UNK         0.1400 
    101 CB        -5.4585  -26.3846  -54.3195 C.3       18 UNK        -0.1800 
    102 C         -5.8851  -23.9537  -53.7673 C.2       18 UNK         0.5000 
    103 O         -6.2702  -23.4175  -54.8076 O.2       18 UNK        -0.5000 
    104 N         -5.1074  -23.3406  -52.8634 N.am      19 UNK        -0.5000 
    105 CA        -4.6838  -21.9422  -52.9420 C.3       19 UNK         0.1400 
    106 CB        -3.5191  -21.7066  -51.9647 C.3       19 UNK        -0.1800 
    107 C         -5.8396  -20.9752  -52.6282 C.2       19 UNK         0.5000 
    108 O         -6.7417  -21.3172  -51.8604 O.2       19 UNK        -0.5000 
    109 N         -5.7572  -19.7613  -53.1884 N.am      20 UNK        -0.5000 
    110 CA        -6.7079  -18.6693  -52.9524 C.3       20 UNK         0.1400 
    111 CB        -6.5065  -17.5931  -54.0307 C.3       20 UNK        -0.1800 
    112 C         -6.5906  -18.0446  -51.5469 C.2       20 UNK         0.5000 
    113 O         -7.5276  -17.3773  -51.1049 O.2       20 UNK        -0.5000 
    114 N         -5.4378  -18.2496  -50.8870 N.am      21 UNK        -0.5000 
    115 CA        -5.1071  -17.8326  -49.5175 C.3       21 UNK         0.1400 
    116 CB        -5.9069  -18.6734  -48.5024 C.3       21 UNK        -0.1800 
    117 C         -5.2549  -16.3131  -49.2833 C.2       21 UNK         0.5000 
    118 O         -5.6266  -15.8901  -48.1887 O.2       21 UNK        -0.5000 
    119 N         -4.9697  -15.5227  -50.3280 N.am      22 UNK        -0.5000 
    120 CA        -5.1242  -14.0568  -50.3750 C.3       22 UNK         0.1400 
    121 C         -6.5978  -13.5551  -50.2377 C.2       22 UNK         0.5000 
    122 N         -7.6092  -14.3963  -50.4273 N.am      22 UNK        -0.7600 
    123 O         -6.8362  -12.3753  -49.9935 O.2       22 UNK        -0.5000 
    124 C124       -4.1309  -13.3112  -49.4343 C.3       23 UNK        -0.0398 
    125 S125       -2.3930  -13.5698  -49.9330 S.3       23 UNK        -0.2404 
    126 C126       -1.8439  -14.8357  -48.7496 C.3       23 UNK        -0.0205 
    127 H127        9.3539  -14.6235  -48.3636 H         1 UNK         0.0600 
    128 H128        8.8590  -13.7469  -49.8248 H         1 UNK         0.0600 
    129 H129       10.2899  -14.7707  -49.8433 H         1 UNK         0.0600 
    130 H130        6.6571  -16.8347  -49.6959 H         1 UNK         0.3000 
    131 H131        7.1665  -14.8445  -47.6826 H         1 UNK         0.0600 
    132 H132        4.7052  -15.1771  -47.1643 H         1 UNK         0.0800 
    133 H133        5.7105  -16.5751  -47.0377 H         1 UNK         0.0800 
    134 H134        3.4878  -15.2290  -50.4829 H         1 UNK         0.0800 
    135 H135        3.1117  -14.6926  -48.8652 H         1 UNK         0.0800 
    136 H136        0.8346  -14.4268  -48.5321 H         1 UNK         0.1150 
    137 H137       -2.0334  -17.0736  -50.2792 H         1 UNK         0.1150 
    138 H138        2.1519  -17.6969  -50.9721 H         1 UNK         0.1150 
    139 H139       -1.3895  -18.8611  -51.6620 H         1 UNK         0.0800 
    140 H140        0.0847  -18.6038  -52.5592 H         1 UNK         0.0800 
    141 H141       -1.1328  -19.7922  -49.0313 H         1 UNK         0.0800 
    142 H142        0.5387  -19.4428  -48.6871 H         1 UNK         0.0800 
    143 H143        0.9207  -22.0424  -48.7705 H         1 UNK         0.0600 
    144 H144        0.2313  -20.3763  -46.6014 H         1 UNK         0.3000 
    145 H145        0.8107  -22.8081  -44.0185 H         1 UNK         0.0600 
    146 H146        2.3346  -20.9955  -43.3157 H         1 UNK         0.0600 
    147 H147        2.2478  -20.2532  -44.9114 H         1 UNK         0.0600 
    148 H148        3.0068  -21.8279  -44.7094 H         1 UNK         0.0600 
    149 H149       -0.0036  -20.1003  -43.8455 H         1 UNK         0.3000 
    150 H150       -3.5575  -20.7022  -43.9459 H         1 UNK         0.0600 
    151 H151       -2.7219  -21.1051  -41.6213 H         1 UNK         0.0600 
    152 H152       -3.3320  -19.4683  -41.8147 H         1 UNK         0.0600 
    153 H153       -1.5953  -19.7629  -41.7864 H         1 UNK         0.0600 
    154 H154       -2.1482  -18.2685  -43.7074 H         1 UNK         0.3000 
    155 H155       -1.9761  -17.4730  -47.2087 H         1 UNK         0.0600 
    156 H156       -3.4012  -16.3866  -44.7139 H         1 UNK         0.0600 
    157 H157       -4.1725  -16.8030  -46.2281 H         1 UNK         0.0600 
    158 H158       -3.0415  -15.4581  -46.1584 H         1 UNK         0.0600 
    159 H159       -0.8969  -16.0522  -45.0462 H         1 UNK         0.3000 
    160 H160        2.3154  -17.6458  -44.8373 H         1 UNK         0.0600 
    161 H161        1.3380  -14.8691  -45.6935 H         1 UNK         0.0600 
    162 H162        2.3863  -15.9189  -46.6238 H         1 UNK         0.0600 
    163 H163        2.9486  -15.2642  -45.0933 H         1 UNK         0.0600 
    164 H164        1.0283  -15.5783  -43.3145 H         1 UNK         0.3000 
    165 H165       -0.2943  -17.6721  -40.7508 H         1 UNK         0.0600 
    166 H166        1.1238  -16.1849  -39.3618 H         1 UNK         0.0600 
    167 H167        2.1214  -17.3760  -40.1806 H         1 UNK         0.0600 
    168 H168        2.0735  -15.7199  -40.7735 H         1 UNK         0.0600 
    169 H169       -0.2103  -14.8319  -41.1300 H         1 UNK         0.3000 
    170 H170       -3.1890  -14.5219  -43.0495 H         1 UNK         0.0600 
    171 H171       -3.9952  -14.7349  -40.6958 H         1 UNK         0.0600 
    172 H172       -2.6115  -13.8117  -40.1220 H         1 UNK         0.0600 
    173 H173       -3.8195  -13.0495  -41.1572 H         1 UNK         0.0600 
    174 H174       -1.3834  -12.6120  -41.9132 H         1 UNK         0.3000 
    175 H175       -0.1848  -11.2896  -43.5424 H         1 UNK         0.0600 
    176 H176        1.9677  -13.5019  -43.4087 H         1 UNK         0.0600 
    177 H177        2.2144  -11.7994  -43.0390 H         1 UNK         0.0600 
    178 H178        1.2128  -12.7781  -41.9940 H         1 UNK         0.0600 
    179 H179        0.0849  -12.8143  -45.8659 H         1 UNK         0.3000 
    180 H180        1.2755  -12.3753  -47.6966 H         1 UNK         0.0600 
    181 H181        0.8678  -10.4326  -49.2090 H         1 UNK         0.0600 
    182 H182        1.0896   -9.3109  -47.8668 H         1 UNK         0.0600 
    183 H183       -0.2852  -10.4108  -47.8859 H         1 UNK         0.0600 
    184 H184        3.5640  -10.8378  -46.9209 H         1 UNK         0.3000 
    185 H185        5.4592  -11.3399  -49.8591 H         1 UNK         0.0600 
    186 H186        5.5661  -10.5740  -46.8877 H         1 UNK         0.0600 
    187 H187        6.8001  -10.2843  -48.1057 H         1 UNK         0.0600 
    188 H188        5.2612   -9.4487  -48.2106 H         1 UNK         0.0600 
    189 H189        5.8858  -12.9093  -47.3867 H         1 UNK         0.3000 
    190 H190       -2.2734  -21.4213  -47.2330 H         1 UNK         0.3000 
    191 H191       -3.8228  -23.1199  -48.8764 H         1 UNK         0.0600 
    192 H192       -4.8014  -21.4322  -47.3482 H         1 UNK         0.0600 
    193 H193       -4.2325  -22.3297  -45.9454 H         1 UNK         0.0600 
    194 H194       -5.4597  -23.0235  -46.9994 H         1 UNK         0.0600 
    195 H195       -2.0669  -23.8473  -45.8157 H         1 UNK         0.3000 
    196 H196       -2.8335  -26.5697  -45.6290 H         1 UNK         0.0600 
    197 H197       -1.8771  -25.3161  -43.7292 H         1 UNK         0.0600 
    198 H198       -0.3378  -25.1432  -44.5679 H         1 UNK         0.0600 
    199 H199       -0.8927  -26.7337  -44.0592 H         1 UNK         0.0600 
    200 H200        0.0739  -25.0699  -47.1358 H         1 UNK         0.3000 
    201 H201        1.3093  -27.4765  -47.9760 H         1 UNK         0.0600 
    202 H202        2.5176  -25.3277  -47.7919 H         1 UNK         0.0600 
    203 H203        1.5449  -24.6289  -49.0847 H         1 UNK         0.0600 
    204 H204        2.6598  -25.9469  -49.4301 H         1 UNK         0.0600 
    205 H205       -0.9891  -25.3163  -49.6778 H         1 UNK         0.3000 
    206 H206       -0.9644  -26.8491  -52.1405 H         1 UNK         0.0600 
    207 H207       -2.8387  -24.6421  -51.1445 H         1 UNK         0.0600 
    208 H208       -1.3454  -24.3838  -52.0464 H         1 UNK         0.0600 
    209 H209       -2.6953  -25.2043  -52.8083 H         1 UNK         0.0600 
    210 H210       -2.4717  -27.4371  -49.1622 H         1 UNK         0.3000 
    211 H211       -4.1119  -28.6914  -48.3735 H         1 UNK         0.0600 
    212 H212       -4.1192  -30.1493  -51.0714 H         1 UNK         0.0600 
    213 H213       -4.7945  -30.7433  -49.5616 H         1 UNK         0.0600 
    214 H214       -3.0589  -30.5195  -49.7123 H         1 UNK         0.0600 
    215 H215       -4.8467  -26.2884  -49.0017 H         1 UNK         0.3000 
    216 H216       -6.4995  -24.8832  -49.1729 H         1 UNK         0.0600 
    217 H217       -8.8309  -25.5887  -48.9100 H         1 UNK         0.0600 
    218 H218       -7.8126  -26.5817  -47.8823 H         1 UNK         0.0600 
    219 H219       -8.4471  -27.2326  -49.3939 H         1 UNK         0.0600 
    220 H220       -5.3788  -26.3263  -51.7903 H         1 UNK         0.3000 
    221 H221       -7.3391  -25.5247  -53.7803 H         1 UNK         0.0600 
    222 H222       -4.3921  -26.2741  -54.1251 H         1 UNK         0.0600 
    223 H223       -5.7312  -27.4207  -54.1177 H         1 UNK         0.0600 
    224 H224       -5.6140  -26.2088  -55.3846 H         1 UNK         0.0600 
    225 H225       -4.8790  -23.8384  -52.0179 H         1 UNK         0.3000 
    226 H226       -4.3300  -21.7455  -53.9564 H         1 UNK         0.0600 
    227 H227       -2.6553  -22.3177  -52.2225 H         1 UNK         0.0600 
    228 H228       -3.1869  -20.6684  -51.9889 H         1 UNK         0.0600 
    229 H229       -3.8004  -21.9343  -50.9367 H         1 UNK         0.0600 
    230 H230       -4.9898  -19.5593  -53.8135 H         1 UNK         0.3000 
    231 H231       -7.7205  -19.0665  -53.0497 H         1 UNK         0.0600 
    232 H232       -7.2168  -16.7747  -53.9046 H         1 UNK         0.0600 
    233 H233       -6.6603  -18.0020  -55.0295 H         1 UNK         0.0600 
    234 H234       -5.5038  -17.1657  -53.9926 H         1 UNK         0.0600 
    235 H235       -4.7308  -18.7902  -51.3621 H         1 UNK         0.3000 
    236 H236       -4.0513  -18.0631  -49.3695 H         1 UNK         0.0600 
    237 H237       -6.9686  -18.4250  -48.5217 H         1 UNK         0.0600 
    238 H238       -5.8105  -19.7381  -48.7133 H         1 UNK         0.0600 
    239 H239       -5.5475  -18.5104  -47.4858 H         1 UNK         0.0600 
    240 H240       -4.6874  -15.9587  -51.1931 H         1 UNK         0.3000 
    241 H241       -4.8585  -13.7787  -51.3954 H         1 UNK         0.0600 
    242 H242       -8.5538  -14.0549  -50.3479 H         1 UNK         0.3800 
    243 H243       -7.4495  -15.3778  -50.6263 H         1 UNK         0.3800 
    244 H244       -4.2759  -13.6004  -48.3928 H         1 UNK         0.0800 
    245 H245       -4.3035  -12.2346  -49.4706 H         1 UNK         0.0800 
    246 H246       -1.5283  -14.3578  -47.8207 H         1 UNK         0.0800 
    247 H247       -2.6749  -15.4896  -48.4954 H         1 UNK         0.0800 
@<TRIPOS>BOND
     1    1    2 1    
     2    1  127 1    
     3    1  128 1    
     4    1  129 1    
     5    2    3 2    
     6    2    4 am   BACKBONE|DICT|INTERRES
     7    4    5 1    
     8    4  130 1    
     9    5    6 1    
    10    5   65 1    
    11    5  131 1    
    12    6    7 1    
    13    6  132 1    
    14    6  133 1    
    15    7    8 1    
    16    8    9 1    
    17    8  134 1    
    18    8  135 1    
    19    9   10 ar   
    20    9   14 ar   
    21   10   11 ar   
    22   10  136 1    
    23   11   12 ar   
    24   11  126 1    
    25   12   13 ar   
    26   12  137 1    
    27   13   14 ar   
    28   13   15 1    
    29   14  138 1    
    30   15   16 1    
    31   15  139 1    
    32   15  140 1    
    33   16   17 1    
    34   17   18 1    
    35   17  141 1    
    36   17  142 1    
    37   18   19 1    
    38   18   67 1    
    39   18  143 1    
    40   19   20 am   BACKBONE|DICT|INTERRES
    41   19  144 1    
    42   20   21 2    
    43   20   22 1    
    44   22   23 1    
    45   22   24 1    
    46   22  145 1    
    47   23  146 1    
    48   23  147 1    
    49   23  148 1    
    50   24   25 am   BACKBONE|DICT|INTERRES
    51   24  149 1    
    52   25   26 2    
    53   25   27 1    
    54   27   28 1    
    55   27   29 1    
    56   27  150 1    
    57   28  151 1    
    58   28  152 1    
    59   28  153 1    
    60   29   30 am   BACKBONE|DICT|INTERRES
    61   29  154 1    
    62   30   31 2    
    63   30   32 1    
    64   32   33 1    
    65   32   34 1    
    66   32  155 1    
    67   33  156 1    
    68   33  157 1    
    69   33  158 1    
    70   34   35 am   BACKBONE|DICT|INTERRES
    71   34  159 1    
    72   35   36 2    
    73   35   37 1    
    74   37   38 1    
    75   37   39 1    
    76   37  160 1    
    77   38  161 1    
    78   38  162 1    
    79   38  163 1    
    80   39   40 am   BACKBONE|DICT|INTERRES
    81   39  164 1    
    82   40   41 2    
    83   40   42 1    
    84   42   43 1    
    85   42   44 1    
    86   42  165 1    
    87   43  166 1    
    88   43  167 1    
    89   43  168 1    
    90   44   45 am   BACKBONE|DICT|INTERRES
    91   44  169 1    
    92   45   46 2    
    93   45   47 1    
    94   47   48 1    
    95   47   49 1    
    96   47  170 1    
    97   48  171 1    
    98   48  172 1    
    99   48  173 1    
   100   49   50 am   BACKBONE|DICT|INTERRES
   101   49  174 1    
   102   50   51 2    
   103   50   52 1    
   104   52   53 1    
   105   52   54 1    
   106   52  175 1    
   107   53  176 1    
   108   53  177 1    
   109   53  178 1    
   110   54   55 am   BACKBONE|DICT|INTERRES
   111   54  179 1    
   112   55   56 2    
   113   55   57 1    
   114   57   58 1    
   115   57   59 1    
   116   57  180 1    
   117   58  181 1    
   118   58  182 1    
   119   58  183 1    
   120   59   60 am   BACKBONE|DICT|INTERRES
   121   59  184 1    
   122   60   61 2    
   123   60   62 1    
   124   62   63 1    
   125   62   64 1    
   126   62  185 1    
   127   63  186 1    
   128   63  187 1    
   129   63  188 1    
   130   64   65 am   BACKBONE|DICT|INTERRES
   131   64  189 1    
   132   65   66 2    
   133   67   68 2    
   134   67   69 am   BACKBONE|DICT|INTERRES
   135   69   70 1    
   136   69  190 1    
   137   70   71 1    
   138   70   72 1    
   139   70  191 1    
   140   71  192 1    
   141   71  193 1    
   142   71  194 1    
   143   72   73 2    
   144   72   74 am   BACKBONE|DICT|INTERRES
   145   74   75 1    
   146   74  195 1    
   147   75   76 1    
   148   75   77 1    
   149   75  196 1    
   150   76  197 1    
   151   76  198 1    
   152   76  199 1    
   153   77   78 2    
   154   77   79 am   BACKBONE|DICT|INTERRES
   155   79   80 1    
   156   79  200 1    
   157   80   81 1    
   158   80   82 1    
   159   80  201 1    
   160   81  202 1    
   161   81  203 1    
   162   81  204 1    
   163   82   83 2    
   164   82   84 am   BACKBONE|DICT|INTERRES
   165   84   85 1    
   166   84  205 1    
   167   85   86 1    
   168   85   87 1    
   169   85  206 1    
   170   86  207 1    
   171   86  208 1    
   172   86  209 1    
   173   87   88 2    
   174   87   89 am   BACKBONE|DICT|INTERRES
   175   89   90 1    
   176   89  210 1    
   177   90   91 1    
   178   90   92 1    
   179   90  211 1    
   180   91  212 1    
   181   91  213 1    
   182   91  214 1    
   183   92   93 2    
   184   92   94 am   BACKBONE|DICT|INTERRES
   185   94   95 1    
   186   94  215 1    
   187   95   96 1    
   188   95   97 1    
   189   95  216 1    
   190   96  217 1    
   191   96  218 1    
   192   96  219 1    
   193   97   98 2    
   194   97   99 am   BACKBONE|DICT|INTERRES
   195   99  100 1    
   196   99  220 1    
   197  100  101 1    
   198  100  102 1    
   199  100  221 1    
   200  101  222 1    
   201  101  223 1    
   202  101  224 1    
   203  102  103 2    
   204  102  104 am   BACKBONE|DICT|INTERRES
   205  104  105 1    
   206  104  225 1    
   207  105  106 1    
   208  105  107 1    
   209  105  226 1    
   210  106  227 1    
   211  106  228 1    
   212  106  229 1    
   213  107  108 2    
   214  107  109 am   BACKBONE|DICT|INTERRES
   215  109  110 1    
   216  109  230 1    
   217  110  111 1    
   218  110  112 1    
   219  110  231 1    
   220  111  232 1    
   221  111  233 1    
   222  111  234 1    
   223  112  113 2    
   224  112  114 am   BACKBONE|DICT|INTERRES
   225  114  115 1    
   226  114  235 1    
   227  115  116 1    
   228  115  117 1    
   229  115  236 1    
   230  116  237 1    
   231  116  238 1    
   232  116  239 1    
   233  117  118 2    
   234  117  119 am   BACKBONE|DICT|INTERRES
   235  119  120 1    
   236  119  240 1    
   237  120  121 1    
   238  120  124 1    
   239  120  241 1    
   240  121  122 am   BACKBONE|DICT|INTERRES
   241  121  123 2    
   242  122  242 1    
   243  122  243 1    
   244  124  125 1    
   245  124  244 1    
   246  124  245 1    
   247  125  126 1    
   248  126  246 1    
   249  126  247 1    
@<TRIPOS>SUBSTRUCTURE
     1 UNK         1 GROUP             0       ****    0 ROOT    
