@<TRIPOS>MOLECULE
3R540
247   249    1
SMALL
USER_CHARGES


@<TRIPOS>ATOM
      1 CA         -2.3246  -13.7753  -49.5294 C.3       0 UNK        -0.1800 
      2 C          -0.9340  -13.5439  -48.9573 C.2       0 UNK         0.5000 
      3 O          -0.6701  -13.9196  -47.8161 O.2       0 UNK        -0.5000 
      4 N          -0.0424  -12.9234  -49.7443 N.am      1 UNK        -0.5000 
      5 CA          1.3675  -12.6443  -49.4130 C.3       1 UNK         0.1400 
      6 C6          2.2163  -13.9319  -49.1969 C.3       23 UNK        -0.0398 
      7 S7          2.2792  -15.0358  -50.6493 S.3       23 UNK        -0.2404 
      8 C8          0.8436  -16.1222  -50.3657 C.3       23 UNK        -0.0205 
      9 C9          1.0975  -17.5538  -50.8121 C.ar      23 UNK        -0.0193 
     10 C10         1.4354  -17.8376  -52.1399 C.ar      23 UNK        -0.1150 
     11 C11         1.6439  -19.1549  -52.5616 C.ar      23 UNK        -0.0193 
     12 C12         1.4976  -20.1941  -51.6340 C.ar      23 UNK        -0.1150 
     13 C13         1.1372  -19.9258  -50.3111 C.ar      23 UNK        -0.0193 
     14 C14         0.9521  -18.6042  -49.9016 C.ar      23 UNK        -0.1150 
     15 C15         0.9122  -21.0683  -49.3375 C.3       23 UNK        -0.0205 
     16 S16         2.4770  -21.7080  -48.6746 S.3       23 UNK        -0.2404 
     17 C17         1.8188  -23.1431  -47.7723 C.3       23 UNK        -0.0398 
     18 CA          2.7836  -23.6981  -46.6994 C.3       11 UNK         0.1400 
     19 N           3.0238  -22.7295  -45.6227 N.am      11 UNK        -0.5000 
     20 C           4.0224  -22.8180  -44.7340 C.2       10 UNK         0.5000 
     21 O           4.8985  -23.6828  -44.7744 O.2       10 UNK        -0.5000 
     22 CA          4.0218  -21.7938  -43.5834 C.3       10 UNK         0.1400 
     23 CB          4.6869  -20.4795  -44.0193 C.3       10 UNK        -0.1800 
     24 N           2.6784  -21.5263  -43.0620 N.am      10 UNK        -0.5000 
     25 C           1.9231  -22.4298  -42.4189 C.2       9 UNK         0.5000 
     26 O           2.2972  -23.5744  -42.1642 O.2       9 UNK        -0.5000 
     27 CA          0.4982  -22.0057  -42.0176 C.3       9 UNK         0.1400 
     28 CB          0.5149  -21.2770  -40.6661 C.3       9 UNK        -0.1800 
     29 N          -0.1666  -21.1705  -43.0183 N.am      9 UNK        -0.5000 
     30 C          -0.4663  -21.5604  -44.2660 C.2       8 UNK         0.5000 
     31 O          -0.2181  -22.6784  -44.7148 O.2       8 UNK        -0.5000 
     32 CA         -1.0814  -20.4970  -45.1927 C.3       8 UNK         0.1400 
     33 CB         -2.5569  -20.2543  -44.8426 C.3       8 UNK        -0.1800 
     34 N          -0.3442  -19.2341  -45.1446 N.am      8 UNK        -0.5000 
     35 C           0.9577  -19.0980  -45.4387 C.2       7 UNK         0.5000 
     36 O           1.6682  -20.0164  -45.8450 O.2       7 UNK        -0.5000 
     37 CA          1.5795  -17.7187  -45.1685 C.3       7 UNK         0.1400 
     38 CB          1.2652  -16.7437  -46.3148 C.3       7 UNK        -0.1800 
     39 N           1.1176  -17.1776  -43.8868 N.am      7 UNK        -0.5000 
     40 C           1.5150  -17.6511  -42.6945 C.2       6 UNK         0.5000 
     41 O           2.3708  -18.5258  -42.5655 O.2       6 UNK        -0.5000 
     42 CA          0.8102  -17.1082  -41.4361 C.3       6 UNK         0.1400 
     43 CB          1.5722  -15.9268  -40.8197 C.3       6 UNK        -0.1800 
     44 N          -0.5788  -16.7271  -41.6892 N.am      6 UNK        -0.5000 
     45 C          -1.5656  -17.6174  -41.8661 C.2       5 UNK         0.5000 
     46 O          -1.4023  -18.8343  -41.7883 O.2       5 UNK        -0.5000 
     47 CA         -2.9543  -17.0683  -42.2446 C.3       5 UNK         0.1400 
     48 CB         -3.7854  -16.7896  -40.9840 C.3       5 UNK        -0.1800 
     49 N          -2.9021  -15.8579  -43.0659 N.am      5 UNK        -0.5000 
     50 C          -2.3047  -15.7651  -44.2611 C.2       4 UNK         0.5000 
     51 O          -1.7387  -16.7115  -44.8086 O.2       4 UNK        -0.5000 
     52 CA         -2.3068  -14.3882  -44.9514 C.3       4 UNK         0.1400 
     53 CB         -3.3882  -13.4230  -44.4194 C.3       4 UNK        -0.1800 
     54 N          -0.9924  -13.7404  -44.9134 N.am      4 UNK        -0.5000 
     55 C          -0.2532  -13.4542  -43.8294 C.2       3 UNK         0.5000 
     56 O          -0.5417  -13.8197  -42.6886 O.2       3 UNK        -0.5000 
     57 CA          1.0107  -12.5938  -44.0366 C.3       3 UNK         0.1400 
     58 CB          2.2801  -13.4562  -44.1158 C.3       3 UNK        -0.1800 
     59 N           0.9626  -11.7412  -45.2227 N.am      3 UNK        -0.5000 
     60 C           0.1656  -10.6849  -45.4184 C.2       2 UNK         0.5000 
     61 O          -0.6344  -10.2719  -44.5785 O.2       2 UNK        -0.5000 
     62 CA          0.2607   -9.9762  -46.7886 C.3       2 UNK         0.1400 
     63 CB          1.3122   -8.8508  -46.7601 C.3       2 UNK        -0.1800 
     64 N           0.4674  -10.8803  -47.9327 N.am      2 UNK        -0.5000 
     65 C           1.5213  -11.6604  -48.2248 C.2       1 UNK         0.5000 
     66 O           2.5637  -11.6559  -47.5682 O.2       1 UNK        -0.5000 
     67 C           2.2154  -25.0360  -46.1765 C.2       11 UNK         0.5000 
     68 O           2.3451  -26.0499  -46.8634 O.2       11 UNK        -0.5000 
     69 N           1.5484  -24.9949  -45.0132 N.am      12 UNK        -0.5000 
     70 CA          0.6442  -26.0122  -44.4655 C.3       12 UNK         0.1400 
     71 CB          1.3874  -27.3261  -44.1467 C.3       12 UNK        -0.1800 
     72 C          -0.5982  -26.2023  -45.3654 C.2       12 UNK         0.5000 
     73 O          -1.0626  -27.3262  -45.5664 O.2       12 UNK        -0.5000 
     74 N          -1.0965  -25.0833  -45.9052 N.am      13 UNK        -0.5000 
     75 CA         -2.2675  -24.9951  -46.7698 C.3       13 UNK         0.1400 
     76 CB         -2.0181  -23.8962  -47.8172 C.3       13 UNK        -0.1800 
     77 C          -3.5213  -24.6686  -45.9428 C.2       13 UNK         0.5000 
     78 O          -3.4182  -24.1103  -44.8478 O.2       13 UNK        -0.5000 
     79 N          -4.6925  -24.9946  -46.5029 N.am      14 UNK        -0.5000 
     80 CA         -6.0021  -24.7305  -45.8993 C.3       14 UNK         0.1400 
     81 CB         -7.0590  -25.5864  -46.6150 C.3       14 UNK        -0.1800 
     82 C          -6.4079  -23.2426  -45.9298 C.2       14 UNK         0.5000 
     83 O          -7.2501  -22.8308  -45.1310 O.2       14 UNK        -0.5000 
     84 N          -5.8145  -22.4686  -46.8450 N.am      15 UNK        -0.5000 
     85 CA         -6.0409  -21.0418  -47.0336 C.3       15 UNK         0.1400 
     86 CB         -7.3130  -20.8214  -47.8709 C.3       15 UNK        -0.1800 
     87 C          -4.8127  -20.4375  -47.7247 C.2       15 UNK         0.5000 
     88 O          -4.0574  -21.1635  -48.3794 O.2       15 UNK        -0.5000 
     89 N          -4.6430  -19.1175  -47.5787 N.am      16 UNK        -0.5000 
     90 CA         -3.5559  -18.3404  -48.1774 C.3       16 UNK         0.1400 
     91 CB         -3.6444  -16.8894  -47.6847 C.3       16 UNK        -0.1800 
     92 C          -3.6068  -18.3980  -49.7136 C.2       16 UNK         0.5000 
     93 O          -4.6961  -18.3228  -50.2849 O.2       16 UNK        -0.5000 
     94 N          -2.4352  -18.5770  -50.3393 N.am      17 UNK        -0.5000 
     95 CA         -2.2384  -18.7973  -51.7790 C.3       17 UNK         0.1400 
     96 CB         -2.5849  -17.5285  -52.5847 C.3       17 UNK        -0.1800 
     97 C          -2.9516  -20.0581  -52.3133 C.2       17 UNK         0.5000 
     98 O          -3.2961  -20.1095  -53.4956 O.2       17 UNK        -0.5000 
     99 N          -3.1680  -21.0499  -51.4308 N.am      18 UNK        -0.5000 
    100 CA        -3.9559  -22.2666  -51.6573 C.3       18 UNK         0.1400 
    101 CB        -3.2105  -23.2254  -52.6064 C.3       18 UNK        -0.1800 
    102 C         -5.3863  -21.9195  -52.1208 C.2       18 UNK         0.5000 
    103 O         -5.8529  -22.4144  -53.1499 O.2       18 UNK        -0.5000 
    104 N         -6.0012  -20.9761  -51.3916 N.am      19 UNK        -0.5000 
    105 CA        -7.2403  -20.2426  -51.6743 C.3       19 UNK         0.1400 
    106 CB        -8.4543  -21.1827  -51.8080 C.3       19 UNK        -0.1800 
    107 C         -7.1054  -19.2963  -52.8828 C.2       19 UNK         0.5000 
    108 O         -7.3286  -18.0933  -52.7436 O.2       19 UNK        -0.5000 
    109 N         -6.7238  -19.8567  -54.0334 N.am      20 UNK        -0.5000 
    110 CA        -6.4224  -19.1533  -55.2782 C.3       20 UNK         0.1400 
    111 CB        -7.7319  -18.6851  -55.9465 C.3       20 UNK        -0.1800 
    112 C         -5.5813  -20.0056  -56.2508 C.2       20 UNK         0.5000 
    113 O         -5.2949  -19.5320  -57.3517 O.2       20 UNK        -0.5000 
    114 N         -5.2278  -21.2479  -55.8808 N.am      21 UNK        -0.5000 
    115 CA        -4.5561  -22.1963  -56.7715 C.3       21 UNK         0.1400 
    116 CB        -4.7718  -23.6240  -56.2460 C.3       21 UNK        -0.1800 
    117 C         -3.0572  -21.9084  -56.9823 C.2       21 UNK         0.5000 
    118 O         -2.5179  -22.3024  -58.0178 O.2       21 UNK        -0.5000 
    119 N         -2.4059  -21.2469  -56.0174 N.am      22 UNK        -0.5000 
    120 CA        -0.9952  -20.8476  -56.1017 C.3       22 UNK         0.1400 
    121 C         -0.8260  -19.5375  -56.9181 C.2       22 UNK         0.5000 
    122 N          0.1225  -19.4895  -57.8436 N.am      22 UNK        -0.7600 
    123 O         -1.5232  -18.5510  -56.6939 O.2       22 UNK        -0.5000 
    124 C124       -0.3675  -20.7289  -54.6914 C.3       23 UNK        -0.0398 
    125 S125        1.4361  -20.9971  -54.7009 S.3       23 UNK        -0.2404 
    126 C126        2.0455  -19.4186  -54.0134 C.3       23 UNK        -0.0205 
    127 H127       -2.4313  -14.8128  -49.8458 H         1 UNK         0.0600 
    128 H128       -2.5168  -13.1342  -50.3899 H         1 UNK         0.0600 
    129 H129       -3.0828  -13.5666  -48.7746 H         1 UNK         0.0600 
    130 H130       -0.3259  -12.6357  -50.6708 H         1 UNK         0.3000 
    131 H131        1.7809  -12.1204  -50.2759 H         1 UNK         0.0600 
    132 H132        1.8753  -14.4871  -48.3227 H         1 UNK         0.0800 
    133 H133        3.2532  -13.6665  -48.9844 H         1 UNK         0.0800 
    134 H134        0.5669  -16.1044  -49.3112 H         1 UNK         0.0800 
    135 H135       -0.0118  -15.7276  -50.9147 H         1 UNK         0.0800 
    136 H136        1.5423  -17.0247  -52.8447 H         1 UNK         0.1150 
    137 H137        1.6574  -21.2193  -51.9358 H         1 UNK         0.1150 
    138 H138        0.6795  -18.3991  -48.8764 H         1 UNK         0.1150 
    139 H139        0.2797  -20.7447  -48.5091 H         1 UNK         0.0800 
    140 H140        0.3736  -21.8721  -49.8421 H         1 UNK         0.0800 
    141 H141        0.8701  -22.8644  -47.3096 H         1 UNK         0.0800 
    142 H142        1.5850  -23.9065  -48.5173 H         1 UNK         0.0800 
    143 H143        3.7388  -23.9194  -47.1804 H         1 UNK         0.0600 
    144 H144        2.3866  -21.9406  -45.5681 H         1 UNK         0.3000 
    145 H145        4.6157  -22.2143  -42.7691 H         1 UNK         0.0600 
    146 H146        4.7654  -19.7822  -43.1852 H         1 UNK         0.0600 
    147 H147        4.1294  -19.9877  -44.8161 H         1 UNK         0.0600 
    148 H148        5.6973  -20.6579  -44.3890 H         1 UNK         0.0600 
    149 H149        2.3183  -20.5887  -43.1954 H         1 UNK         0.3000 
    150 H150       -0.0958  -22.9150  -41.9045 H         1 UNK         0.0600 
    151 H151        1.0748  -20.3433  -40.7211 H         1 UNK         0.0600 
    152 H152       -0.4956  -21.0438  -40.3305 H         1 UNK         0.0600 
    153 H153        0.9789  -21.8934  -39.8951 H         1 UNK         0.0600 
    154 H154       -0.4520  -20.2439  -42.7142 H         1 UNK         0.3000 
    155 H155       -1.0285  -20.8660  -46.2186 H         1 UNK         0.0600 
    156 H156       -3.1569  -21.1369  -45.0687 H         1 UNK         0.0600 
    157 H157       -2.9671  -19.4193  -45.4078 H         1 UNK         0.0600 
    158 H158       -2.6946  -20.0311  -43.7853 H         1 UNK         0.0600 
    159 H159       -0.8609  -18.4075  -44.8566 H         1 UNK         0.3000 
    160 H160        2.6639  -17.8385  -45.1190 H         1 UNK         0.0600 
    161 H161        0.1966  -16.6585  -46.5115 H         1 UNK         0.0600 
    162 H162        1.7415  -17.0748  -47.2375 H         1 UNK         0.0600 
    163 H163        1.6421  -15.7463  -46.1050 H         1 UNK         0.0600 
    164 H164        0.3461  -16.5260  -43.9219 H         1 UNK         0.3000 
    165 H165        0.8144  -17.9125  -40.6975 H         1 UNK         0.0600 
    166 H166        1.1737  -15.6788  -39.8359 H         1 UNK         0.0600 
    167 H167        2.6292  -16.1634  -40.6911 H         1 UNK         0.0600 
    168 H168        1.5051  -15.0320  -41.4344 H         1 UNK         0.0600 
    169 H169       -0.7714  -15.7390  -41.8158 H         1 UNK         0.3000 
    170 H170       -3.4638  -17.8386  -42.8267 H         1 UNK         0.0600 
    171 H171       -3.8609  -17.6820  -40.3611 H         1 UNK         0.0600 
    172 H172       -3.3412  -16.0007  -40.3757 H         1 UNK         0.0600 
    173 H173       -4.8009  -16.4864  -41.2395 H         1 UNK         0.0600 
    174 H174       -3.3115  -15.0243  -42.6701 H         1 UNK         0.3000 
    175 H175       -2.5294  -14.5791  -46.0015 H         1 UNK         0.0600 
    176 H176       -3.2038  -13.1205  -43.3880 H         1 UNK         0.0600 
    177 H177       -3.4238  -12.5156  -45.0226 H         1 UNK         0.0600 
    178 H178       -4.3793  -13.8764  -44.4648 H         1 UNK         0.0600 
    179 H179       -0.6325  -13.4806  -45.8261 H         1 UNK         0.3000 
    180 H180        1.0956  -11.9478  -43.1604 H         1 UNK         0.0600 
    181 H181        2.2898  -14.2428  -43.3636 H         1 UNK         0.0600 
    182 H182        3.1704  -12.8475  -43.9573 H         1 UNK         0.0600 
    183 H183        2.3829  -13.9316  -45.0894 H         1 UNK         0.0600 
    184 H184        1.6171  -11.9588  -45.9682 H         1 UNK         0.3000 
    185 H185       -0.7102   -9.5086  -46.9596 H         1 UNK         0.0600 
    186 H186        1.0763   -8.1205  -45.9851 H         1 UNK         0.0600 
    187 H187        2.3132   -9.2295  -46.5526 H         1 UNK         0.0600 
    188 H188        1.3448   -8.3173  -47.7100 H         1 UNK         0.0600 
    189 H189       -0.3414  -10.9926  -48.5277 H         1 UNK         0.3000 
    190 H190        1.4862  -24.0918  -44.5604 H         1 UNK         0.3000 
    191 H191        0.2754  -25.6076  -43.5218 H         1 UNK         0.0600 
    192 H192        0.7424  -28.0121  -43.5967 H         1 UNK         0.0600 
    193 H193        2.2658  -27.1405  -43.5286 H         1 UNK         0.0600 
    194 H194        1.7138  -27.8424  -45.0496 H         1 UNK         0.0600 
    195 H195       -0.7227  -24.1950  -45.5768 H         1 UNK         0.3000 
    196 H196       -2.4201  -25.9453  -47.2860 H         1 UNK         0.0600 
    197 H197       -1.8756  -22.9200  -47.3522 H         1 UNK         0.0600 
    198 H198       -1.1335  -24.1155  -48.4151 H         1 UNK         0.0600 
    199 H199       -2.8584  -23.8093  -48.5068 H         1 UNK         0.0600 
    200 H200       -4.6983  -25.4507  -47.4040 H         1 UNK         0.3000 
    201 H201       -5.9670  -25.0386  -44.8521 H         1 UNK         0.0600 
    202 H202       -8.0452  -25.4412  -46.1719 H         1 UNK         0.0600 
    203 H203       -6.8244  -26.6484  -46.5397 H         1 UNK         0.0600 
    204 H204       -7.1343  -25.3318  -47.6729 H         1 UNK         0.0600 
    205 H205       -5.0928  -22.8567  -47.4379 H         1 UNK         0.3000 
    206 H206       -6.1528  -20.5618  -46.0590 H         1 UNK         0.0600 
    207 H207       -8.1995  -21.1691  -47.3404 H         1 UNK         0.0600 
    208 H208       -7.4644  -19.7648  -48.0951 H         1 UNK         0.0600 
    209 H209       -7.2629  -21.3580  -48.8181 H         1 UNK         0.0600 
    210 H210       -5.3329  -18.5903  -47.0643 H         1 UNK         0.3000 
    211 H211       -2.6134  -18.7690  -47.8293 H         1 UNK         0.0600 
    212 H212       -4.4941  -16.3629  -48.1215 H         1 UNK         0.0600 
    213 H213       -2.7406  -16.3369  -47.9430 H         1 UNK         0.0600 
    214 H214       -3.7515  -16.8486  -46.6020 H         1 UNK         0.0600 
    215 H215       -1.5947  -18.6291  -49.7827 H         1 UNK         0.3000 
    216 H216       -1.1771  -18.9897  -51.9174 H         1 UNK         0.0600 
    217 H217       -2.0617  -16.6569  -52.1924 H         1 UNK         0.0600 
    218 H218       -3.6544  -17.3169  -52.5664 H         1 UNK         0.0600 
    219 H219       -2.2922  -17.6373  -53.6300 H         1 UNK         0.0600 
    220 H220       -2.8791  -20.9026  -50.4728 H         1 UNK         0.3000 
    221 H221       -4.0565  -22.7659  -50.6927 H         1 UNK         0.0600 
    222 H222       -3.7720  -24.1490  -52.7509 H         1 UNK         0.0600 
    223 H223       -3.0468  -22.7811  -53.5872 H         1 UNK         0.0600 
    224 H224       -2.2365  -23.4977  -52.2002 H         1 UNK         0.0600 
    225 H225       -5.4590  -20.5763  -50.6368 H         1 UNK         0.3000 
    226 H226       -7.4120  -19.6112  -50.8011 H         1 UNK         0.0600 
    227 H227       -8.5627  -21.8148  -50.9269 H         1 UNK         0.0600 
    228 H228       -9.3758  -20.6088  -51.9114 H         1 UNK         0.0600 
    229 H229       -8.3807  -21.8340  -52.6789 H         1 UNK         0.0600 
    230 H230       -6.5575  -20.8566  -54.0154 H         1 UNK         0.3000 
    231 H231       -5.8173  -18.2772  -55.0361 H         1 UNK         0.0600 
    232 H232       -7.5333  -18.1502  -56.8759 H         1 UNK         0.0600 
    233 H233       -8.2911  -18.0053  -55.3040 H         1 UNK         0.0600 
    234 H234       -8.3800  -19.5292  -56.1847 H         1 UNK         0.0600 
    235 H235       -5.4247  -21.5866  -54.9475 H         1 UNK         0.3000 
    236 H236       -5.0329  -22.1364  -57.7524 H         1 UNK         0.0600 
    237 H237       -5.8334  -23.8625  -56.1795 H         1 UNK         0.0600 
    238 H238       -4.3152  -24.3585  -56.9106 H         1 UNK         0.0600 
    239 H239       -4.3375  -23.7631  -55.2574 H         1 UNK         0.0600 
    240 H240       -2.9214  -20.8951  -55.2147 H         1 UNK         0.3000 
    241 H241       -0.4676  -21.6472  -56.6264 H         1 UNK         0.0600 
    242 H242        0.7161  -20.2828  -58.0316 H         1 UNK         0.3800 
    243 H243        0.2502  -18.6402  -58.3716 H         1 UNK         0.3800 
    244 H244       -0.7844  -21.4903  -54.0308 H         1 UNK         0.0800 
    245 H245       -0.6107  -19.7693  -54.2334 H         1 UNK         0.0800 
    246 H246        1.6979  -18.6078  -54.6560 H         1 UNK         0.0800 
    247 H247        3.1344  -19.4135  -54.0723 H         1 UNK         0.0800 
@<TRIPOS>BOND
     1    1    2 1    
     2    1  127 1    
     3    1  128 1    
     4    1  129 1    
     5    2    3 2    
     6    2    4 am   BACKBONE|DICT|INTERRES
     7    4    5 1    
     8    4  130 1    
     9    5    6 1    
    10    5   65 1    
    11    5  131 1    
    12    6    7 1    
    13    6  132 1    
    14    6  133 1    
    15    7    8 1    
    16    8    9 1    
    17    8  134 1    
    18    8  135 1    
    19    9   10 ar   
    20    9   14 ar   
    21   10   11 ar   
    22   10  136 1    
    23   11   12 ar   
    24   11  126 1    
    25   12   13 ar   
    26   12  137 1    
    27   13   14 ar   
    28   13   15 1    
    29   14  138 1    
    30   15   16 1    
    31   15  139 1    
    32   15  140 1    
    33   16   17 1    
    34   17   18 1    
    35   17  141 1    
    36   17  142 1    
    37   18   19 1    
    38   18   67 1    
    39   18  143 1    
    40   19   20 am   BACKBONE|DICT|INTERRES
    41   19  144 1    
    42   20   21 2    
    43   20   22 1    
    44   22   23 1    
    45   22   24 1    
    46   22  145 1    
    47   23  146 1    
    48   23  147 1    
    49   23  148 1    
    50   24   25 am   BACKBONE|DICT|INTERRES
    51   24  149 1    
    52   25   26 2    
    53   25   27 1    
    54   27   28 1    
    55   27   29 1    
    56   27  150 1    
    57   28  151 1    
    58   28  152 1    
    59   28  153 1    
    60   29   30 am   BACKBONE|DICT|INTERRES
    61   29  154 1    
    62   30   31 2    
    63   30   32 1    
    64   32   33 1    
    65   32   34 1    
    66   32  155 1    
    67   33  156 1    
    68   33  157 1    
    69   33  158 1    
    70   34   35 am   BACKBONE|DICT|INTERRES
    71   34  159 1    
    72   35   36 2    
    73   35   37 1    
    74   37   38 1    
    75   37   39 1    
    76   37  160 1    
    77   38  161 1    
    78   38  162 1    
    79   38  163 1    
    80   39   40 am   BACKBONE|DICT|INTERRES
    81   39  164 1    
    82   40   41 2    
    83   40   42 1    
    84   42   43 1    
    85   42   44 1    
    86   42  165 1    
    87   43  166 1    
    88   43  167 1    
    89   43  168 1    
    90   44   45 am   BACKBONE|DICT|INTERRES
    91   44  169 1    
    92   45   46 2    
    93   45   47 1    
    94   47   48 1    
    95   47   49 1    
    96   47  170 1    
    97   48  171 1    
    98   48  172 1    
    99   48  173 1    
   100   49   50 am   BACKBONE|DICT|INTERRES
   101   49  174 1    
   102   50   51 2    
   103   50   52 1    
   104   52   53 1    
   105   52   54 1    
   106   52  175 1    
   107   53  176 1    
   108   53  177 1    
   109   53  178 1    
   110   54   55 am   BACKBONE|DICT|INTERRES
   111   54  179 1    
   112   55   56 2    
   113   55   57 1    
   114   57   58 1    
   115   57   59 1    
   116   57  180 1    
   117   58  181 1    
   118   58  182 1    
   119   58  183 1    
   120   59   60 am   BACKBONE|DICT|INTERRES
   121   59  184 1    
   122   60   61 2    
   123   60   62 1    
   124   62   63 1    
   125   62   64 1    
   126   62  185 1    
   127   63  186 1    
   128   63  187 1    
   129   63  188 1    
   130   64   65 am   BACKBONE|DICT|INTERRES
   131   64  189 1    
   132   65   66 2    
   133   67   68 2    
   134   67   69 am   BACKBONE|DICT|INTERRES
   135   69   70 1    
   136   69  190 1    
   137   70   71 1    
   138   70   72 1    
   139   70  191 1    
   140   71  192 1    
   141   71  193 1    
   142   71  194 1    
   143   72   73 2    
   144   72   74 am   BACKBONE|DICT|INTERRES
   145   74   75 1    
   146   74  195 1    
   147   75   76 1    
   148   75   77 1    
   149   75  196 1    
   150   76  197 1    
   151   76  198 1    
   152   76  199 1    
   153   77   78 2    
   154   77   79 am   BACKBONE|DICT|INTERRES
   155   79   80 1    
   156   79  200 1    
   157   80   81 1    
   158   80   82 1    
   159   80  201 1    
   160   81  202 1    
   161   81  203 1    
   162   81  204 1    
   163   82   83 2    
   164   82   84 am   BACKBONE|DICT|INTERRES
   165   84   85 1    
   166   84  205 1    
   167   85   86 1    
   168   85   87 1    
   169   85  206 1    
   170   86  207 1    
   171   86  208 1    
   172   86  209 1    
   173   87   88 2    
   174   87   89 am   BACKBONE|DICT|INTERRES
   175   89   90 1    
   176   89  210 1    
   177   90   91 1    
   178   90   92 1    
   179   90  211 1    
   180   91  212 1    
   181   91  213 1    
   182   91  214 1    
   183   92   93 2    
   184   92   94 am   BACKBONE|DICT|INTERRES
   185   94   95 1    
   186   94  215 1    
   187   95   96 1    
   188   95   97 1    
   189   95  216 1    
   190   96  217 1    
   191   96  218 1    
   192   96  219 1    
   193   97   98 2    
   194   97   99 am   BACKBONE|DICT|INTERRES
   195   99  100 1    
   196   99  220 1    
   197  100  101 1    
   198  100  102 1    
   199  100  221 1    
   200  101  222 1    
   201  101  223 1    
   202  101  224 1    
   203  102  103 2    
   204  102  104 am   BACKBONE|DICT|INTERRES
   205  104  105 1    
   206  104  225 1    
   207  105  106 1    
   208  105  107 1    
   209  105  226 1    
   210  106  227 1    
   211  106  228 1    
   212  106  229 1    
   213  107  108 2    
   214  107  109 am   BACKBONE|DICT|INTERRES
   215  109  110 1    
   216  109  230 1    
   217  110  111 1    
   218  110  112 1    
   219  110  231 1    
   220  111  232 1    
   221  111  233 1    
   222  111  234 1    
   223  112  113 2    
   224  112  114 am   BACKBONE|DICT|INTERRES
   225  114  115 1    
   226  114  235 1    
   227  115  116 1    
   228  115  117 1    
   229  115  236 1    
   230  116  237 1    
   231  116  238 1    
   232  116  239 1    
   233  117  118 2    
   234  117  119 am   BACKBONE|DICT|INTERRES
   235  119  120 1    
   236  119  240 1    
   237  120  121 1    
   238  120  124 1    
   239  120  241 1    
   240  121  122 am   BACKBONE|DICT|INTERRES
   241  121  123 2    
   242  122  242 1    
   243  122  243 1    
   244  124  125 1    
   245  124  244 1    
   246  124  245 1    
   247  125  126 1    
   248  126  246 1    
   249  126  247 1    
@<TRIPOS>SUBSTRUCTURE
     1 UNK         1 GROUP             0       ****    0 ROOT    
