@<TRIPOS>MOLECULE
3R540
247   249    1
SMALL
USER_CHARGES


@<TRIPOS>ATOM
      1 CA          5.6319  -14.1350  -49.8401 C.3       0 UNK        -0.1800 
      2 C           4.8190  -14.6758  -48.6731 C.2       0 UNK         0.5000 
      3 O           5.0842  -15.7816  -48.2035 O.2       0 UNK        -0.5000 
      4 N           3.8404  -13.8955  -48.1941 N.am      1 UNK        -0.5000 
      5 CA          2.9192  -14.2426  -47.1014 C.3       1 UNK         0.1400 
      6 C6          1.8682  -13.1297  -46.8697 C.3       23 UNK        -0.0398 
      7 S7          0.6600  -13.0430  -48.2342 S.3       23 UNK        -0.2404 
      8 C8         -0.7970  -13.7924  -47.4270 C.3       23 UNK        -0.0205 
      9 C9         -1.8361  -14.3755  -48.3813 C.ar      23 UNK        -0.0193 
     10 C10        -3.1796  -14.3978  -47.9902 C.ar      23 UNK        -0.1150 
     11 C11        -4.1570  -14.9572  -48.8188 C.ar      23 UNK        -0.0193 
     12 C12        -3.7846  -15.4743  -50.0600 C.ar      23 UNK        -0.1150 
     13 C13        -2.4474  -15.4859  -50.4553 C.ar      23 UNK        -0.0193 
     14 C14        -1.4766  -14.9404  -49.6120 C.ar      23 UNK        -0.1150 
     15 C15        -2.0590  -16.0937  -51.7932 C.3       23 UNK        -0.0205 
     16 S16        -1.3309  -17.7512  -51.6095 S.3       23 UNK        -0.2404 
     17 C17        -2.7086  -18.7220  -50.9027 C.3       23 UNK        -0.0398 
     18 CA         -2.2549  -19.5218  -49.6611 C.3       11 UNK         0.1400 
     19 N          -1.8027  -18.6637  -48.5619 N.am      11 UNK        -0.5000 
     20 C          -0.9849  -19.0849  -47.5890 C.2       10 UNK         0.5000 
     21 O          -0.5405  -20.2299  -47.5261 O.2       10 UNK        -0.5000 
     22 CA         -0.6573  -18.0853  -46.4666 C.3       10 UNK         0.1400 
     23 CB          0.5221  -17.1948  -46.8768 C.3       10 UNK        -0.1800 
     24 N          -1.7911  -17.2508  -46.0555 N.am      10 UNK        -0.5000 
     25 C          -2.9643  -17.7242  -45.6118 C.2       9 UNK         0.5000 
     26 O          -3.2451  -18.9232  -45.5900 O.2       9 UNK        -0.5000 
     27 CA         -3.9638  -16.6825  -45.0883 C.3       9 UNK         0.1400 
     28 CB         -5.2464  -17.3028  -44.5032 C.3       9 UNK        -0.1800 
     29 N          -3.3097  -15.8530  -44.0812 N.am      9 UNK        -0.5000 
     30 C          -3.6000  -14.5680  -43.8377 C.2       8 UNK         0.5000 
     31 O          -4.4456  -13.9325  -44.4682 O.2       8 UNK        -0.5000 
     32 CA         -2.8325  -13.8632  -42.6980 C.3       8 UNK         0.1400 
     33 CB         -3.7106  -13.7707  -41.4406 C.3       8 UNK        -0.1800 
     34 N          -1.5715  -14.5151  -42.3418 N.am      8 UNK        -0.5000 
     35 C          -0.4899  -14.5675  -43.1298 C.2       7 UNK         0.5000 
     36 O          -0.4196  -13.9962  -44.2155 O.2       7 UNK        -0.5000 
     37 CA          0.6993  -15.4215  -42.6475 C.3       7 UNK         0.1400 
     38 CB          1.8120  -14.5237  -42.0856 C.3       7 UNK        -0.1800 
     39 N           0.3654  -16.4505  -41.6557 N.am      7 UNK        -0.5000 
     40 C          -0.4990  -17.4583  -41.8365 C.2       6 UNK         0.5000 
     41 O          -1.1905  -17.5862  -42.8472 O.2       6 UNK        -0.5000 
     42 CA         -0.5678  -18.5033  -40.7088 C.3       6 UNK         0.1400 
     43 CB         -1.6652  -19.5564  -40.9438 C.3       6 UNK        -0.1800 
     44 N           0.7232  -19.1785  -40.6091 N.am      6 UNK        -0.5000 
     45 C           1.7307  -18.8165  -39.8040 C.2       5 UNK         0.5000 
     46 O           1.6510  -17.9168  -38.9673 O.2       5 UNK        -0.5000 
     47 CA          3.0675  -19.5509  -40.0206 C.3       5 UNK         0.1400 
     48 CB          3.0836  -20.8901  -39.2679 C.3       5 UNK        -0.1800 
     49 N           3.3331  -19.7850  -41.4434 N.am      5 UNK        -0.5000 
     50 C           3.6326  -18.8140  -42.3167 C.2       4 UNK         0.5000 
     51 O           3.8049  -17.6359  -41.9973 O.2       4 UNK        -0.5000 
     52 CA          3.6916  -19.2239  -43.7962 C.3       4 UNK         0.1400 
     53 CB          2.3054  -19.0738  -44.4406 C.3       4 UNK        -0.1800 
     54 N           4.6474  -18.3912  -44.5227 N.am      4 UNK        -0.5000 
     55 C           5.9537  -18.6687  -44.6333 C.2       3 UNK         0.5000 
     56 O           6.4703  -19.6967  -44.1924 O.2       3 UNK        -0.5000 
     57 CA          6.8415  -17.6381  -45.3595 C.3       3 UNK         0.1400 
     58 CB          7.0628  -18.0577  -46.8205 C.3       3 UNK        -0.1800 
     59 N           6.2969  -16.2796  -45.3233 N.am      3 UNK        -0.5000 
     60 C           6.2840  -15.5044  -44.2280 C.2       2 UNK         0.5000 
     61 O           6.7951  -15.8401  -43.1588 O.2       2 UNK        -0.5000 
     62 CA          5.6051  -14.1209  -44.3259 C.3       2 UNK         0.1400 
     63 CB          6.6563  -13.0004  -44.2834 C.3       2 UNK        -0.1800 
     64 N           4.7701  -13.9292  -45.5136 N.am      2 UNK        -0.5000 
     65 C           3.6355  -14.5907  -45.7789 C.2       1 UNK         0.5000 
     66 O           3.1755  -15.4710  -45.0528 O.2       1 UNK        -0.5000 
     67 C          -3.3302  -20.5366  -49.2192 C.2       11 UNK         0.5000 
     68 O          -3.5155  -21.5287  -49.9171 O.2       11 UNK        -0.5000 
     69 N          -4.0001  -20.3156  -48.0776 N.am      12 UNK        -0.5000 
     70 CA         -4.8916  -21.3054  -47.4671 C.3       12 UNK         0.1400 
     71 CB         -5.9276  -20.6106  -46.5717 C.3       12 UNK        -0.1800 
     72 C          -4.0974  -22.3672  -46.6873 C.2       12 UNK         0.5000 
     73 O          -4.4876  -23.5343  -46.6874 O.2       12 UNK        -0.5000 
     74 N          -2.9772  -21.9617  -46.0725 N.am      13 UNK        -0.5000 
     75 CA         -2.0210  -22.8652  -45.4308 C.3       13 UNK         0.1400 
     76 CB         -1.0495  -22.0525  -44.5603 C.3       13 UNK        -0.1800 
     77 C          -1.2625  -23.7262  -46.4606 C.2       13 UNK         0.5000 
     78 O          -1.1030  -24.9291  -46.2538 O.2       13 UNK        -0.5000 
     79 N          -0.8435  -23.0996  -47.5674 N.am      14 UNK        -0.5000 
     80 CA         -0.1062  -23.7158  -48.6722 C.3       14 UNK         0.1400 
     81 CB          0.9174  -22.6952  -49.2009 C.3       14 UNK        -0.1800 
     82 C          -1.0196  -24.2236  -49.8083 C.2       14 UNK         0.5000 
     83 O          -0.5333  -24.4118  -50.9250 O.2       14 UNK        -0.5000 
     84 N          -2.3153  -24.4363  -49.5317 N.am      15 UNK        -0.5000 
     85 CA         -3.3738  -24.7323  -50.5106 C.3       15 UNK         0.1400 
     86 CB         -4.7230  -24.8359  -49.7846 C.3       15 UNK        -0.1800 
     87 C          -3.1540  -25.9727  -51.3994 C.2       15 UNK         0.5000 
     88 O          -3.7551  -26.0602  -52.4707 O.2       15 UNK        -0.5000 
     89 N          -2.2898  -26.8978  -50.9606 N.am      16 UNK        -0.5000 
     90 CA         -1.8408  -28.0554  -51.7366 C.3       16 UNK         0.1400 
     91 CB         -1.0273  -28.9833  -50.8216 C.3       16 UNK        -0.1800 
     92 C          -1.0181  -27.6720  -52.9855 C.2       16 UNK         0.5000 
     93 O          -1.0243  -28.4234  -53.9614 O.2       16 UNK        -0.5000 
     94 N          -0.3386  -26.5183  -52.9349 N.am      17 UNK        -0.5000 
     95 CA          0.4186  -25.9380  -54.0423 C.3       17 UNK         0.1400 
     96 CB          1.8394  -25.6044  -53.5597 C.3       17 UNK        -0.1800 
     97 C          -0.2797  -24.6768  -54.5755 C.2       17 UNK         0.5000 
     98 O          -0.4011  -24.5133  -55.7906 O.2       17 UNK        -0.5000 
     99 N          -0.7360  -23.8091  -53.6634 N.am      18 UNK        -0.5000 
    100 CA        -1.4151  -22.5506  -53.9561 C.3       18 UNK         0.1400 
    101 CB        -1.1678  -21.5778  -52.7913 C.3       18 UNK        -0.1800 
    102 C         -2.9124  -22.7909  -54.2232 C.2       18 UNK         0.5000 
    103 O         -3.7543  -22.4907  -53.3744 O.2       18 UNK        -0.5000 
    104 N         -3.2114  -23.3587  -55.3988 N.am      19 UNK        -0.5000 
    105 CA        -4.5577  -23.6844  -55.8743 C.3       19 UNK         0.1400 
    106 CB        -4.4599  -24.2675  -57.2919 C.3       19 UNK        -0.1800 
    107 C         -5.5159  -22.4756  -55.8479 C.2       19 UNK         0.5000 
    108 O         -5.1106  -21.3656  -56.1990 O.2       19 UNK        -0.5000 
    109 N         -6.7560  -22.7288  -55.4078 N.am      20 UNK        -0.5000 
    110 CA        -7.8456  -21.7765  -55.1416 C.3       20 UNK         0.1400 
    111 CB        -8.1609  -20.8933  -56.3665 C.3       20 UNK        -0.1800 
    112 C         -7.6692  -20.9402  -53.8540 C.2       20 UNK         0.5000 
    113 O         -8.6002  -20.2223  -53.4819 O.2       20 UNK        -0.5000 
    114 N         -6.5246  -21.0771  -53.1663 N.am      21 UNK        -0.5000 
    115 CA        -6.1883  -20.4730  -51.8759 C.3       21 UNK         0.1400 
    116 CB        -6.9560  -21.1971  -50.7467 C.3       21 UNK        -0.1800 
    117 C         -6.3514  -18.9364  -51.8689 C.2       21 UNK         0.5000 
    118 O         -5.7725  -18.2632  -52.7228 O.2       21 UNK        -0.5000 
    119 N         -7.1311  -18.4152  -50.9153 N.am      22 UNK        -0.5000 
    120 CA        -7.5246  -17.0020  -50.8083 C.3       22 UNK         0.1400 
    121 C         -8.7372  -16.6137  -51.7091 C.2       22 UNK         0.5000 
    122 N         -9.2978  -17.5041  -52.5201 N.am      22 UNK        -0.7600 
    123 O         -9.1769  -15.4674  -51.6834 O.2       22 UNK        -0.5000 
    124 C124       -7.7570  -16.5907  -49.3285 C.3       23 UNK        -0.0398 
    125 S125       -6.2444  -16.7139  -48.3086 S.3       23 UNK        -0.2404 
    126 C126       -5.6156  -15.0002  -48.3891 C.3       23 UNK        -0.0205 
    127 H127        5.2941  -13.1444  -50.1456 H         1 UNK         0.0600 
    128 H128        5.5465  -14.8032  -50.6970 H         1 UNK         0.0600 
    129 H129        6.6840  -14.0661  -49.5636 H         1 UNK         0.0600 
    130 H130        3.6676  -13.0034  -48.6356 H         1 UNK         0.3000 
    131 H131        2.3974  -15.1493  -47.4105 H         1 UNK         0.0600 
    132 H132        1.3316  -13.2824  -45.9332 H         1 UNK         0.0800 
    133 H133        2.3539  -12.1575  -46.7711 H         1 UNK         0.0800 
    134 H134       -1.2556  -13.0360  -46.7877 H         1 UNK         0.0800 
    135 H135       -0.4697  -14.5910  -46.7659 H         1 UNK         0.0800 
    136 H136       -3.4646  -13.9822  -47.0337 H         1 UNK         0.1150 
    137 H137       -4.5367  -15.8944  -50.7111 H         1 UNK         0.1150 
    138 H138       -0.4412  -14.9644  -49.9203 H         1 UNK         0.1150 
    139 H139       -2.9228  -16.1533  -52.4577 H         1 UNK         0.0800 
    140 H140       -1.3369  -15.4437  -52.2892 H         1 UNK         0.0800 
    141 H141       -3.0645  -19.3927  -51.6855 H         1 UNK         0.0800 
    142 H142       -3.5549  -18.0831  -50.6565 H         1 UNK         0.0800 
    143 H143       -1.4003  -20.1250  -49.9763 H         1 UNK         0.0600 
    144 H144       -2.1266  -17.7071  -48.5598 H         1 UNK         0.3000 
    145 H145       -0.3590  -18.6654  -45.5912 H         1 UNK         0.0600 
    146 H146        0.2894  -16.5989  -47.7594 H         1 UNK         0.0600 
    147 H147        0.8033  -16.5196  -46.0689 H         1 UNK         0.0600 
    148 H148        1.4006  -17.7943  -47.1175 H         1 UNK         0.0600 
    149 H149       -1.6336  -16.2554  -46.0176 H         1 UNK         0.3000 
    150 H150       -4.2455  -16.0674  -45.9427 H         1 UNK         0.0600 
    151 H151       -5.7833  -17.8710  -45.2627 H         1 UNK         0.0600 
    152 H152       -5.9279  -16.5342  -44.1389 H         1 UNK         0.0600 
    153 H153       -5.0251  -17.9766  -43.6747 H         1 UNK         0.0600 
    154 H154       -2.5778  -16.3146  -43.5470 H         1 UNK         0.3000 
    155 H155       -2.6075  -12.8490  -43.0345 H         1 UNK         0.0600 
    156 H156       -3.9570  -14.7585  -41.0490 H         1 UNK         0.0600 
    157 H157       -3.2117  -13.2095  -40.6503 H         1 UNK         0.0600 
    158 H158       -4.6500  -13.2597  -41.6562 H         1 UNK         0.0600 
    159 H159       -1.5468  -15.0114  -41.4637 H         1 UNK         0.3000 
    160 H160        1.0885  -15.9393  -43.5249 H         1 UNK         0.0600 
    161 H161        2.1038  -13.7627  -42.8108 H         1 UNK         0.0600 
    162 H162        2.7059  -15.1032  -41.8546 H         1 UNK         0.0600 
    163 H163        1.4959  -14.0111  -41.1765 H         1 UNK         0.0600 
    164 H164        0.9059  -16.4375  -40.8012 H         1 UNK         0.3000 
    165 H165       -0.7978  -17.9793  -39.7788 H         1 UNK         0.0600 
    166 H166       -1.7105  -20.2680  -40.1193 H         1 UNK         0.0600 
    167 H167       -2.6468  -19.0874  -41.0230 H         1 UNK         0.0600 
    168 H168       -1.4951  -20.1187  -41.8619 H         1 UNK         0.0600 
    169 H169        0.8962  -19.9047  -41.2878 H         1 UNK         0.3000 
    170 H170        3.8653  -18.9232  -39.6174 H         1 UNK         0.0600 
    171 H171        2.9040  -20.7400  -38.2025 H         1 UNK         0.0600 
    172 H172        2.3166  -21.5722  -39.6370 H         1 UNK         0.0600 
    173 H173        4.0496  -21.3857  -39.3665 H         1 UNK         0.0600 
    174 H174        3.2232  -20.7326  -41.7750 H         1 UNK         0.3000 
    175 H175        3.9890  -20.2726  -43.8640 H         1 UNK         0.0600 
    176 H176        1.9594  -18.0405  -44.4060 H         1 UNK         0.0600 
    177 H177        2.3210  -19.3911  -45.4832 H         1 UNK         0.0600 
    178 H178        1.5617  -19.6850  -43.9278 H         1 UNK         0.0600 
    179 H179        4.3114  -17.4871  -44.8307 H         1 UNK         0.3000 
    180 H180        7.8134  -17.6305  -44.8615 H         1 UNK         0.0600 
    181 H181        6.1203  -18.1316  -47.3642 H         1 UNK         0.0600 
    182 H182        7.5491  -19.0324  -46.8765 H         1 UNK         0.0600 
    183 H183        7.6992  -17.3454  -47.3460 H         1 UNK         0.0600 
    184 H184        5.8567  -15.9454  -46.1730 H         1 UNK         0.3000 
    185 H185        4.9622  -14.0201  -43.4489 H         1 UNK         0.0600 
    186 H186        6.1857  -12.0172  -44.2632 H         1 UNK         0.0600 
    187 H187        7.2777  -13.0783  -43.3902 H         1 UNK         0.0600 
    188 H188        7.3192  -13.0394  -45.1487 H         1 UNK         0.0600 
    189 H189        5.0926  -13.2477  -46.1851 H         1 UNK         0.3000 
    190 H190       -3.7645  -19.5138  -47.5054 H         1 UNK         0.3000 
    191 H191       -5.4379  -21.8257  -48.2537 H         1 UNK         0.0600 
    192 H192       -5.4772  -20.2044  -45.6670 H         1 UNK         0.0600 
    193 H193       -6.6968  -21.3164  -46.2569 H         1 UNK         0.0600 
    194 H194       -6.4271  -19.7968  -47.0978 H         1 UNK         0.0600 
    195 H195       -2.7538  -20.9735  -46.0728 H         1 UNK         0.3000 
    196 H196       -2.5771  -23.5386  -44.7751 H         1 UNK         0.0600 
    197 H197       -0.3702  -22.7105  -44.0172 H         1 UNK         0.0600 
    198 H198       -1.5895  -21.4596  -43.8229 H         1 UNK         0.0600 
    199 H199       -0.4398  -21.3709  -45.1529 H         1 UNK         0.0600 
    200 H200       -0.9668  -22.0919  -47.6243 H         1 UNK         0.3000 
    201 H201        0.4481  -24.5798  -48.3008 H         1 UNK         0.0600 
    202 H202        1.5552  -22.3237  -48.3986 H         1 UNK         0.0600 
    203 H203        0.4263  -21.8370  -49.6611 H         1 UNK         0.0600 
    204 H204        1.5707  -23.1413  -49.9518 H         1 UNK         0.0600 
    205 H205       -2.6263  -24.2578  -48.5879 H         1 UNK         0.3000 
    206 H206       -3.4237  -23.8785  -51.1866 H         1 UNK         0.0600 
    207 H207       -4.9945  -23.8845  -49.3314 H         1 UNK         0.0600 
    208 H208       -5.5261  -25.0966  -50.4753 H         1 UNK         0.0600 
    209 H209       -4.7018  -25.5926  -48.9996 H         1 UNK         0.0600 
    210 H210       -1.8469  -26.7478  -50.0662 H         1 UNK         0.3000 
    211 H211       -2.7252  -28.5976  -52.0773 H         1 UNK         0.0600 
    212 H212       -0.1376  -28.4862  -50.4331 H         1 UNK         0.0600 
    213 H213       -0.6976  -29.8724  -51.3608 H         1 UNK         0.0600 
    214 H214       -1.6219  -29.3216  -49.9728 H         1 UNK         0.0600 
    215 H215       -0.4180  -25.9460  -52.1000 H         1 UNK         0.3000 
    216 H216        0.5003  -26.6466  -54.8690 H         1 UNK         0.0600 
    217 H217        2.4286  -25.1547  -54.3599 H         1 UNK         0.0600 
    218 H218        2.3637  -26.5033  -53.2352 H         1 UNK         0.0600 
    219 H219        1.8294  -24.9039  -52.7234 H         1 UNK         0.0600 
    220 H220       -0.6204  -24.0262  -52.6761 H         1 UNK         0.3000 
    221 H221       -0.9797  -22.1058  -54.8536 H         1 UNK         0.0600 
    222 H222       -1.6138  -21.9341  -51.8624 H         1 UNK         0.0600 
    223 H223       -0.1021  -21.4320  -52.6147 H         1 UNK         0.0600 
    224 H224       -1.5954  -20.6012  -53.0148 H         1 UNK         0.0600 
    225 H225       -2.4434  -23.6051  -56.0101 H         1 UNK         0.3000 
    226 H226       -4.9500  -24.4571  -55.2097 H         1 UNK         0.0600 
    227 H227       -3.8377  -25.1626  -57.3092 H         1 UNK         0.0600 
    228 H228       -5.4443  -24.5493  -57.6681 H         1 UNK         0.0600 
    229 H229       -4.0340  -23.5482  -57.9926 H         1 UNK         0.0600 
    230 H230       -6.9684  -23.6815  -55.1443 H         1 UNK         0.3000 
    231 H231       -8.7257  -22.3963  -54.9642 H         1 UNK         0.0600 
    232 H232       -9.0906  -20.3430  -56.2173 H         1 UNK         0.0600 
    233 H233       -8.2811  -21.4937  -57.2682 H         1 UNK         0.0600 
    234 H234       -7.3798  -20.1559  -56.5518 H         1 UNK         0.0600 
    235 H235       -5.7925  -21.6548  -53.5617 H         1 UNK         0.3000 
    236 H236       -5.1261  -20.6602  -51.7307 H         1 UNK         0.0600 
    237 H237       -6.7192  -20.7758  -49.7708 H         1 UNK         0.0600 
    238 H238       -6.6849  -22.2525  -50.7120 H         1 UNK         0.0600 
    239 H239       -8.0367  -21.1367  -50.8800 H         1 UNK         0.0600 
    240 H240       -7.5770  -19.0438  -50.2640 H         1 UNK         0.3000 
    241 H241       -6.7022  -16.3933  -51.1848 H         1 UNK         0.0600 
    242 H242       -8.9381  -18.4484  -52.6146 H         1 UNK         0.3800 
    243 H243      -10.0773  -17.2195  -53.0914 H         1 UNK         0.3800 
    244 H244       -8.1464  -15.5741  -49.2552 H         1 UNK         0.0800 
    245 H245       -8.5211  -17.2275  -48.8802 H         1 UNK         0.0800 
    246 H246       -6.1951  -14.4048  -49.0953 H         1 UNK         0.0800 
    247 H247       -5.7483  -14.5326  -47.4120 H         1 UNK         0.0800 
@<TRIPOS>BOND
     1    1    2 1    
     2    1  127 1    
     3    1  128 1    
     4    1  129 1    
     5    2    3 2    
     6    2    4 am   BACKBONE|DICT|INTERRES
     7    4    5 1    
     8    4  130 1    
     9    5    6 1    
    10    5   65 1    
    11    5  131 1    
    12    6    7 1    
    13    6  132 1    
    14    6  133 1    
    15    7    8 1    
    16    8    9 1    
    17    8  134 1    
    18    8  135 1    
    19    9   10 ar   
    20    9   14 ar   
    21   10   11 ar   
    22   10  136 1    
    23   11   12 ar   
    24   11  126 1    
    25   12   13 ar   
    26   12  137 1    
    27   13   14 ar   
    28   13   15 1    
    29   14  138 1    
    30   15   16 1    
    31   15  139 1    
    32   15  140 1    
    33   16   17 1    
    34   17   18 1    
    35   17  141 1    
    36   17  142 1    
    37   18   19 1    
    38   18   67 1    
    39   18  143 1    
    40   19   20 am   BACKBONE|DICT|INTERRES
    41   19  144 1    
    42   20   21 2    
    43   20   22 1    
    44   22   23 1    
    45   22   24 1    
    46   22  145 1    
    47   23  146 1    
    48   23  147 1    
    49   23  148 1    
    50   24   25 am   BACKBONE|DICT|INTERRES
    51   24  149 1    
    52   25   26 2    
    53   25   27 1    
    54   27   28 1    
    55   27   29 1    
    56   27  150 1    
    57   28  151 1    
    58   28  152 1    
    59   28  153 1    
    60   29   30 am   BACKBONE|DICT|INTERRES
    61   29  154 1    
    62   30   31 2    
    63   30   32 1    
    64   32   33 1    
    65   32   34 1    
    66   32  155 1    
    67   33  156 1    
    68   33  157 1    
    69   33  158 1    
    70   34   35 am   BACKBONE|DICT|INTERRES
    71   34  159 1    
    72   35   36 2    
    73   35   37 1    
    74   37   38 1    
    75   37   39 1    
    76   37  160 1    
    77   38  161 1    
    78   38  162 1    
    79   38  163 1    
    80   39   40 am   BACKBONE|DICT|INTERRES
    81   39  164 1    
    82   40   41 2    
    83   40   42 1    
    84   42   43 1    
    85   42   44 1    
    86   42  165 1    
    87   43  166 1    
    88   43  167 1    
    89   43  168 1    
    90   44   45 am   BACKBONE|DICT|INTERRES
    91   44  169 1    
    92   45   46 2    
    93   45   47 1    
    94   47   48 1    
    95   47   49 1    
    96   47  170 1    
    97   48  171 1    
    98   48  172 1    
    99   48  173 1    
   100   49   50 am   BACKBONE|DICT|INTERRES
   101   49  174 1    
   102   50   51 2    
   103   50   52 1    
   104   52   53 1    
   105   52   54 1    
   106   52  175 1    
   107   53  176 1    
   108   53  177 1    
   109   53  178 1    
   110   54   55 am   BACKBONE|DICT|INTERRES
   111   54  179 1    
   112   55   56 2    
   113   55   57 1    
   114   57   58 1    
   115   57   59 1    
   116   57  180 1    
   117   58  181 1    
   118   58  182 1    
   119   58  183 1    
   120   59   60 am   BACKBONE|DICT|INTERRES
   121   59  184 1    
   122   60   61 2    
   123   60   62 1    
   124   62   63 1    
   125   62   64 1    
   126   62  185 1    
   127   63  186 1    
   128   63  187 1    
   129   63  188 1    
   130   64   65 am   BACKBONE|DICT|INTERRES
   131   64  189 1    
   132   65   66 2    
   133   67   68 2    
   134   67   69 am   BACKBONE|DICT|INTERRES
   135   69   70 1    
   136   69  190 1    
   137   70   71 1    
   138   70   72 1    
   139   70  191 1    
   140   71  192 1    
   141   71  193 1    
   142   71  194 1    
   143   72   73 2    
   144   72   74 am   BACKBONE|DICT|INTERRES
   145   74   75 1    
   146   74  195 1    
   147   75   76 1    
   148   75   77 1    
   149   75  196 1    
   150   76  197 1    
   151   76  198 1    
   152   76  199 1    
   153   77   78 2    
   154   77   79 am   BACKBONE|DICT|INTERRES
   155   79   80 1    
   156   79  200 1    
   157   80   81 1    
   158   80   82 1    
   159   80  201 1    
   160   81  202 1    
   161   81  203 1    
   162   81  204 1    
   163   82   83 2    
   164   82   84 am   BACKBONE|DICT|INTERRES
   165   84   85 1    
   166   84  205 1    
   167   85   86 1    
   168   85   87 1    
   169   85  206 1    
   170   86  207 1    
   171   86  208 1    
   172   86  209 1    
   173   87   88 2    
   174   87   89 am   BACKBONE|DICT|INTERRES
   175   89   90 1    
   176   89  210 1    
   177   90   91 1    
   178   90   92 1    
   179   90  211 1    
   180   91  212 1    
   181   91  213 1    
   182   91  214 1    
   183   92   93 2    
   184   92   94 am   BACKBONE|DICT|INTERRES
   185   94   95 1    
   186   94  215 1    
   187   95   96 1    
   188   95   97 1    
   189   95  216 1    
   190   96  217 1    
   191   96  218 1    
   192   96  219 1    
   193   97   98 2    
   194   97   99 am   BACKBONE|DICT|INTERRES
   195   99  100 1    
   196   99  220 1    
   197  100  101 1    
   198  100  102 1    
   199  100  221 1    
   200  101  222 1    
   201  101  223 1    
   202  101  224 1    
   203  102  103 2    
   204  102  104 am   BACKBONE|DICT|INTERRES
   205  104  105 1    
   206  104  225 1    
   207  105  106 1    
   208  105  107 1    
   209  105  226 1    
   210  106  227 1    
   211  106  228 1    
   212  106  229 1    
   213  107  108 2    
   214  107  109 am   BACKBONE|DICT|INTERRES
   215  109  110 1    
   216  109  230 1    
   217  110  111 1    
   218  110  112 1    
   219  110  231 1    
   220  111  232 1    
   221  111  233 1    
   222  111  234 1    
   223  112  113 2    
   224  112  114 am   BACKBONE|DICT|INTERRES
   225  114  115 1    
   226  114  235 1    
   227  115  116 1    
   228  115  117 1    
   229  115  236 1    
   230  116  237 1    
   231  116  238 1    
   232  116  239 1    
   233  117  118 2    
   234  117  119 am   BACKBONE|DICT|INTERRES
   235  119  120 1    
   236  119  240 1    
   237  120  121 1    
   238  120  124 1    
   239  120  241 1    
   240  121  122 am   BACKBONE|DICT|INTERRES
   241  121  123 2    
   242  122  242 1    
   243  122  243 1    
   244  124  125 1    
   245  124  244 1    
   246  124  245 1    
   247  125  126 1    
   248  126  246 1    
   249  126  247 1    
@<TRIPOS>SUBSTRUCTURE
     1 UNK         1 GROUP             0       ****    0 ROOT    
