@<TRIPOS>MOLECULE
3R540
247   249    1
SMALL
USER_CHARGES


@<TRIPOS>ATOM
      1 CA         -2.8000  -13.9828  -49.5900 C.3       0 UNK        -0.1800 
      2 C          -1.5656  -14.5794  -48.9320 C.2       0 UNK         0.5000 
      3 O          -1.6379  -15.6843  -48.3961 O.2       0 UNK        -0.5000 
      4 N          -0.4477  -13.8440  -48.9913 N.am      1 UNK        -0.5000 
      5 CA          0.8465  -14.1419  -48.3739 C.3       1 UNK         0.1400 
      6 C6          1.4783  -15.4764  -48.8502 C.3       23 UNK        -0.0398 
      7 S7          3.3004  -15.4207  -48.8190 S.3       23 UNK        -0.2404 
      8 C8          3.7452  -16.0694  -50.4608 C.3       23 UNK        -0.0205 
      9 C9          3.4888  -17.5651  -50.6137 C.ar      23 UNK        -0.0193 
     10 C10         2.7724  -18.0386  -51.7152 C.ar      23 UNK        -0.1150 
     11 C11         2.5949  -19.4100  -51.9107 C.ar      23 UNK        -0.0193 
     12 C12         3.1273  -20.3133  -50.9871 C.ar      23 UNK        -0.1150 
     13 C13         3.8380  -19.8597  -49.8690 C.ar      23 UNK        -0.0193 
     14 C14         4.0142  -18.4820  -49.6962 C.ar      23 UNK        -0.1150 
     15 C15         4.4122  -20.8089  -48.8145 C.3       23 UNK        -0.0205 
     16 S16         4.7904  -22.5021  -49.3828 S.3       23 UNK        -0.2404 
     17 C17         3.1839  -23.3383  -49.1390 C.3       23 UNK        -0.0398 
     18 CA          3.1355  -24.1606  -47.8248 C.3       11 UNK         0.1400 
     19 N           3.2658  -23.3034  -46.6419 N.am      11 UNK        -0.5000 
     20 C           4.0426  -23.5377  -45.5760 C.2       10 UNK         0.5000 
     21 O           4.8213  -24.4873  -45.4929 O.2       10 UNK        -0.5000 
     22 CA          3.8997  -22.5700  -44.3806 C.3       10 UNK         0.1400 
     23 CB          5.0394  -21.5408  -44.3848 C.3       10 UNK        -0.1800 
     24 N           2.6131  -21.8660  -44.3549 N.am      10 UNK        -0.5000 
     25 C           1.4245  -22.4519  -44.1420 C.2       9 UNK         0.5000 
     26 O           1.3011  -23.6441  -43.8632 O.2       9 UNK        -0.5000 
     27 CA          0.1587  -21.5939  -44.3465 C.3       9 UNK         0.1400 
     28 CB         -0.3642  -21.0692  -43.0020 C.3       9 UNK        -0.1800 
     29 N           0.3473  -20.4668  -45.2622 N.am      9 UNK        -0.5000 
     30 C           0.7309  -20.5556  -46.5435 C.2       8 UNK         0.5000 
     31 O           0.9424  -21.6252  -47.1162 O.2       8 UNK        -0.5000 
     32 CA          0.9606  -19.2302  -47.2891 C.3       8 UNK         0.1400 
     33 CB         -0.3341  -18.7744  -47.9809 C.3       8 UNK        -0.1800 
     34 N           1.4807  -18.1872  -46.3940 N.am      8 UNK        -0.5000 
     35 C           2.7307  -18.1892  -45.9007 C.2       7 UNK         0.5000 
     36 O           3.5829  -19.0093  -46.2337 O.2       7 UNK        -0.5000 
     37 CA          3.0910  -17.1701  -44.8058 C.3       7 UNK         0.1400 
     38 CB          3.8182  -15.9410  -45.3645 C.3       7 UNK        -0.1800 
     39 N           1.9223  -16.7527  -44.0341 N.am      7 UNK        -0.5000 
     40 C           1.5233  -17.3767  -42.9178 C.2       6 UNK         0.5000 
     41 O           2.1225  -18.3314  -42.4215 O.2       6 UNK        -0.5000 
     42 CA          0.2403  -16.8714  -42.2320 C.3       6 UNK         0.1400 
     43 CB          0.5886  -15.8728  -41.1185 C.3       6 UNK        -0.1800 
     44 N          -0.7570  -16.2747  -43.1235 N.am      6 UNK        -0.5000 
     45 C          -1.3471  -16.9054  -44.1507 C.2       5 UNK         0.5000 
     46 O          -1.0057  -18.0235  -44.5392 O.2       5 UNK        -0.5000 
     47 CA         -2.5166  -16.1780  -44.8486 C.3       5 UNK         0.1400 
     48 CB         -3.5138  -17.1612  -45.4934 C.3       5 UNK        -0.1800 
     49 N          -3.2212  -15.2385  -43.9689 N.am      5 UNK        -0.5000 
     50 C          -3.9192  -15.5274  -42.8569 C.2       4 UNK         0.5000 
     51 O          -4.1096  -16.6734  -42.4475 O.2       4 UNK        -0.5000 
     52 CA         -4.5006  -14.3302  -42.0668 C.3       4 UNK         0.1400 
     53 CB         -4.5942  -14.6127  -40.5523 C.3       4 UNK        -0.1800 
     54 N          -3.8027  -13.0601  -42.3114 N.am      4 UNK        -0.5000 
     55 C          -2.5058  -12.8064  -42.0903 C.2       3 UNK         0.5000 
     56 O          -1.7137  -13.6168  -41.6055 O.2       3 UNK        -0.5000 
     57 CA         -1.9954  -11.4271  -42.5391 C.3       3 UNK         0.1400 
     58 CB         -1.7728  -10.5099  -41.3272 C.3       3 UNK        -0.1800 
     59 N          -0.7467  -11.5437  -43.2926 N.am      3 UNK        -0.5000 
     60 C          -0.5986  -12.2179  -44.4412 C.2       2 UNK         0.5000 
     61 O          -1.5311  -12.7684  -45.0340 O.2       2 UNK        -0.5000 
     62 CA          0.8347  -12.2485  -45.0063 C.3       2 UNK         0.1400 
     63 CB          1.7994  -13.0123  -44.0746 C.3       2 UNK        -0.1800 
     64 N           0.9070  -12.7439  -46.3857 N.am      2 UNK        -0.5000 
     65 C           0.7591  -13.9986  -46.8366 C.2       1 UNK         0.5000 
     66 O           0.5636  -14.9830  -46.1171 O.2       1 UNK        -0.5000 
     67 C           1.8488  -25.0174  -47.7325 C.2       11 UNK         0.5000 
     68 O           1.4358  -25.6012  -48.7347 O.2       11 UNK        -0.5000 
     69 N           1.2430  -25.0887  -46.5351 N.am      12 UNK        -0.5000 
     70 CA          0.0413  -25.8466  -46.1749 C.3       12 UNK         0.1400 
     71 CB          0.2715  -27.3637  -46.3427 C.3       12 UNK        -0.1800 
     72 C          -1.2459  -25.3489  -46.8649 C.2       12 UNK         0.5000 
     73 O          -2.1704  -26.1383  -47.0699 O.2       12 UNK        -0.5000 
     74 N          -1.3054  -24.0500  -47.1953 N.am      13 UNK        -0.5000 
     75 CA         -2.5025  -23.4024  -47.7322 C.3       13 UNK         0.1400 
     76 CB         -2.1368  -22.0062  -48.2496 C.3       13 UNK        -0.1800 
     77 C          -3.6126  -23.3020  -46.6683 C.2       13 UNK         0.5000 
     78 O          -3.3278  -22.9663  -45.5165 O.2       13 UNK        -0.5000 
     79 N          -4.8553  -23.5793  -47.0793 N.am      14 UNK        -0.5000 
     80 CA         -6.0391  -23.5632  -46.2140 C.3       14 UNK         0.1400 
     81 CB         -7.0640  -24.5594  -46.7805 C.3       14 UNK        -0.1800 
     82 C          -6.6777  -22.1666  -46.0683 C.2       14 UNK         0.5000 
     83 O          -7.5535  -21.9896  -45.2204 O.2       14 UNK        -0.5000 
     84 N          -6.2559  -21.2112  -46.9022 N.am      15 UNK        -0.5000 
     85 CA         -6.7619  -19.8450  -46.9877 C.3       15 UNK         0.1400 
     86 CB         -8.1123  -19.8368  -47.7344 C.3       15 UNK        -0.1800 
     87 C          -5.7114  -18.9849  -47.7078 C.2       15 UNK         0.5000 
     88 O          -4.6453  -19.4993  -48.0573 O.2       15 UNK        -0.5000 
     89 N          -6.0416  -17.7073  -47.9460 N.am      16 UNK        -0.5000 
     90 CA         -5.2668  -16.7187  -48.7065 C.3       16 UNK         0.1400 
     91 CB         -6.1183  -15.4453  -48.8462 C.3       16 UNK        -0.1800 
     92 C          -4.8343  -17.2532  -50.0841 C.2       16 UNK         0.5000 
     93 O          -5.6711  -17.3540  -50.9826 O.2       16 UNK        -0.5000 
     94 N          -3.5637  -17.6762  -50.1794 N.am      17 UNK        -0.5000 
     95 CA         -2.9343  -18.3791  -51.3080 C.3       17 UNK         0.1400 
     96 CB         -2.7831  -17.4210  -52.5070 C.3       17 UNK        -0.1800 
     97 C          -3.6384  -19.6997  -51.7105 C.2       17 UNK         0.5000 
     98 O          -3.4483  -20.1773  -52.8311 O.2       17 UNK        -0.5000 
     99 N          -4.4711  -20.2476  -50.8086 N.am      18 UNK        -0.5000 
    100 CA        -5.4776  -21.2918  -51.0424 C.3       18 UNK         0.1400 
    101 CB        -4.8090  -22.6742  -51.1484 C.3       18 UNK        -0.1800 
    102 C         -6.3916  -20.9571  -52.2439 C.2       18 UNK         0.5000 
    103 O         -6.6399  -21.8113  -53.0955 O.2       18 UNK        -0.5000 
    104 N         -6.7950  -19.6802  -52.3274 N.am      19 UNK        -0.5000 
    105 CA        -7.3807  -18.9767  -53.4721 C.3       19 UNK         0.1400 
    106 CB        -8.6661  -19.6462  -53.9983 C.3       19 UNK        -0.1800 
    107 C         -6.3387  -18.7396  -54.5815 C.2       19 UNK         0.5000 
    108 O         -6.0484  -17.5856  -54.8980 O.2       19 UNK        -0.5000 
    109 N         -5.7730  -19.8273  -55.1160 N.am      20 UNK        -0.5000 
    110 CA        -4.6845  -19.8520  -56.0908 C.3       20 UNK         0.1400 
    111 CB        -5.1375  -19.2620  -57.4459 C.3       20 UNK        -0.1800 
    112 C         -4.1716  -21.2973  -56.2191 C.2       20 UNK         0.5000 
    113 O         -4.1635  -21.8512  -57.3208 O.2       20 UNK        -0.5000 
    114 N         -3.8004  -21.9091  -55.0869 N.am      21 UNK        -0.5000 
    115 CA        -3.4218  -23.3247  -55.0114 C.3       21 UNK         0.1400 
    116 CB        -4.6781  -24.1860  -54.7770 C.3       21 UNK        -0.1800 
    117 C         -2.3130  -23.6127  -53.9816 C.2       21 UNK         0.5000 
    118 O         -2.0782  -24.7802  -53.6667 O.2       21 UNK        -0.5000 
    119 N         -1.6396  -22.5707  -53.4751 N.am      22 UNK        -0.5000 
    120 CA        -0.5125  -22.6836  -52.5305 C.3       22 UNK         0.1400 
    121 C          0.7885  -23.3212  -53.1057 C.2       22 UNK         0.5000 
    122 N          0.9348  -23.4788  -54.4158 N.am      22 UNK        -0.7600 
    123 O          1.6832  -23.6785  -52.3461 O.2       22 UNK        -0.5000 
    124 C124       -0.2178  -21.3402  -51.8123 C.3       23 UNK        -0.0398 
    125 S125        0.0607  -19.9273  -52.9412 S.3       23 UNK        -0.2404 
    126 C126        1.8691  -19.9144  -53.1475 C.3       23 UNK        -0.0205 
    127 H127       -3.5613  -13.7902  -48.8348 H         1 UNK         0.0600 
    128 H128       -3.2047  -14.6731  -50.3293 H         1 UNK         0.0600 
    129 H129       -2.5784  -13.0418  -50.0940 H         1 UNK         0.0600 
    130 H130       -0.4942  -12.9478  -49.4552 H         1 UNK         0.3000 
    131 H131        1.4966  -13.3410  -48.7309 H         1 UNK         0.0600 
    132 H132        1.1537  -15.7047  -49.8661 H         1 UNK         0.0800 
    133 H133        1.1480  -16.3085  -48.2376 H         1 UNK         0.0800 
    134 H134        3.2152  -15.4983  -51.2247 H         1 UNK         0.0800 
    135 H135        4.8075  -15.8869  -50.6271 H         1 UNK         0.0800 
    136 H136        2.3714  -17.3421  -52.4383 H         1 UNK         0.1150 
    137 H137        2.9883  -21.3709  -51.1545 H         1 UNK         0.1150 
    138 H138        4.5662  -18.1189  -48.8403 H         1 UNK         0.1150 
    139 H139        5.3334  -20.3841  -48.4132 H         1 UNK         0.0800 
    140 H140        3.7168  -20.8660  -47.9789 H         1 UNK         0.0800 
    141 H141        2.3717  -22.6106  -49.1727 H         1 UNK         0.0800 
    142 H142        3.0392  -23.9898  -50.0021 H         1 UNK         0.0800 
    143 H143        3.9636  -24.8714  -47.8531 H         1 UNK         0.0600 
    144 H144        2.6223  -22.5192  -46.6175 H         1 UNK         0.3000 
    145 H145        3.9765  -23.1608  -43.4655 H         1 UNK         0.0600 
    146 H146        4.9450  -20.8378  -43.5568 H         1 UNK         0.0600 
    147 H147        5.0617  -20.9692  -45.3127 H         1 UNK         0.0600 
    148 H148        6.0072  -22.0338  -44.2849 H         1 UNK         0.0600 
    149 H149        2.6301  -20.8845  -44.5936 H         1 UNK         0.3000 
    150 H150       -0.6068  -22.2405  -44.7800 H         1 UNK         0.0600 
    151 H151        0.3536  -20.4024  -42.5244 H         1 UNK         0.0600 
    152 H152       -1.2982  -20.5213  -43.1292 H         1 UNK         0.0600 
    153 H153       -0.5609  -21.8904  -42.3116 H         1 UNK         0.0600 
    154 H154        0.1022  -19.5476  -44.9029 H         1 UNK         0.3000 
    155 H155        1.6990  -19.4178  -48.0690 H         1 UNK         0.0600 
    156 H156       -0.7668  -19.5812  -48.5708 H         1 UNK         0.0600 
    157 H157       -0.1576  -17.9611  -48.6801 H         1 UNK         0.0600 
    158 H158       -1.0853  -18.4496  -47.2624 H         1 UNK         0.0600 
    159 H159        0.8190  -17.5026  -46.0521 H         1 UNK         0.3000 
    160 H160        3.8037  -17.6701  -44.1461 H         1 UNK         0.0600 
    161 H161        3.1571  -15.3088  -45.9504 H         1 UNK         0.0600 
    162 H162        4.6503  -16.2343  -46.0058 H         1 UNK         0.0600 
    163 H163        4.2276  -15.3315  -44.5590 H         1 UNK         0.0600 
    164 H164        1.3529  -16.0121  -44.4294 H         1 UNK         0.3000 
    165 H165       -0.2301  -17.7403  -41.7672 H         1 UNK         0.0600 
    166 H166       -0.2861  -15.6428  -40.5102 H         1 UNK         0.0600 
    167 H167        1.3481  -16.2776  -40.4482 H         1 UNK         0.0600 
    168 H168        0.9718  -14.9356  -41.5236 H         1 UNK         0.0600 
    169 H169       -1.1063  -15.3628  -42.8542 H         1 UNK         0.3000 
    170 H170       -2.0777  -15.5758  -45.6450 H         1 UNK         0.0600 
    171 H171       -3.0715  -17.6555  -46.3578 H         1 UNK         0.0600 
    172 H172       -3.8248  -17.9415  -44.7980 H         1 UNK         0.0600 
    173 H173       -4.4105  -16.6437  -45.8303 H         1 UNK         0.0600 
    174 H174       -3.0864  -14.2625  -44.2030 H         1 UNK         0.3000 
    175 H175       -5.5171  -14.1941  -42.4385 H         1 UNK         0.0600 
    176 H176       -3.6183  -14.8387  -40.1212 H         1 UNK         0.0600 
    177 H177       -5.0081  -13.7587  -40.0163 H         1 UNK         0.0600 
    178 H178       -5.2443  -15.4649  -40.3512 H         1 UNK         0.0600 
    179 H179       -4.3668  -12.3345  -42.7324 H         1 UNK         0.3000 
    180 H180       -2.7381  -10.9647  -43.1927 H         1 UNK         0.0600 
    181 H181       -1.0185  -10.9137  -40.6504 H         1 UNK         0.0600 
    182 H182       -2.6941  -10.3878  -40.7562 H         1 UNK         0.0600 
    183 H183       -1.4493   -9.5161  -41.6373 H         1 UNK         0.0600 
    184 H184        0.0691  -11.1365  -42.8598 H         1 UNK         0.3000 
    185 H185        1.1735  -11.2125  -45.0546 H         1 UNK         0.0600 
    186 H186        1.9175  -12.4962  -43.1216 H         1 UNK         0.0600 
    187 H187        1.4373  -14.0143  -43.8502 H         1 UNK         0.0600 
    188 H188        2.7916  -13.1010  -44.5165 H         1 UNK         0.0600 
    189 H189        1.0227  -12.0171  -47.0774 H         1 UNK         0.3000 
    190 H190        1.6512  -24.5662  -45.7697 H         1 UNK         0.3000 
    191 H191       -0.1133  -25.6641  -45.1108 H         1 UNK         0.0600 
    192 H192       -0.5532  -27.9345  -45.9144 H         1 UNK         0.0600 
    193 H193        1.1815  -27.6831  -45.8349 H         1 UNK         0.0600 
    194 H194        0.3537  -27.6490  -47.3917 H         1 UNK         0.0600 
    195 H195       -0.5098  -23.4542  -47.0089 H         1 UNK         0.3000 
    196 H196       -2.8571  -24.0014  -48.5735 H         1 UNK         0.0600 
    197 H197       -1.8998  -21.3325  -47.4265 H         1 UNK         0.0600 
    198 H198       -1.2799  -22.0418  -48.9218 H         1 UNK         0.0600 
    199 H199       -2.9654  -21.5591  -48.7964 H         1 UNK         0.0600 
    200 H200       -5.0081  -23.8624  -48.0361 H         1 UNK         0.3000 
    201 H201       -5.7581  -23.8996  -45.2136 H         1 UNK         0.0600 
    202 H202       -7.9499  -24.6143  -46.1465 H         1 UNK         0.0600 
    203 H203       -6.6465  -25.5649  -46.8381 H         1 UNK         0.0600 
    204 H204       -7.3935  -24.2739  -47.7803 H         1 UNK         0.0600 
    205 H205       -5.4624  -21.3940  -47.5019 H         1 UNK         0.3000 
    206 H206       -6.8911  -19.4452  -45.9800 H         1 UNK         0.0600 
    207 H207       -8.8434  -20.4781  -47.2422 H         1 UNK         0.0600 
    208 H208       -8.5452  -18.8368  -47.7695 H         1 UNK         0.0600 
    209 H209       -8.0046  -20.1852  -48.7622 H         1 UNK         0.0600 
    210 H210       -6.9454  -17.3888  -47.6293 H         1 UNK         0.3000 
    211 H211       -4.3686  -16.4656  -48.1428 H         1 UNK         0.0600 
    212 H212       -7.0957  -15.6610  -49.2798 H         1 UNK         0.0600 
    213 H213       -5.6370  -14.7124  -49.4933 H         1 UNK         0.0600 
    214 H214       -6.2780  -14.9705  -47.8779 H         1 UNK         0.0600 
    215 H215       -2.9720  -17.5616  -49.3660 H         1 UNK         0.3000 
    216 H216       -1.9347  -18.6563  -50.9724 H         1 UNK         0.0600 
    217 H217       -2.2632  -16.5077  -52.2178 H         1 UNK         0.0600 
    218 H218       -3.7508  -17.1408  -52.9244 H         1 UNK         0.0600 
    219 H219       -2.2053  -17.8802  -53.3096 H         1 UNK         0.0600 
    220 H220       -4.5035  -19.8134  -49.8893 H         1 UNK         0.3000 
    221 H221       -6.1248  -21.3052  -50.1647 H         1 UNK         0.0600 
    222 H222       -5.5493  -23.4623  -51.2899 H         1 UNK         0.0600 
    223 H223       -4.1168  -22.7163  -51.9854 H         1 UNK         0.0600 
    224 H224       -4.2518  -22.9147  -50.2461 H         1 UNK         0.0600 
    225 H225       -6.4522  -19.0429  -51.6138 H         1 UNK         0.3000 
    226 H226       -7.6641  -17.9942  -53.0910 H         1 UNK         0.0600 
    227 H227       -9.3869  -19.7987  -53.1952 H         1 UNK         0.0600 
    228 H228       -9.1446  -19.0177  -54.7500 H         1 UNK         0.0600 
    229 H229       -8.4739  -20.6123  -54.4646 H         1 UNK         0.0600 
    230 H230       -6.0504  -20.7306  -54.7428 H         1 UNK         0.3000 
    231 H231       -3.8598  -19.2504  -55.7031 H         1 UNK         0.0600 
    232 H232       -4.3396  -19.3251  -58.1868 H         1 UNK         0.0600 
    233 H233       -5.4042  -18.2091  -57.3626 H         1 UNK         0.0600 
    234 H234       -6.0014  -19.7950  -57.8446 H         1 UNK         0.0600 
    235 H235       -3.8070  -21.3827  -54.2144 H         1 UNK         0.3000 
    236 H236       -2.9894  -23.6271  -55.9672 H         1 UNK         0.0600 
    237 H237       -5.4239  -24.0176  -55.5537 H         1 UNK         0.0600 
    238 H238       -4.4381  -25.2497  -54.7892 H         1 UNK         0.0600 
    239 H239       -5.1430  -23.9659  -53.8169 H         1 UNK         0.0600 
    240 H240       -1.8866  -21.6309  -53.7551 H         1 UNK         0.3000 
    241 H241       -0.8377  -23.3774  -51.7525 H         1 UNK         0.0600 
    242 H242        0.2139  -23.1817  -55.0526 H         1 UNK         0.3800 
    243 H243        1.7790  -23.8976  -54.7726 H         1 UNK         0.3800 
    244 H244        0.6128  -21.4400  -51.1139 H         1 UNK         0.0800 
    245 H245       -1.0739  -21.0855  -51.1888 H         1 UNK         0.0800 
    246 H246        2.1126  -19.2706  -53.9938 H         1 UNK         0.0800 
    247 H247        2.2266  -20.9066  -53.4217 H         1 UNK         0.0800 
@<TRIPOS>BOND
     1    1    2 1    
     2    1  127 1    
     3    1  128 1    
     4    1  129 1    
     5    2    3 2    
     6    2    4 am   BACKBONE|DICT|INTERRES
     7    4    5 1    
     8    4  130 1    
     9    5    6 1    
    10    5   65 1    
    11    5  131 1    
    12    6    7 1    
    13    6  132 1    
    14    6  133 1    
    15    7    8 1    
    16    8    9 1    
    17    8  134 1    
    18    8  135 1    
    19    9   10 ar   
    20    9   14 ar   
    21   10   11 ar   
    22   10  136 1    
    23   11   12 ar   
    24   11  126 1    
    25   12   13 ar   
    26   12  137 1    
    27   13   14 ar   
    28   13   15 1    
    29   14  138 1    
    30   15   16 1    
    31   15  139 1    
    32   15  140 1    
    33   16   17 1    
    34   17   18 1    
    35   17  141 1    
    36   17  142 1    
    37   18   19 1    
    38   18   67 1    
    39   18  143 1    
    40   19   20 am   BACKBONE|DICT|INTERRES
    41   19  144 1    
    42   20   21 2    
    43   20   22 1    
    44   22   23 1    
    45   22   24 1    
    46   22  145 1    
    47   23  146 1    
    48   23  147 1    
    49   23  148 1    
    50   24   25 am   BACKBONE|DICT|INTERRES
    51   24  149 1    
    52   25   26 2    
    53   25   27 1    
    54   27   28 1    
    55   27   29 1    
    56   27  150 1    
    57   28  151 1    
    58   28  152 1    
    59   28  153 1    
    60   29   30 am   BACKBONE|DICT|INTERRES
    61   29  154 1    
    62   30   31 2    
    63   30   32 1    
    64   32   33 1    
    65   32   34 1    
    66   32  155 1    
    67   33  156 1    
    68   33  157 1    
    69   33  158 1    
    70   34   35 am   BACKBONE|DICT|INTERRES
    71   34  159 1    
    72   35   36 2    
    73   35   37 1    
    74   37   38 1    
    75   37   39 1    
    76   37  160 1    
    77   38  161 1    
    78   38  162 1    
    79   38  163 1    
    80   39   40 am   BACKBONE|DICT|INTERRES
    81   39  164 1    
    82   40   41 2    
    83   40   42 1    
    84   42   43 1    
    85   42   44 1    
    86   42  165 1    
    87   43  166 1    
    88   43  167 1    
    89   43  168 1    
    90   44   45 am   BACKBONE|DICT|INTERRES
    91   44  169 1    
    92   45   46 2    
    93   45   47 1    
    94   47   48 1    
    95   47   49 1    
    96   47  170 1    
    97   48  171 1    
    98   48  172 1    
    99   48  173 1    
   100   49   50 am   BACKBONE|DICT|INTERRES
   101   49  174 1    
   102   50   51 2    
   103   50   52 1    
   104   52   53 1    
   105   52   54 1    
   106   52  175 1    
   107   53  176 1    
   108   53  177 1    
   109   53  178 1    
   110   54   55 am   BACKBONE|DICT|INTERRES
   111   54  179 1    
   112   55   56 2    
   113   55   57 1    
   114   57   58 1    
   115   57   59 1    
   116   57  180 1    
   117   58  181 1    
   118   58  182 1    
   119   58  183 1    
   120   59   60 am   BACKBONE|DICT|INTERRES
   121   59  184 1    
   122   60   61 2    
   123   60   62 1    
   124   62   63 1    
   125   62   64 1    
   126   62  185 1    
   127   63  186 1    
   128   63  187 1    
   129   63  188 1    
   130   64   65 am   BACKBONE|DICT|INTERRES
   131   64  189 1    
   132   65   66 2    
   133   67   68 2    
   134   67   69 am   BACKBONE|DICT|INTERRES
   135   69   70 1    
   136   69  190 1    
   137   70   71 1    
   138   70   72 1    
   139   70  191 1    
   140   71  192 1    
   141   71  193 1    
   142   71  194 1    
   143   72   73 2    
   144   72   74 am   BACKBONE|DICT|INTERRES
   145   74   75 1    
   146   74  195 1    
   147   75   76 1    
   148   75   77 1    
   149   75  196 1    
   150   76  197 1    
   151   76  198 1    
   152   76  199 1    
   153   77   78 2    
   154   77   79 am   BACKBONE|DICT|INTERRES
   155   79   80 1    
   156   79  200 1    
   157   80   81 1    
   158   80   82 1    
   159   80  201 1    
   160   81  202 1    
   161   81  203 1    
   162   81  204 1    
   163   82   83 2    
   164   82   84 am   BACKBONE|DICT|INTERRES
   165   84   85 1    
   166   84  205 1    
   167   85   86 1    
   168   85   87 1    
   169   85  206 1    
   170   86  207 1    
   171   86  208 1    
   172   86  209 1    
   173   87   88 2    
   174   87   89 am   BACKBONE|DICT|INTERRES
   175   89   90 1    
   176   89  210 1    
   177   90   91 1    
   178   90   92 1    
   179   90  211 1    
   180   91  212 1    
   181   91  213 1    
   182   91  214 1    
   183   92   93 2    
   184   92   94 am   BACKBONE|DICT|INTERRES
   185   94   95 1    
   186   94  215 1    
   187   95   96 1    
   188   95   97 1    
   189   95  216 1    
   190   96  217 1    
   191   96  218 1    
   192   96  219 1    
   193   97   98 2    
   194   97   99 am   BACKBONE|DICT|INTERRES
   195   99  100 1    
   196   99  220 1    
   197  100  101 1    
   198  100  102 1    
   199  100  221 1    
   200  101  222 1    
   201  101  223 1    
   202  101  224 1    
   203  102  103 2    
   204  102  104 am   BACKBONE|DICT|INTERRES
   205  104  105 1    
   206  104  225 1    
   207  105  106 1    
   208  105  107 1    
   209  105  226 1    
   210  106  227 1    
   211  106  228 1    
   212  106  229 1    
   213  107  108 2    
   214  107  109 am   BACKBONE|DICT|INTERRES
   215  109  110 1    
   216  109  230 1    
   217  110  111 1    
   218  110  112 1    
   219  110  231 1    
   220  111  232 1    
   221  111  233 1    
   222  111  234 1    
   223  112  113 2    
   224  112  114 am   BACKBONE|DICT|INTERRES
   225  114  115 1    
   226  114  235 1    
   227  115  116 1    
   228  115  117 1    
   229  115  236 1    
   230  116  237 1    
   231  116  238 1    
   232  116  239 1    
   233  117  118 2    
   234  117  119 am   BACKBONE|DICT|INTERRES
   235  119  120 1    
   236  119  240 1    
   237  120  121 1    
   238  120  124 1    
   239  120  241 1    
   240  121  122 am   BACKBONE|DICT|INTERRES
   241  121  123 2    
   242  122  242 1    
   243  122  243 1    
   244  124  125 1    
   245  124  244 1    
   246  124  245 1    
   247  125  126 1    
   248  126  246 1    
   249  126  247 1    
@<TRIPOS>SUBSTRUCTURE
     1 UNK         1 GROUP             0       ****    0 ROOT    
