@<TRIPOS>MOLECULE
3R540
247   249    1
SMALL
USER_CHARGES


@<TRIPOS>ATOM
      1 CA          4.6101  -18.5642  -46.7000 C.3       0 UNK        -0.1800 
      2 C           4.1338  -17.3020  -47.4044 C.2       0 UNK         0.5000 
      3 O           4.9031  -16.6870  -48.1414 O.2       0 UNK        -0.5000 
      4 N           2.8782  -16.8998  -47.1634 N.am      1 UNK        -0.5000 
      5 CA          2.1610  -15.7602  -47.7647 C.3       1 UNK         0.1400 
      6 C6          2.0782  -15.8692  -49.3109 C.3       23 UNK        -0.0398 
      7 S7          0.6374  -15.0101  -50.0411 S.3       23 UNK        -0.2404 
      8 C8         -0.6144  -16.3290  -50.1938 C.3       23 UNK        -0.0205 
      9 C9         -0.1221  -17.5190  -51.0036 C.ar      23 UNK        -0.0193 
     10 C10         0.1291  -17.3905  -52.3709 C.ar      23 UNK        -0.1150 
     11 C11         0.6026  -18.4768  -53.1124 C.ar      23 UNK        -0.0193 
     12 C12         0.8499  -19.6922  -52.4669 C.ar      23 UNK        -0.1150 
     13 C13         0.5866  -19.8391  -51.1003 C.ar      23 UNK        -0.0193 
     14 C14         0.0846  -18.7513  -50.3806 C.ar      23 UNK        -0.1150 
     15 C15         0.7879  -21.1890  -50.4259 C.3       23 UNK        -0.0205 
     16 S16         2.2045  -21.2282  -49.2800 S.3       23 UNK        -0.2404 
     17 C17         1.4244  -20.8036  -47.6842 C.3       23 UNK        -0.0398 
     18 CA          1.0631  -22.0233  -46.8020 C.3       11 UNK         0.1400 
     19 N           0.7301  -21.6099  -45.4389 N.am      11 UNK        -0.5000 
     20 C           0.5897  -22.4431  -44.3985 C.2       10 UNK         0.5000 
     21 O           0.8240  -23.6505  -44.4498 O.2       10 UNK        -0.5000 
     22 CA          0.0653  -21.8280  -43.0872 C.3       10 UNK         0.1400 
     23 CB          1.2211  -21.2169  -42.2829 C.3       10 UNK        -0.1800 
     24 N          -0.9783  -20.8203  -43.3017 N.am      10 UNK        -0.5000 
     25 C          -2.1716  -21.0782  -43.8595 C.2       9 UNK         0.5000 
     26 O          -2.5208  -22.1952  -44.2361 O.2       9 UNK        -0.5000 
     27 CA         -3.1187  -19.8866  -44.0791 C.3       9 UNK         0.1400 
     28 CB         -3.8346  -19.5074  -42.7742 C.3       9 UNK        -0.1800 
     29 N          -2.4301  -18.7160  -44.6160 N.am      9 UNK        -0.5000 
     30 C          -1.8183  -18.6629  -45.8070 C.2       8 UNK         0.5000 
     31 O          -1.7942  -19.5902  -46.6164 O.2       8 UNK        -0.5000 
     32 CA         -1.0261  -17.3811  -46.1040 C.3       8 UNK         0.1400 
     33 CB         -1.9466  -16.2096  -46.4775 C.3       8 UNK        -0.1800 
     34 N          -0.1845  -17.0109  -44.9665 N.am      8 UNK        -0.5000 
     35 C           0.8997  -17.6991  -44.5872 C.2       7 UNK         0.5000 
     36 O           1.3549  -18.6440  -45.2287 O.2       7 UNK        -0.5000 
     37 CA          1.6129  -17.2511  -43.3021 C.3       7 UNK         0.1400 
     38 CB          2.8197  -16.3737  -43.6531 C.3       7 UNK        -0.1800 
     39 N           0.7269  -16.5398  -42.3789 N.am      7 UNK        -0.5000 
     40 C          -0.2269  -17.1462  -41.6596 C.2       6 UNK         0.5000 
     41 O          -0.4616  -18.3538  -41.7211 O.2       6 UNK        -0.5000 
     42 CA         -1.0976  -16.2442  -40.7673 C.3       6 UNK         0.1400 
     43 CB         -0.2898  -15.6990  -39.5793 C.3       6 UNK        -0.1800 
     44 N          -1.7214  -15.1305  -41.4882 N.am      6 UNK        -0.5000 
     45 C          -2.5422  -15.2556  -42.5406 C.2       5 UNK         0.5000 
     46 O          -2.7915  -16.3301  -43.0839 O.2       5 UNK        -0.5000 
     47 CA         -3.1901  -13.9764  -43.1040 C.3       5 UNK         0.1400 
     48 CB         -4.6780  -13.9348  -42.7254 C.3       5 UNK        -0.1800 
     49 N          -2.5567  -12.7380  -42.6411 N.am      5 UNK        -0.5000 
     50 C          -1.4358  -12.1641  -43.1018 C.2       4 UNK         0.5000 
     51 O          -1.0296  -11.1020  -42.6282 O.2       4 UNK        -0.5000 
     52 CA         -0.6518  -12.8135  -44.2696 C.3       4 UNK         0.1400 
     53 CB         -1.1712  -12.2976  -45.6211 C.3       4 UNK        -0.1800 
     54 N           0.7819  -12.5368  -44.1825 N.am      4 UNK        -0.5000 
     55 C           1.5818  -12.9522  -43.1933 C.2       3 UNK         0.5000 
     56 O           1.2193  -13.7322  -42.3098 O.2       3 UNK        -0.5000 
     57 CA          3.0349  -12.4552  -43.2529 C.3       3 UNK         0.1400 
     58 CB          3.8727  -12.8858  -42.0352 C.3       3 UNK        -0.1800 
     59 N           3.6575  -12.9615  -44.4746 N.am      3 UNK        -0.5000 
     60 C           4.1073  -12.2079  -45.4842 C.2       2 UNK         0.5000 
     61 O           4.1027  -10.9760  -45.4777 O.2       2 UNK        -0.5000 
     62 CA          4.6396  -12.9554  -46.7230 C.3       2 UNK         0.1400 
     63 CB          6.1439  -13.2303  -46.5754 C.3       2 UNK        -0.1800 
     64 N           3.9562  -14.2176  -47.0284 N.am      2 UNK        -0.5000 
     65 C           2.6542  -14.3627  -47.3108 C.2       1 UNK         0.5000 
     66 O           1.8412  -13.4440  -47.2164 O.2       1 UNK        -0.5000 
     67 C          -0.0795  -22.8679  -47.4045 C.2       11 UNK         0.5000 
     68 O           0.1602  -23.9964  -47.8360 O.2       11 UNK        -0.5000 
     69 N          -1.3072  -22.3254  -47.3950 N.am      12 UNK        -0.5000 
     70 CA         -2.5049  -22.9576  -47.9556 C.3       12 UNK         0.1400 
     71 CB         -3.6804  -21.9729  -47.9037 C.3       12 UNK        -0.1800 
     72 C          -2.8797  -24.2958  -47.2926 C.2       12 UNK         0.5000 
     73 O          -3.3922  -25.1790  -47.9757 O.2       12 UNK        -0.5000 
     74 N          -2.5724  -24.4584  -45.9995 N.am      13 UNK        -0.5000 
     75 CA         -2.7416  -25.7099  -45.2567 C.3       13 UNK         0.1400 
     76 CB         -2.4142  -25.4690  -43.7751 C.3       13 UNK        -0.1800 
     77 C          -1.9057  -26.8847  -45.8082 C.2       13 UNK         0.5000 
     78 O          -2.3059  -28.0363  -45.6318 O.2       13 UNK        -0.5000 
     79 N          -0.7781  -26.5809  -46.4653 N.am      14 UNK        -0.5000 
     80 CA          0.1022  -27.5593  -47.0994 C.3       14 UNK         0.1400 
     81 CB          1.5600  -27.2163  -46.7522 C.3       14 UNK        -0.1800 
     82 C          -0.0939  -27.5922  -48.6247 C.2       14 UNK         0.5000 
     83 O          -0.1859  -28.6759  -49.2024 O.2       14 UNK        -0.5000 
     84 N          -0.1273  -26.4108  -49.2536 N.am      15 UNK        -0.5000 
     85 CA         -0.0698  -26.2416  -50.7068 C.3       15 UNK         0.1400 
     86 CB          0.6921  -24.9393  -50.9979 C.3       15 UNK        -0.1800 
     87 C          -1.4445  -26.1987  -51.3984 C.2       15 UNK         0.5000 
     88 O          -1.4839  -26.1747  -52.6297 O.2       15 UNK        -0.5000 
     89 N          -2.5361  -26.1240  -50.6230 N.am      16 UNK        -0.5000 
     90 CA         -3.9216  -25.8381  -51.0248 C.3       16 UNK         0.1400 
     91 CB         -4.4613  -26.8343  -52.0704 C.3       16 UNK        -0.1800 
     92 C          -4.0973  -24.3741  -51.4684 C.2       16 UNK         0.5000 
     93 O          -4.8760  -23.6414  -50.8567 O.2       16 UNK        -0.5000 
     94 N          -3.3502  -23.9707  -52.5077 N.am      17 UNK        -0.5000 
     95 CA         -3.1700  -22.6048  -53.0206 C.3       17 UNK         0.1400 
     96 CB         -2.3280  -21.7956  -52.0162 C.3       17 UNK        -0.1800 
     97 C          -4.4762  -21.8741  -53.3977 C.2       17 UNK         0.5000 
     98 O          -4.5215  -20.6421  -53.3557 O.2       17 UNK        -0.5000 
     99 N          -5.5284  -22.6473  -53.7065 N.am      18 UNK        -0.5000 
    100 CA        -6.9120  -22.2083  -53.9156 C.3       18 UNK         0.1400 
    101 CB        -7.0341  -21.4543  -55.2560 C.3       18 UNK        -0.1800 
    102 C         -7.4756  -21.4205  -52.7088 C.2       18 UNK         0.5000 
    103 O         -8.1847  -20.4326  -52.8960 O.2       18 UNK        -0.5000 
    104 N         -7.1076  -21.8531  -51.4909 N.am      19 UNK        -0.5000 
    105 CA        -7.3756  -21.2045  -50.2008 C.3       19 UNK         0.1400 
    106 CB        -8.8873  -21.1650  -49.8923 C.3       19 UNK        -0.1800 
    107 C         -6.6870  -19.8267  -50.0882 C.2       19 UNK         0.5000 
    108 O         -7.2813  -18.8692  -49.5908 O.2       19 UNK        -0.5000 
    109 N         -5.4390  -19.7686  -50.5758 N.am      20 UNK        -0.5000 
    110 CA        -4.5584  -18.5992  -50.6704 C.3       20 UNK         0.1400 
    111 CB        -4.2249  -18.0225  -49.2788 C.3       20 UNK        -0.1800 
    112 C         -5.0472  -17.5243  -51.6667 C.2       20 UNK         0.5000 
    113 O         -4.6552  -16.3626  -51.5486 O.2       20 UNK        -0.5000 
    114 N         -5.8562  -17.9270  -52.6586 N.am      21 UNK        -0.5000 
    115 CA        -6.2392  -17.0905  -53.8023 C.3       21 UNK         0.1400 
    116 CB        -7.5680  -17.5902  -54.3870 C.3       21 UNK        -0.1800 
    117 C         -5.1396  -17.0351  -54.8854 C.2       21 UNK         0.5000 
    118 O         -5.2126  -16.1864  -55.7751 O.2       21 UNK        -0.5000 
    119 N         -4.1458  -17.9289  -54.7787 N.am      22 UNK        -0.5000 
    120 CA        -2.8654  -17.9536  -55.5036 C.3       22 UNK         0.1400 
    121 C         -2.1550  -16.5665  -55.5504 C.2       22 UNK         0.5000 
    122 N         -1.6293  -16.1676  -56.7012 N.am      22 UNK        -0.7600 
    123 O         -2.0511  -15.8647  -54.5476 O.2       22 UNK        -0.5000 
    124 C124       -1.9690  -19.0370  -54.8503 C.3       23 UNK        -0.0398 
    125 S125       -0.3359  -19.3461  -55.6167 S.3       23 UNK        -0.2404 
    126 C126        0.8159  -18.3360  -54.6146 C.3       23 UNK        -0.0205 
    127 H127        3.9194  -18.8804  -45.9167 H         1 UNK         0.0600 
    128 H128        5.5853  -18.3931  -46.2400 H         1 UNK         0.0600 
    129 H129        4.7083  -19.3791  -47.4202 H         1 UNK         0.0600 
    130 H130        2.3198  -17.4719  -46.5388 H         1 UNK         0.3000 
    131 H131        1.1464  -15.8471  -47.3771 H         1 UNK         0.0600 
    132 H132        2.9837  -15.4735  -49.7743 H         1 UNK         0.0800 
    133 H133        2.0506  -16.9168  -49.6073 H         1 UNK         0.0800 
    134 H134       -0.9200  -16.6415  -49.1960 H         1 UNK         0.0800 
    135 H135       -1.5053  -15.9181  -50.6714 H         1 UNK         0.0800 
    136 H136       -0.0525  -16.4416  -52.8561 H         1 UNK         0.1150 
    137 H137        1.2148  -20.5325  -53.0408 H         1 UNK         0.1150 
    138 H138       -0.1453  -18.8525  -49.3326 H         1 UNK         0.1150 
    139 H139       -0.1287  -21.4746  -49.9109 H         1 UNK         0.0800 
    140 H140        0.9594  -21.9524  -51.1851 H         1 UNK         0.0800 
    141 H141        0.5554  -20.1671  -47.8302 H         1 UNK         0.0800 
    142 H142        2.1508  -20.1872  -47.1561 H         1 UNK         0.0800 
    143 H143        1.9459  -22.6633  -46.7389 H         1 UNK         0.0600 
    144 H144        0.5608  -20.6213  -45.2972 H         1 UNK         0.3000 
    145 H145       -0.3726  -22.6340  -42.4947 H         1 UNK         0.0600 
    146 H146        0.8707  -20.7944  -41.3411 H         1 UNK         0.0600 
    147 H147        1.9691  -21.9732  -42.0419 H         1 UNK         0.0600 
    148 H148        1.7236  -20.4287  -42.8421 H         1 UNK         0.0600 
    149 H149       -0.7895  -19.8834  -42.9585 H         1 UNK         0.3000 
    150 H150       -3.8744  -20.1908  -44.8060 H         1 UNK         0.0600 
    151 H151       -4.5653  -18.7161  -42.9428 H         1 UNK         0.0600 
    152 H152       -4.3690  -20.3623  -42.3581 H         1 UNK         0.0600 
    153 H153       -3.1330  -19.1557  -42.0168 H         1 UNK         0.0600 
    154 H154       -2.4198  -17.8916  -44.0199 H         1 UNK         0.3000 
    155 H155       -0.3818  -17.5903  -46.9600 H         1 UNK         0.0600 
    156 H156       -2.6251  -15.9464  -45.6680 H         1 UNK         0.0600 
    157 H157       -2.5626  -16.4590  -47.3402 H         1 UNK         0.0600 
    158 H158       -1.3701  -15.3215  -46.7367 H         1 UNK         0.0600 
    159 H159       -0.5202  -16.2781  -44.3610 H         1 UNK         0.3000 
    160 H160        1.9869  -18.1422  -42.7962 H         1 UNK         0.0600 
    161 H161        2.5235  -15.5104  -44.2465 H         1 UNK         0.0600 
    162 H162        3.5543  -16.9338  -44.2321 H         1 UNK         0.0600 
    163 H163        3.3225  -16.0227  -42.7532 H         1 UNK         0.0600 
    164 H164        0.8649  -15.5355  -42.2772 H         1 UNK         0.3000 
    165 H165       -1.9030  -16.8649  -40.3690 H         1 UNK         0.0600 
    166 H166       -0.9316  -15.1627  -38.8801 H         1 UNK         0.0600 
    167 H167        0.1865  -16.5090  -39.0254 H         1 UNK         0.0600 
    168 H168        0.4962  -15.0156  -39.9030 H         1 UNK         0.0600 
    169 H169       -1.5439  -14.2049  -41.1258 H         1 UNK         0.3000 
    170 H170       -3.1342  -14.0288  -44.1917 H         1 UNK         0.0600 
    171 H171       -5.1983  -14.8258  -43.0801 H         1 UNK         0.0600 
    172 H172       -4.8186  -13.8816  -41.6450 H         1 UNK         0.0600 
    173 H173       -5.1748  -13.0730  -43.1717 H         1 UNK         0.0600 
    174 H174       -3.0409  -12.2707  -41.8885 H         1 UNK         0.3000 
    175 H175       -0.7631  -13.8967  -44.2440 H         1 UNK         0.0600 
    176 H176       -1.0118  -11.2239  -45.7278 H         1 UNK         0.0600 
    177 H177       -0.6708  -12.7939  -46.4524 H         1 UNK         0.0600 
    178 H178       -2.2399  -12.4802  -45.7350 H         1 UNK         0.0600 
    179 H179        1.1668  -11.9327  -44.8945 H         1 UNK         0.3000 
    180 H180        2.9937  -11.3641  -43.2567 H         1 UNK         0.0600 
    181 H181        3.9625  -13.9686  -41.9606 H         1 UNK         0.0600 
    182 H182        3.4237  -12.5289  -41.1075 H         1 UNK         0.0600 
    183 H183        4.8796  -12.4719  -42.0883 H         1 UNK         0.0600 
    184 H184        3.6797  -13.9641  -44.5868 H         1 UNK         0.3000 
    185 H185        4.4978  -12.2963  -47.5819 H         1 UNK         0.0600 
    186 H186        6.6934  -12.3093  -46.3754 H         1 UNK         0.0600 
    187 H187        6.3475  -13.9199  -45.7551 H         1 UNK         0.0600 
    188 H188        6.5575  -13.6624  -47.4870 H         1 UNK         0.0600 
    189 H189        4.5484  -15.0252  -47.1950 H         1 UNK         0.3000 
    190 H190       -1.4358  -21.3920  -47.0104 H         1 UNK         0.3000 
    191 H191       -2.2956  -23.1717  -49.0058 H         1 UNK         0.0600 
    192 H192       -3.4652  -21.0819  -48.4916 H         1 UNK         0.0600 
    193 H193       -4.5863  -22.4204  -48.3143 H         1 UNK         0.0600 
    194 H194       -3.8979  -21.6602  -46.8821 H         1 UNK         0.0600 
    195 H195       -2.2350  -23.6576  -45.4727 H         1 UNK         0.3000 
    196 H196       -3.7923  -25.9973  -45.3301 H         1 UNK         0.0600 
    197 H197       -2.5293  -26.3844  -43.1933 H         1 UNK         0.0600 
    198 H198       -3.0806  -24.7243  -43.3400 H         1 UNK         0.0600 
    199 H199       -1.3894  -25.1211  -43.6424 H         1 UNK         0.0600 
    200 H200       -0.5336  -25.6053  -46.5864 H         1 UNK         0.3000 
    201 H201       -0.1017  -28.5614  -46.7165 H         1 UNK         0.0600 
    202 H202        1.7263  -27.2584  -45.6756 H         1 UNK         0.0600 
    203 H203        1.8341  -26.2164  -47.0915 H         1 UNK         0.0600 
    204 H204        2.2496  -27.9226  -47.2161 H         1 UNK         0.0600 
    205 H205       -0.0356  -25.5580  -48.7041 H         1 UNK         0.3000 
    206 H206        0.4919  -27.0679  -51.1475 H         1 UNK         0.0600 
    207 H207        1.6839  -24.9486  -50.5453 H         1 UNK         0.0600 
    208 H208        0.8249  -24.7862  -52.0696 H         1 UNK         0.0600 
    209 H209        0.1537  -24.0769  -50.6057 H         1 UNK         0.0600 
    210 H210       -2.3937  -26.1111  -49.6197 H         1 UNK         0.3000 
    211 H211       -4.5295  -25.9707  -50.1296 H         1 UNK         0.0600 
    212 H212       -3.9685  -26.7379  -53.0376 H         1 UNK         0.0600 
    213 H213       -5.5273  -26.6756  -52.2367 H         1 UNK         0.0600 
    214 H214       -4.3359  -27.8629  -51.7324 H         1 UNK         0.0600 
    215 H215       -2.7369  -24.6728  -52.9123 H         1 UNK         0.3000 
    216 H216       -2.5955  -22.6932  -53.9435 H         1 UNK         0.0600 
    217 H217       -2.0521  -20.8205  -52.4165 H         1 UNK         0.0600 
    218 H218       -1.4038  -22.3232  -51.7880 H         1 UNK         0.0600 
    219 H219       -2.8594  -21.6289  -51.0790 H         1 UNK         0.0600 
    220 H220       -5.3819  -23.6465  -53.7016 H         1 UNK         0.3000 
    221 H221       -7.5189  -23.1116  -53.9900 H         1 UNK         0.0600 
    222 H222       -6.4064  -20.5640  -55.2793 H         1 UNK         0.0600 
    223 H223       -6.7329  -22.0902  -56.0883 H         1 UNK         0.0600 
    224 H224       -8.0619  -21.1425  -55.4451 H         1 UNK         0.0600 
    225 H225       -6.4726  -22.6452  -51.4386 H         1 UNK         0.3000 
    226 H226       -6.9072  -21.8363  -49.4448 H         1 UNK         0.0600 
    227 H227       -9.3338  -22.1552  -49.9819 H         1 UNK         0.0600 
    228 H228       -9.0665  -20.8197  -48.8735 H         1 UNK         0.0600 
    229 H229       -9.4240  -20.4923  -50.5615 H         1 UNK         0.0600 
    230 H230       -5.0793  -20.6054  -51.0132 H         1 UNK         0.3000 
    231 H231       -3.6233  -18.9735  -51.0900 H         1 UNK         0.0600 
    232 H232       -5.0940  -17.5624  -48.8088 H         1 UNK         0.0600 
    233 H233       -3.4547  -17.2558  -49.3570 H         1 UNK         0.0600 
    234 H234       -3.8451  -18.7899  -48.6058 H         1 UNK         0.0600 
    235 H235       -6.1302  -18.9002  -52.6943 H         1 UNK         0.3000 
    236 H236       -6.3981  -16.0689  -53.4509 H         1 UNK         0.0600 
    237 H237       -8.3473  -17.6226  -53.6254 H         1 UNK         0.0600 
    238 H238       -7.9169  -16.9296  -55.1816 H         1 UNK         0.0600 
    239 H239       -7.4734  -18.5876  -54.8119 H         1 UNK         0.0600 
    240 H240       -4.2393  -18.6262  -54.0504 H         1 UNK         0.3000 
    241 H241       -3.0880  -18.2604  -56.5268 H         1 UNK         0.0600 
    242 H242       -1.6877  -16.7337  -57.5334 H         1 UNK         0.3800 
    243 H243       -1.1623  -15.2753  -56.7422 H         1 UNK         0.3800 
    244 H244       -2.4918  -19.9918  -54.8991 H         1 UNK         0.0800 
    245 H245       -1.8585  -18.8308  -53.7867 H         1 UNK         0.0800 
    246 H246        1.8390  -18.6262  -54.8570 H         1 UNK         0.0800 
    247 H247        0.7198  -17.2923  -54.9175 H         1 UNK         0.0800 
@<TRIPOS>BOND
     1    1    2 1    
     2    1  127 1    
     3    1  128 1    
     4    1  129 1    
     5    2    3 2    
     6    2    4 am   BACKBONE|DICT|INTERRES
     7    4    5 1    
     8    4  130 1    
     9    5    6 1    
    10    5   65 1    
    11    5  131 1    
    12    6    7 1    
    13    6  132 1    
    14    6  133 1    
    15    7    8 1    
    16    8    9 1    
    17    8  134 1    
    18    8  135 1    
    19    9   10 ar   
    20    9   14 ar   
    21   10   11 ar   
    22   10  136 1    
    23   11   12 ar   
    24   11  126 1    
    25   12   13 ar   
    26   12  137 1    
    27   13   14 ar   
    28   13   15 1    
    29   14  138 1    
    30   15   16 1    
    31   15  139 1    
    32   15  140 1    
    33   16   17 1    
    34   17   18 1    
    35   17  141 1    
    36   17  142 1    
    37   18   19 1    
    38   18   67 1    
    39   18  143 1    
    40   19   20 am   BACKBONE|DICT|INTERRES
    41   19  144 1    
    42   20   21 2    
    43   20   22 1    
    44   22   23 1    
    45   22   24 1    
    46   22  145 1    
    47   23  146 1    
    48   23  147 1    
    49   23  148 1    
    50   24   25 am   BACKBONE|DICT|INTERRES
    51   24  149 1    
    52   25   26 2    
    53   25   27 1    
    54   27   28 1    
    55   27   29 1    
    56   27  150 1    
    57   28  151 1    
    58   28  152 1    
    59   28  153 1    
    60   29   30 am   BACKBONE|DICT|INTERRES
    61   29  154 1    
    62   30   31 2    
    63   30   32 1    
    64   32   33 1    
    65   32   34 1    
    66   32  155 1    
    67   33  156 1    
    68   33  157 1    
    69   33  158 1    
    70   34   35 am   BACKBONE|DICT|INTERRES
    71   34  159 1    
    72   35   36 2    
    73   35   37 1    
    74   37   38 1    
    75   37   39 1    
    76   37  160 1    
    77   38  161 1    
    78   38  162 1    
    79   38  163 1    
    80   39   40 am   BACKBONE|DICT|INTERRES
    81   39  164 1    
    82   40   41 2    
    83   40   42 1    
    84   42   43 1    
    85   42   44 1    
    86   42  165 1    
    87   43  166 1    
    88   43  167 1    
    89   43  168 1    
    90   44   45 am   BACKBONE|DICT|INTERRES
    91   44  169 1    
    92   45   46 2    
    93   45   47 1    
    94   47   48 1    
    95   47   49 1    
    96   47  170 1    
    97   48  171 1    
    98   48  172 1    
    99   48  173 1    
   100   49   50 am   BACKBONE|DICT|INTERRES
   101   49  174 1    
   102   50   51 2    
   103   50   52 1    
   104   52   53 1    
   105   52   54 1    
   106   52  175 1    
   107   53  176 1    
   108   53  177 1    
   109   53  178 1    
   110   54   55 am   BACKBONE|DICT|INTERRES
   111   54  179 1    
   112   55   56 2    
   113   55   57 1    
   114   57   58 1    
   115   57   59 1    
   116   57  180 1    
   117   58  181 1    
   118   58  182 1    
   119   58  183 1    
   120   59   60 am   BACKBONE|DICT|INTERRES
   121   59  184 1    
   122   60   61 2    
   123   60   62 1    
   124   62   63 1    
   125   62   64 1    
   126   62  185 1    
   127   63  186 1    
   128   63  187 1    
   129   63  188 1    
   130   64   65 am   BACKBONE|DICT|INTERRES
   131   64  189 1    
   132   65   66 2    
   133   67   68 2    
   134   67   69 am   BACKBONE|DICT|INTERRES
   135   69   70 1    
   136   69  190 1    
   137   70   71 1    
   138   70   72 1    
   139   70  191 1    
   140   71  192 1    
   141   71  193 1    
   142   71  194 1    
   143   72   73 2    
   144   72   74 am   BACKBONE|DICT|INTERRES
   145   74   75 1    
   146   74  195 1    
   147   75   76 1    
   148   75   77 1    
   149   75  196 1    
   150   76  197 1    
   151   76  198 1    
   152   76  199 1    
   153   77   78 2    
   154   77   79 am   BACKBONE|DICT|INTERRES
   155   79   80 1    
   156   79  200 1    
   157   80   81 1    
   158   80   82 1    
   159   80  201 1    
   160   81  202 1    
   161   81  203 1    
   162   81  204 1    
   163   82   83 2    
   164   82   84 am   BACKBONE|DICT|INTERRES
   165   84   85 1    
   166   84  205 1    
   167   85   86 1    
   168   85   87 1    
   169   85  206 1    
   170   86  207 1    
   171   86  208 1    
   172   86  209 1    
   173   87   88 2    
   174   87   89 am   BACKBONE|DICT|INTERRES
   175   89   90 1    
   176   89  210 1    
   177   90   91 1    
   178   90   92 1    
   179   90  211 1    
   180   91  212 1    
   181   91  213 1    
   182   91  214 1    
   183   92   93 2    
   184   92   94 am   BACKBONE|DICT|INTERRES
   185   94   95 1    
   186   94  215 1    
   187   95   96 1    
   188   95   97 1    
   189   95  216 1    
   190   96  217 1    
   191   96  218 1    
   192   96  219 1    
   193   97   98 2    
   194   97   99 am   BACKBONE|DICT|INTERRES
   195   99  100 1    
   196   99  220 1    
   197  100  101 1    
   198  100  102 1    
   199  100  221 1    
   200  101  222 1    
   201  101  223 1    
   202  101  224 1    
   203  102  103 2    
   204  102  104 am   BACKBONE|DICT|INTERRES
   205  104  105 1    
   206  104  225 1    
   207  105  106 1    
   208  105  107 1    
   209  105  226 1    
   210  106  227 1    
   211  106  228 1    
   212  106  229 1    
   213  107  108 2    
   214  107  109 am   BACKBONE|DICT|INTERRES
   215  109  110 1    
   216  109  230 1    
   217  110  111 1    
   218  110  112 1    
   219  110  231 1    
   220  111  232 1    
   221  111  233 1    
   222  111  234 1    
   223  112  113 2    
   224  112  114 am   BACKBONE|DICT|INTERRES
   225  114  115 1    
   226  114  235 1    
   227  115  116 1    
   228  115  117 1    
   229  115  236 1    
   230  116  237 1    
   231  116  238 1    
   232  116  239 1    
   233  117  118 2    
   234  117  119 am   BACKBONE|DICT|INTERRES
   235  119  120 1    
   236  119  240 1    
   237  120  121 1    
   238  120  124 1    
   239  120  241 1    
   240  121  122 am   BACKBONE|DICT|INTERRES
   241  121  123 2    
   242  122  242 1    
   243  122  243 1    
   244  124  125 1    
   245  124  244 1    
   246  124  245 1    
   247  125  126 1    
   248  126  246 1    
   249  126  247 1    
@<TRIPOS>SUBSTRUCTURE
     1 UNK         1 GROUP             0       ****    0 ROOT    
