@<TRIPOS>MOLECULE
3R540
247   249    1
SMALL
USER_CHARGES


@<TRIPOS>ATOM
      1 CA         -3.4970  -14.2282  -48.5711 C.3       0 UNK        -0.1800 
      2 C          -2.2912  -13.4352  -48.0899 C.2       0 UNK         0.5000 
      3 O          -2.3514  -12.2080  -48.0087 O.2       0 UNK        -0.5000 
      4 N          -1.1996  -14.1325  -47.7492 N.am      1 UNK        -0.5000 
      5 CA          0.0575  -13.5483  -47.2617 C.3       1 UNK         0.1400 
      6 C6          1.2245  -14.5627  -47.3033 C.3       23 UNK        -0.0398 
      7 S7          0.9508  -16.0480  -46.2740 S.3       23 UNK        -0.2404 
      8 C8          0.9709  -17.3771  -47.5114 C.3       23 UNK        -0.0205 
      9 C9         -0.3570  -17.4772  -48.2412 C.ar      23 UNK        -0.0193 
     10 C10        -0.5114  -16.9460  -49.5237 C.ar      23 UNK        -0.1150 
     11 C11        -1.7309  -17.0669  -50.1961 C.ar      23 UNK        -0.0193 
     12 C12        -2.7890  -17.7519  -49.5885 C.ar      23 UNK        -0.1150 
     13 C13        -2.6520  -18.2695  -48.2968 C.ar      23 UNK        -0.0193 
     14 C14        -1.4374  -18.1096  -47.6238 C.ar      23 UNK        -0.1150 
     15 C15        -3.8284  -18.9609  -47.6188 C.3       23 UNK        -0.0205 
     16 S16        -3.8086  -20.7687  -47.8550 S.3       23 UNK        -0.2404 
     17 C17        -2.6535  -21.2913  -46.5443 C.3       23 UNK        -0.0398 
     18 CA         -1.9472  -22.6355  -46.8543 C.3       11 UNK         0.1400 
     19 N          -0.5526  -22.6348  -46.4066 N.am      11 UNK        -0.5000 
     20 C           0.3613  -23.5648  -46.7170 C.2       10 UNK         0.5000 
     21 O           0.1454  -24.5158  -47.4665 O.2       10 UNK        -0.5000 
     22 CA          1.7310  -23.4302  -46.0281 C.3       10 UNK         0.1400 
     23 CB          2.6416  -22.4777  -46.8183 C.3       10 UNK        -0.1800 
     24 N           1.6030  -22.9583  -44.6468 N.am      10 UNK        -0.5000 
     25 C           1.0765  -23.6914  -43.6521 C.2       9 UNK         0.5000 
     26 O           0.7002  -24.8549  -43.7927 O.2       9 UNK        -0.5000 
     27 CA          0.8833  -23.0001  -42.2869 C.3       9 UNK         0.1400 
     28 CB          2.1402  -23.1633  -41.4197 C.3       9 UNK        -0.1800 
     29 N           0.5562  -21.5773  -42.3987 N.am      9 UNK        -0.5000 
     30 C          -0.5135  -21.0787  -43.0343 C.2       8 UNK         0.5000 
     31 O          -1.3969  -21.7796  -43.5283 O.2       8 UNK        -0.5000 
     32 CA         -0.5869  -19.5477  -43.2027 C.3       8 UNK         0.1400 
     33 CB         -1.5822  -18.9414  -42.2025 C.3       8 UNK        -0.1800 
     34 N           0.6977  -18.8476  -43.0830 N.am      8 UNK        -0.5000 
     35 C           1.7780  -19.0399  -43.8567 C.2       7 UNK         0.5000 
     36 O           1.8443  -19.9140  -44.7227 O.2       7 UNK        -0.5000 
     37 CA          2.9543  -18.0745  -43.6237 C.3       7 UNK         0.1400 
     38 CB          3.9936  -18.0999  -44.7607 C.3       7 UNK        -0.1800 
     39 N           2.4251  -16.7236  -43.4562 N.am      7 UNK        -0.5000 
     40 C           2.9603  -15.7427  -42.7263 C.2       6 UNK         0.5000 
     41 O           4.0095  -15.8460  -42.0863 O.2       6 UNK        -0.5000 
     42 CA          2.1370  -14.4423  -42.6612 C.3       6 UNK         0.1400 
     43 CB          1.2780  -14.4252  -41.3860 C.3       6 UNK        -0.1800 
     44 N           2.9680  -13.2410  -42.6869 N.am      6 UNK        -0.5000 
     45 C           3.7047  -12.8406  -43.7299 C.2       5 UNK         0.5000 
     46 O           3.7782  -13.4505  -44.7988 O.2       5 UNK        -0.5000 
     47 CA          4.4546  -11.5060  -43.5605 C.3       5 UNK         0.1400 
     48 CB          5.8896  -11.5861  -44.1083 C.3       5 UNK        -0.1800 
     49 N           3.7408  -10.4316  -44.2489 N.am      5 UNK        -0.5000 
     50 C           2.6021   -9.8694  -43.8226 C.2       4 UNK         0.5000 
     51 O           2.0794  -10.1407  -42.7393 O.2       4 UNK        -0.5000 
     52 CA          1.9304   -8.8285  -44.7395 C.3       4 UNK         0.1400 
     53 CB          2.6090   -8.6513  -46.1135 C.3       4 UNK        -0.1800 
     54 N           0.5438   -9.2309  -44.9427 N.am      4 UNK        -0.5000 
     55 C          -0.5342   -8.4452  -44.8250 C.2       3 UNK         0.5000 
     56 O          -0.4747   -7.2392  -44.5801 O.2       3 UNK        -0.5000 
     57 CA         -1.9191   -9.1060  -45.0146 C.3       3 UNK         0.1400 
     58 CB         -2.4880   -8.7717  -46.4024 C.3       3 UNK        -0.1800 
     59 N          -1.8950  -10.5616  -44.8591 N.am      3 UNK        -0.5000 
     60 C          -1.6851  -11.2072  -43.7030 C.2       2 UNK         0.5000 
     61 O          -1.6557  -10.6443  -42.6082 O.2       2 UNK        -0.5000 
     62 CA         -1.4329  -12.7290  -43.7751 C.3       2 UNK         0.1400 
     63 CB         -2.6315  -13.5124  -43.2189 C.3       2 UNK        -0.1800 
     64 N          -1.1149  -13.2428  -45.1111 N.am      2 UNK        -0.5000 
     65 C          -0.0657  -12.8896  -45.8694 C.2       1 UNK         0.5000 
     66 O           0.7683  -12.0550  -45.5226 O.2       1 UNK        -0.5000 
     67 C          -2.7179  -23.8252  -46.2523 C.2       11 UNK         0.5000 
     68 O          -3.4300  -24.5190  -46.9770 O.2       11 UNK        -0.5000 
     69 N          -2.5220  -24.0628  -44.9468 N.am      12 UNK        -0.5000 
     70 CA         -3.0864  -25.1913  -44.2070 C.3       12 UNK         0.1400 
     71 CB         -2.7814  -25.0322  -42.7099 C.3       12 UNK        -0.1800 
     72 C          -2.5878  -26.5493  -44.7337 C.2       12 UNK         0.5000 
     73 O          -3.4027  -27.4463  -44.9497 O.2       12 UNK        -0.5000 
     74 N          -1.2743  -26.6590  -44.9866 N.am      13 UNK        -0.5000 
     75 CA         -0.6327  -27.8371  -45.5794 C.3       13 UNK         0.1400 
     76 CB          0.8930  -27.6579  -45.5549 C.3       13 UNK        -0.1800 
     77 C          -1.1199  -28.1365  -47.0108 C.2       13 UNK         0.5000 
     78 O          -1.2794  -29.3045  -47.3673 O.2       13 UNK        -0.5000 
     79 N          -1.3827  -27.0778  -47.7893 N.am      14 UNK        -0.5000 
     80 CA         -1.9609  -27.1448  -49.1322 C.3       14 UNK         0.1400 
     81 CB         -1.6325  -25.8393  -49.8766 C.3       14 UNK        -0.1800 
     82 C          -3.4843  -27.3905  -49.1392 C.2       14 UNK         0.5000 
     83 O          -4.0480  -27.5626  -50.2187 O.2       14 UNK        -0.5000 
     84 N          -4.1366  -27.3615  -47.9660 N.am      15 UNK        -0.5000 
     85 CA         -5.5885  -27.4412  -47.7616 C.3       15 UNK         0.1400 
     86 CB         -6.1182  -28.8446  -48.1226 C.3       15 UNK        -0.1800 
     87 C          -6.3421  -26.2985  -48.4793 C.2       15 UNK         0.5000 
     88 O          -7.3605  -26.5320  -49.1322 O.2       15 UNK        -0.5000 
     89 N          -5.7869  -25.0839  -48.3605 N.am      16 UNK        -0.5000 
     90 CA         -6.2159  -23.8102  -48.9488 C.3       16 UNK         0.1400 
     91 CB         -7.6672  -23.4598  -48.5597 C.3       16 UNK        -0.1800 
     92 C          -5.9704  -23.6824  -50.4676 C.2       16 UNK         0.5000 
     93 O          -6.2902  -22.6367  -51.0369 O.2       16 UNK        -0.5000 
     94 N          -5.3697  -24.7004  -51.1054 N.am      17 UNK        -0.5000 
     95 CA         -5.0674  -24.7096  -52.5419 C.3       17 UNK         0.1400 
     96 CB         -4.7298  -26.1375  -52.9945 C.3       17 UNK        -0.1800 
     97 C          -3.9416  -23.7394  -52.9483 C.2       17 UNK         0.5000 
     98 O          -3.8189  -23.4314  -54.1334 O.2       17 UNK        -0.5000 
     99 N          -3.1595  -23.2471  -51.9743 N.am      18 UNK        -0.5000 
    100 CA        -2.0885  -22.2633  -52.1668 C.3       18 UNK         0.1400 
    101 CB        -1.3968  -21.9855  -50.8239 C.3       18 UNK        -0.1800 
    102 C         -2.5731  -20.9464  -52.8051 C.2       18 UNK         0.5000 
    103 O         -1.8329  -20.3443  -53.5811 O.2       18 UNK        -0.5000 
    104 N         -3.8306  -20.5625  -52.5376 N.am      19 UNK        -0.5000 
    105 CA        -4.4929  -19.4015  -53.1358 C.3       19 UNK         0.1400 
    106 CB        -5.8746  -19.2260  -52.4887 C.3       19 UNK        -0.1800 
    107 C         -4.6133  -19.4735  -54.6741 C.2       19 UNK         0.5000 
    108 O         -4.5965  -18.4297  -55.3295 O.2       19 UNK        -0.5000 
    109 N         -4.6863  -20.6915  -55.2331 N.am      20 UNK        -0.5000 
    110 CA        -4.6983  -20.9265  -56.6791 C.3       20 UNK         0.1400 
    111 CB        -5.2375  -22.3352  -56.9708 C.3       20 UNK        -0.1800 
    112 C         -3.3121  -20.7280  -57.3235 C.2       20 UNK         0.5000 
    113 O         -3.2455  -20.4062  -58.5108 O.2       20 UNK        -0.5000 
    114 N         -2.2365  -20.9007  -56.5395 N.am      21 UNK        -0.5000 
    115 CA        -0.8675  -20.5837  -56.9485 C.3       21 UNK         0.1400 
    116 CB         0.1347  -21.3967  -56.1128 C.3       21 UNK        -0.1800 
    117 C         -0.5896  -19.0730  -56.8427 C.2       21 UNK         0.5000 
    118 O          0.1229  -18.5335  -57.6908 O.2       21 UNK        -0.5000 
    119 N         -1.1736  -18.4154  -55.8293 N.am      22 UNK        -0.5000 
    120 CA        -1.1736  -16.9508  -55.6745 C.3       22 UNK         0.1400 
    121 C         -1.9240  -16.2248  -56.8269 C.2       22 UNK         0.5000 
    122 N         -3.1330  -16.6541  -57.1731 N.am      22 UNK        -0.7600 
    123 O         -1.4104  -15.2696  -57.4040 O.2       22 UNK        -0.5000 
    124 C124       -1.7544  -16.4870  -54.3149 C.3       23 UNK        -0.0398 
    125 S125       -0.9594  -17.2378  -52.8586 S.3       23 UNK        -0.2404 
    126 C126       -1.9214  -16.4140  -51.5549 C.3       23 UNK        -0.0205 
    127 H127       -3.5530  -14.2046  -49.6596 H         1 UNK         0.0600 
    128 H128       -4.4162  -13.8005  -48.1700 H         1 UNK         0.0600 
    129 H129       -3.4438  -15.2688  -48.2503 H         1 UNK         0.0600 
    130 H130       -1.2046  -15.1407  -47.8318 H         1 UNK         0.3000 
    131 H131        0.3164  -12.7405  -47.9498 H         1 UNK         0.0600 
    132 H132        2.1517  -14.0889  -46.9753 H         1 UNK         0.0800 
    133 H133        1.4061  -14.8601  -48.3363 H         1 UNK         0.0800 
    134 H134        1.1736  -18.3227  -47.0058 H         1 UNK         0.0800 
    135 H135        1.7948  -17.2286  -48.2110 H         1 UNK         0.0800 
    136 H136        0.3123  -16.4327  -49.9999 H         1 UNK         0.1150 
    137 H137       -3.7315  -17.8560  -50.1077 H         1 UNK         0.1150 
    138 H138       -1.3213  -18.4699  -46.6132 H         1 UNK         0.1150 
    139 H139       -3.8427  -18.7264  -46.5531 H         1 UNK         0.0800 
    140 H140       -4.7641  -18.5710  -48.0227 H         1 UNK         0.0800 
    141 H141       -3.1833  -21.3082  -45.5889 H         1 UNK         0.0800 
    142 H142       -1.9012  -20.5157  -46.4347 H         1 UNK         0.0800 
    143 H143       -1.9206  -22.7790  -47.9364 H         1 UNK         0.0600 
    144 H144       -0.2920  -21.9211  -45.7423 H         1 UNK         0.3000 
    145 H145        2.1999  -24.4168  -46.0127 H         1 UNK         0.0600 
    146 H146        3.6212  -22.3871  -46.3484 H         1 UNK         0.0600 
    147 H147        2.7999  -22.8442  -47.8336 H         1 UNK         0.0600 
    148 H148        2.2129  -21.4773  -46.8952 H         1 UNK         0.0600 
    149 H149        1.8483  -21.9889  -44.4747 H         1 UNK         0.3000 
    150 H150        0.0510  -23.4929  -41.7804 H         1 UNK         0.0600 
    151 H151        2.3974  -24.2170  -41.2994 H         1 UNK         0.0600 
    152 H152        1.9874  -22.7516  -40.4215 H         1 UNK         0.0600 
    153 H153        3.0026  -22.6630  -41.8625 H         1 UNK         0.0600 
    154 H154        1.2306  -20.9266  -42.0251 H         1 UNK         0.3000 
    155 H155       -0.9637  -19.3594  -44.2101 H         1 UNK         0.0600 
    156 H156       -1.2425  -19.0640  -41.1730 H         1 UNK         0.0600 
    157 H157       -2.5599  -19.4185  -42.2846 H         1 UNK         0.0600 
    158 H158       -1.7272  -17.8761  -42.3854 H         1 UNK         0.0600 
    159 H159        0.7432  -18.1243  -42.3799 H         1 UNK         0.3000 
    160 H160        3.4413  -18.3898  -42.6989 H         1 UNK         0.0600 
    161 H161        3.5513  -17.8088  -45.7139 H         1 UNK         0.0600 
    162 H162        4.4169  -19.0975  -44.8838 H         1 UNK         0.0600 
    163 H163        4.8206  -17.4201  -44.5552 H         1 UNK         0.0600 
    164 H164        1.5783  -16.5361  -43.9787 H         1 UNK         0.3000 
    165 H165        1.4732  -14.3989  -43.5273 H         1 UNK         0.0600 
    166 H166        0.7121  -13.4985  -41.2939 H         1 UNK         0.0600 
    167 H167        0.5603  -15.2465  -41.3880 H         1 UNK         0.0600 
    168 H168        1.8906  -14.5269  -40.4890 H         1 UNK         0.0600 
    169 H169        2.9533  -12.6675  -41.8561 H         1 UNK         0.3000 
    170 H170        4.5171  -11.2656  -42.4968 H         1 UNK         0.0600 
    171 H171        6.4464  -12.3887  -43.6230 H         1 UNK         0.0600 
    172 H172        5.9048  -11.7786  -45.1820 H         1 UNK         0.0600 
    173 H173        6.4323  -10.6582  -43.9271 H         1 UNK         0.0600 
    174 H174        4.0846  -10.1840  -45.1650 H         1 UNK         0.3000 
    175 H175        1.9740   -7.8763  -44.2072 H         1 UNK         0.0600 
    176 H176        2.6115   -9.5796  -46.6869 H         1 UNK         0.0600 
    177 H177        2.0883   -7.9004  -46.7082 H         1 UNK         0.0600 
    178 H178        3.6404   -8.3127  -46.0081 H         1 UNK         0.0600 
    179 H179        0.4145  -10.2265  -45.1051 H         1 UNK         0.3000 
    180 H180       -2.5888   -8.6902  -44.2589 H         1 UNK         0.0600 
    181 H181       -3.4938   -9.1743  -46.5242 H         1 UNK         0.0600 
    182 H182       -1.8653   -9.1797  -47.2000 H         1 UNK         0.0600 
    183 H183       -2.5498   -7.6929  -46.5516 H         1 UNK         0.0600 
    184 H184       -1.9237  -11.1051  -45.7114 H         1 UNK         0.3000 
    185 H185       -0.5697  -12.9286  -43.1405 H         1 UNK         0.0600 
    186 H186       -2.4165  -14.5802  -43.1686 H         1 UNK         0.0600 
    187 H187       -2.8790  -13.1855  -42.2080 H         1 UNK         0.0600 
    188 H188       -3.5206  -13.3756  -43.8358 H         1 UNK         0.0600 
    189 H189       -1.7528  -13.9268  -45.4909 H         1 UNK         0.3000 
    190 H190       -1.9571  -23.4055  -44.4167 H         1 UNK         0.3000 
    191 H191       -4.1705  -25.1609  -44.3370 H         1 UNK         0.0600 
    192 H192       -3.2489  -25.8297  -42.1306 H         1 UNK         0.0600 
    193 H193       -3.1627  -24.0847  -42.3279 H         1 UNK         0.0600 
    194 H194       -1.7107  -25.0673  -42.5093 H         1 UNK         0.0600 
    195 H195       -0.6598  -25.8906  -44.7325 H         1 UNK         0.3000 
    196 H196       -0.8838  -28.6994  -44.9578 H         1 UNK         0.0600 
    197 H197        1.2047  -26.7878  -46.1343 H         1 UNK         0.0600 
    198 H198        1.2583  -27.5302  -44.5355 H         1 UNK         0.0600 
    199 H199        1.3971  -28.5302  -45.9738 H         1 UNK         0.0600 
    200 H200       -1.1613  -26.1506  -47.4426 H         1 UNK         0.3000 
    201 H201       -1.4950  -27.9711  -49.6733 H         1 UNK         0.0600 
    202 H202       -2.0846  -24.9756  -49.3878 H         1 UNK         0.0600 
    203 H203       -1.9975  -25.8661  -50.9039 H         1 UNK         0.0600 
    204 H204       -0.5561  -25.6719  -49.9232 H         1 UNK         0.0600 
    205 H205       -3.5926  -27.1997  -47.1273 H         1 UNK         0.3000 
    206 H206       -5.7549  -27.2919  -46.6934 H         1 UNK         0.0600 
    207 H207       -5.5714  -29.6210  -47.5865 H         1 UNK         0.0600 
    208 H208       -7.1707  -28.9446  -47.8536 H         1 UNK         0.0600 
    209 H209       -6.0332  -29.0505  -49.1903 H         1 UNK         0.0600 
    210 H210       -4.9245  -25.0168  -47.8189 H         1 UNK         0.3000 
    211 H211       -5.5739  -23.0597  -48.4880 H         1 UNK         0.0600 
    212 H212       -7.9098  -22.4353  -48.8453 H         1 UNK         0.0600 
    213 H213       -7.8177  -23.5389  -47.4825 H         1 UNK         0.0600 
    214 H214       -8.3906  -24.1107  -49.0510 H         1 UNK         0.0600 
    215 H215       -5.1396  -25.5398  -50.5876 H         1 UNK         0.3000 
    216 H216       -5.9694  -24.3966  -53.0729 H         1 UNK         0.0600 
    217 H217       -3.7768  -26.4754  -52.5860 H         1 UNK         0.0600 
    218 H218       -4.6523  -26.1917  -54.0817 H         1 UNK         0.0600 
    219 H219       -5.5003  -26.8454  -52.6879 H         1 UNK         0.0600 
    220 H220       -3.3375  -23.5476  -51.0285 H         1 UNK         0.3000 
    221 H221       -1.3550  -22.7047  -52.8456 H         1 UNK         0.0600 
    222 H222       -0.9786  -22.8955  -50.3931 H         1 UNK         0.0600 
    223 H223       -2.0876  -21.5526  -50.1011 H         1 UNK         0.0600 
    224 H224       -0.5748  -21.2791  -50.9487 H         1 UNK         0.0600 
    225 H225       -4.3884  -21.1320  -51.9153 H         1 UNK         0.3000 
    226 H226       -3.8912  -18.5232  -52.8969 H         1 UNK         0.0600 
    227 H227       -6.5115  -20.0946  -52.6619 H         1 UNK         0.0600 
    228 H228       -5.7899  -19.0831  -51.4105 H         1 UNK         0.0600 
    229 H229       -6.3892  -18.3528  -52.8934 H         1 UNK         0.0600 
    230 H230       -4.6330  -21.5139  -54.6430 H         1 UNK         0.3000 
    231 H231       -5.3816  -20.2069  -57.1364 H         1 UNK         0.0600 
    232 H232       -4.5568  -23.1113  -56.6190 H         1 UNK         0.0600 
    233 H233       -5.3701  -22.4836  -58.0439 H         1 UNK         0.0600 
    234 H234       -6.2070  -22.4954  -56.4978 H         1 UNK         0.0600 
    235 H235       -2.3741  -21.1252  -55.5624 H         1 UNK         0.3000 
    236 H236       -0.7374  -20.8753  -57.9932 H         1 UNK         0.0600 
    237 H237       -0.0751  -22.4647  -56.1732 H         1 UNK         0.0600 
    238 H238        1.1519  -21.2436  -56.4762 H         1 UNK         0.0600 
    239 H239        0.1221  -21.1107  -55.0613 H         1 UNK         0.0600 
    240 H240       -1.6666  -18.9477  -55.1216 H         1 UNK         0.3000 
    241 H241       -0.1313  -16.6269  -55.7126 H         1 UNK         0.0600 
    242 H242       -3.6282  -16.1941  -57.9208 H         1 UNK         0.3800 
    243 H243       -3.5923  -17.3917  -56.6460 H         1 UNK         0.3800 
    244 H244       -2.8224  -16.7042  -54.2656 H         1 UNK         0.0800 
    245 H245       -1.6610  -15.4031  -54.2223 H         1 UNK         0.0800 
    246 H246       -2.9784  -16.4152  -51.8258 H         1 UNK         0.0800 
    247 H247       -1.6222  -15.3664  -51.4962 H         1 UNK         0.0800 
@<TRIPOS>BOND
     1    1    2 1    
     2    1  127 1    
     3    1  128 1    
     4    1  129 1    
     5    2    3 2    
     6    2    4 am   BACKBONE|DICT|INTERRES
     7    4    5 1    
     8    4  130 1    
     9    5    6 1    
    10    5   65 1    
    11    5  131 1    
    12    6    7 1    
    13    6  132 1    
    14    6  133 1    
    15    7    8 1    
    16    8    9 1    
    17    8  134 1    
    18    8  135 1    
    19    9   10 ar   
    20    9   14 ar   
    21   10   11 ar   
    22   10  136 1    
    23   11   12 ar   
    24   11  126 1    
    25   12   13 ar   
    26   12  137 1    
    27   13   14 ar   
    28   13   15 1    
    29   14  138 1    
    30   15   16 1    
    31   15  139 1    
    32   15  140 1    
    33   16   17 1    
    34   17   18 1    
    35   17  141 1    
    36   17  142 1    
    37   18   19 1    
    38   18   67 1    
    39   18  143 1    
    40   19   20 am   BACKBONE|DICT|INTERRES
    41   19  144 1    
    42   20   21 2    
    43   20   22 1    
    44   22   23 1    
    45   22   24 1    
    46   22  145 1    
    47   23  146 1    
    48   23  147 1    
    49   23  148 1    
    50   24   25 am   BACKBONE|DICT|INTERRES
    51   24  149 1    
    52   25   26 2    
    53   25   27 1    
    54   27   28 1    
    55   27   29 1    
    56   27  150 1    
    57   28  151 1    
    58   28  152 1    
    59   28  153 1    
    60   29   30 am   BACKBONE|DICT|INTERRES
    61   29  154 1    
    62   30   31 2    
    63   30   32 1    
    64   32   33 1    
    65   32   34 1    
    66   32  155 1    
    67   33  156 1    
    68   33  157 1    
    69   33  158 1    
    70   34   35 am   BACKBONE|DICT|INTERRES
    71   34  159 1    
    72   35   36 2    
    73   35   37 1    
    74   37   38 1    
    75   37   39 1    
    76   37  160 1    
    77   38  161 1    
    78   38  162 1    
    79   38  163 1    
    80   39   40 am   BACKBONE|DICT|INTERRES
    81   39  164 1    
    82   40   41 2    
    83   40   42 1    
    84   42   43 1    
    85   42   44 1    
    86   42  165 1    
    87   43  166 1    
    88   43  167 1    
    89   43  168 1    
    90   44   45 am   BACKBONE|DICT|INTERRES
    91   44  169 1    
    92   45   46 2    
    93   45   47 1    
    94   47   48 1    
    95   47   49 1    
    96   47  170 1    
    97   48  171 1    
    98   48  172 1    
    99   48  173 1    
   100   49   50 am   BACKBONE|DICT|INTERRES
   101   49  174 1    
   102   50   51 2    
   103   50   52 1    
   104   52   53 1    
   105   52   54 1    
   106   52  175 1    
   107   53  176 1    
   108   53  177 1    
   109   53  178 1    
   110   54   55 am   BACKBONE|DICT|INTERRES
   111   54  179 1    
   112   55   56 2    
   113   55   57 1    
   114   57   58 1    
   115   57   59 1    
   116   57  180 1    
   117   58  181 1    
   118   58  182 1    
   119   58  183 1    
   120   59   60 am   BACKBONE|DICT|INTERRES
   121   59  184 1    
   122   60   61 2    
   123   60   62 1    
   124   62   63 1    
   125   62   64 1    
   126   62  185 1    
   127   63  186 1    
   128   63  187 1    
   129   63  188 1    
   130   64   65 am   BACKBONE|DICT|INTERRES
   131   64  189 1    
   132   65   66 2    
   133   67   68 2    
   134   67   69 am   BACKBONE|DICT|INTERRES
   135   69   70 1    
   136   69  190 1    
   137   70   71 1    
   138   70   72 1    
   139   70  191 1    
   140   71  192 1    
   141   71  193 1    
   142   71  194 1    
   143   72   73 2    
   144   72   74 am   BACKBONE|DICT|INTERRES
   145   74   75 1    
   146   74  195 1    
   147   75   76 1    
   148   75   77 1    
   149   75  196 1    
   150   76  197 1    
   151   76  198 1    
   152   76  199 1    
   153   77   78 2    
   154   77   79 am   BACKBONE|DICT|INTERRES
   155   79   80 1    
   156   79  200 1    
   157   80   81 1    
   158   80   82 1    
   159   80  201 1    
   160   81  202 1    
   161   81  203 1    
   162   81  204 1    
   163   82   83 2    
   164   82   84 am   BACKBONE|DICT|INTERRES
   165   84   85 1    
   166   84  205 1    
   167   85   86 1    
   168   85   87 1    
   169   85  206 1    
   170   86  207 1    
   171   86  208 1    
   172   86  209 1    
   173   87   88 2    
   174   87   89 am   BACKBONE|DICT|INTERRES
   175   89   90 1    
   176   89  210 1    
   177   90   91 1    
   178   90   92 1    
   179   90  211 1    
   180   91  212 1    
   181   91  213 1    
   182   91  214 1    
   183   92   93 2    
   184   92   94 am   BACKBONE|DICT|INTERRES
   185   94   95 1    
   186   94  215 1    
   187   95   96 1    
   188   95   97 1    
   189   95  216 1    
   190   96  217 1    
   191   96  218 1    
   192   96  219 1    
   193   97   98 2    
   194   97   99 am   BACKBONE|DICT|INTERRES
   195   99  100 1    
   196   99  220 1    
   197  100  101 1    
   198  100  102 1    
   199  100  221 1    
   200  101  222 1    
   201  101  223 1    
   202  101  224 1    
   203  102  103 2    
   204  102  104 am   BACKBONE|DICT|INTERRES
   205  104  105 1    
   206  104  225 1    
   207  105  106 1    
   208  105  107 1    
   209  105  226 1    
   210  106  227 1    
   211  106  228 1    
   212  106  229 1    
   213  107  108 2    
   214  107  109 am   BACKBONE|DICT|INTERRES
   215  109  110 1    
   216  109  230 1    
   217  110  111 1    
   218  110  112 1    
   219  110  231 1    
   220  111  232 1    
   221  111  233 1    
   222  111  234 1    
   223  112  113 2    
   224  112  114 am   BACKBONE|DICT|INTERRES
   225  114  115 1    
   226  114  235 1    
   227  115  116 1    
   228  115  117 1    
   229  115  236 1    
   230  116  237 1    
   231  116  238 1    
   232  116  239 1    
   233  117  118 2    
   234  117  119 am   BACKBONE|DICT|INTERRES
   235  119  120 1    
   236  119  240 1    
   237  120  121 1    
   238  120  124 1    
   239  120  241 1    
   240  121  122 am   BACKBONE|DICT|INTERRES
   241  121  123 2    
   242  122  242 1    
   243  122  243 1    
   244  124  125 1    
   245  124  244 1    
   246  124  245 1    
   247  125  126 1    
   248  126  246 1    
   249  126  247 1    
@<TRIPOS>SUBSTRUCTURE
     1 UNK         1 GROUP             0       ****    0 ROOT    
