@<TRIPOS>MOLECULE
3R540
247   249    1
SMALL
USER_CHARGES


@<TRIPOS>ATOM
      1 CA          2.9181  -15.8691  -48.2995 C.3       0 UNK        -0.1800 
      2 C           2.2951  -16.4636  -49.5592 C.2       0 UNK         0.5000 
      3 O           3.0281  -16.9941  -50.3898 O.2       0 UNK        -0.5000 
      4 N           0.9681  -16.4154  -49.7400 N.am      1 UNK        -0.5000 
      5 CA         -0.0223  -15.6993  -48.9293 C.3       1 UNK         0.1400 
      6 C6         -1.4720  -16.0834  -49.3173 C.3       23 UNK        -0.0398 
      7 S7         -1.8466  -17.8376  -48.9742 S.3       23 UNK        -0.2404 
      8 C8         -3.6192  -17.7457  -48.5739 C.3       23 UNK        -0.0205 
      9 C9         -4.2269  -19.1210  -48.3304 C.ar      23 UNK        -0.0193 
     10 C10        -4.3596  -20.0321  -49.3839 C.ar      23 UNK        -0.1150 
     11 C11        -4.9470  -21.2840  -49.1745 C.ar      23 UNK        -0.0193 
     12 C12        -5.4121  -21.6164  -47.8993 C.ar      23 UNK        -0.1150 
     13 C13        -5.3002  -20.7119  -46.8411 C.ar      23 UNK        -0.0193 
     14 C14        -4.6952  -19.4701  -47.0597 C.ar      23 UNK        -0.1150 
     15 C15        -5.8613  -21.0686  -45.4710 C.3       23 UNK        -0.0205 
     16 S16        -5.0089  -22.4878  -44.7113 S.3       23 UNK        -0.2404 
     17 C17        -3.3102  -21.8451  -44.5632 C.3       23 UNK        -0.0398 
     18 CA         -2.3121  -22.5721  -45.4995 C.3       11 UNK         0.1400 
     19 N          -1.1351  -21.7513  -45.7902 N.am      11 UNK        -0.5000 
     20 C          -0.1760  -22.0400  -46.6807 C.2       10 UNK         0.5000 
     21 O          -0.2092  -23.0118  -47.4362 O.2       10 UNK        -0.5000 
     22 CA          1.0560  -21.1144  -46.7015 C.3       10 UNK         0.1400 
     23 CB          0.8190  -19.8993  -47.6082 C.3       10 UNK        -0.1800 
     24 N           1.4508  -20.6599  -45.3664 N.am      10 UNK        -0.5000 
     25 C           1.8800  -21.4669  -44.3856 C.2       9 UNK         0.5000 
     26 O           2.0328  -22.6811  -44.5194 O.2       9 UNK        -0.5000 
     27 CA          2.1263  -20.8206  -43.0095 C.3       9 UNK         0.1400 
     28 CB          3.4693  -20.0761  -42.9782 C.3       9 UNK        -0.1800 
     29 N           1.0458  -19.9153  -42.6142 N.am      9 UNK        -0.5000 
     30 C          -0.2173  -20.3042  -42.3872 C.2       8 UNK         0.5000 
     31 O          -0.5900  -21.4763  -42.4384 O.2       8 UNK        -0.5000 
     32 CA         -1.2512  -19.1981  -42.1075 C.3       8 UNK         0.1400 
     33 CB         -1.1977  -18.7589  -40.6371 C.3       8 UNK        -0.1800 
     34 N          -1.0923  -18.0364  -42.9852 N.am      8 UNK        -0.5000 
     35 C          -1.2220  -18.0793  -44.3193 C.2       7 UNK         0.5000 
     36 O          -1.5326  -19.0924  -44.9382 O.2       7 UNK        -0.5000 
     37 CA         -0.8912  -16.8049  -45.1090 C.3       7 UNK         0.1400 
     38 CB         -2.0639  -15.8144  -45.0926 C.3       7 UNK        -0.1800 
     39 N           0.3195  -16.1487  -44.6239 N.am      7 UNK        -0.5000 
     40 C           1.5466  -16.6859  -44.6421 C.2       6 UNK         0.5000 
     41 O           1.8103  -17.7726  -45.1550 O.2       6 UNK        -0.5000 
     42 CA          2.6509  -15.8929  -43.9224 C.3       6 UNK         0.1400 
     43 CB          3.1958  -14.7597  -44.8062 C.3       6 UNK        -0.1800 
     44 N           2.1723  -15.3340  -42.6588 N.am      6 UNK        -0.5000 
     45 C           1.9009  -16.0584  -41.5651 C.2       5 UNK         0.5000 
     46 O           2.0458  -17.2794  -41.5011 O.2       5 UNK        -0.5000 
     47 CA          1.3478  -15.2891  -40.3508 C.3       5 UNK         0.1400 
     48 CB          2.4940  -14.6853  -39.5258 C.3       5 UNK        -0.1800 
     49 N           0.4124  -14.2278  -40.7308 N.am      5 UNK        -0.5000 
     50 C          -0.8055  -14.4501  -41.2435 C.2       4 UNK         0.5000 
     51 O          -1.2692  -15.5729  -41.4376 O.2       4 UNK        -0.5000 
     52 CA         -1.6247  -13.2118  -41.6560 C.3       4 UNK         0.1400 
     53 CB         -2.3337  -12.6029  -40.4370 C.3       4 UNK        -0.1800 
     54 N          -0.8497  -12.1699  -42.3407 N.am      4 UNK        -0.5000 
     55 C          -0.1196  -12.3612  -43.4471 C.2       3 UNK         0.5000 
     56 O           0.0739  -13.4686  -43.9520 O.2       3 UNK        -0.5000 
     57 CA          0.5324  -11.1169  -44.0795 C.3       3 UNK         0.1400 
     58 CB          1.8129  -10.7437  -43.3162 C.3       3 UNK        -0.1800 
     59 N           0.8787  -11.3507  -45.4834 N.am      3 UNK        -0.5000 
     60 C          -0.0029  -11.5742  -46.4675 C.2       2 UNK         0.5000 
     61 O          -1.2223  -11.4559  -46.3362 O.2       2 UNK        -0.5000 
     62 CA          0.5595  -12.0595  -47.8110 C.3       2 UNK         0.1400 
     63 CB          2.0688  -11.7895  -48.0044 C.3       2 UNK        -0.1800 
     64 N           0.2912  -13.4913  -47.9074 N.am      2 UNK        -0.5000 
     65 C           0.1919  -14.1762  -49.0517 C.2       1 UNK         0.5000 
     66 O           0.2789  -13.6600  -50.1674 O.2       1 UNK        -0.5000 
     67 C          -1.9127  -23.9443  -44.9217 C.2       11 UNK         0.5000 
     68 O          -2.3688  -24.9708  -45.4247 O.2       11 UNK        -0.5000 
     69 N          -1.0410  -23.9373  -43.9015 N.am      12 UNK        -0.5000 
     70 CA         -0.5195  -25.1323  -43.2335 C.3       12 UNK         0.1400 
     71 CB          0.3022  -24.7129  -42.0053 C.3       12 UNK        -0.1800 
     72 C           0.3123  -26.0313  -44.1665 C.2       12 UNK         0.5000 
     73 O           0.2036  -27.2556  -44.0894 O.2       12 UNK        -0.5000 
     74 N           1.0978  -25.4072  -45.0537 N.am      13 UNK        -0.5000 
     75 CA          1.8545  -26.0752  -46.1132 C.3       13 UNK         0.1400 
     76 CB          2.9174  -25.1004  -46.6445 C.3       13 UNK        -0.1800 
     77 C           0.9721  -26.5784  -47.2746 C.2       13 UNK         0.5000 
     78 O           1.4313  -27.4163  -48.0517 O.2       13 UNK        -0.5000 
     79 N          -0.2523  -26.0388  -47.3887 N.am      14 UNK        -0.5000 
     80 CA         -1.2115  -26.2022  -48.4872 C.3       14 UNK         0.1400 
     81 CB         -1.7667  -27.6406  -48.5226 C.3       14 UNK        -0.1800 
     82 C          -0.6226  -25.7378  -49.8367 C.2       14 UNK         0.5000 
     83 O          -0.8011  -26.4006  -50.8603 O.2       14 UNK        -0.5000 
     84 N           0.1163  -24.6213  -49.7924 N.am      15 UNK        -0.5000 
     85 CA          0.9253  -24.1151  -50.8974 C.3       15 UNK         0.1400 
     86 CB          1.9643  -23.1257  -50.3441 C.3       15 UNK        -0.1800 
     87 C           0.0909  -23.4557  -52.0063 C.2       15 UNK         0.5000 
     88 O           0.3978  -23.6464  -53.1834 O.2       15 UNK        -0.5000 
     89 N          -0.9204  -22.6677  -51.6038 N.am      16 UNK        -0.5000 
     90 CA         -1.7752  -21.8265  -52.4582 C.3       16 UNK         0.1400 
     91 CB         -2.6956  -22.6996  -53.3370 C.3       16 UNK        -0.1800 
     92 C          -0.9860  -20.7754  -53.2763 C.2       16 UNK         0.5000 
     93 O          -1.4259  -20.3561  -54.3485 O.2       16 UNK        -0.5000 
     94 N           0.1799  -20.3681  -52.7577 N.am      17 UNK        -0.5000 
     95 CA          1.0527  -19.3601  -53.3488 C.3       17 UNK         0.1400 
     96 CB          2.4243  -19.4266  -52.6630 C.3       17 UNK        -0.1800 
     97 C           0.4205  -17.9668  -53.2108 C.2       17 UNK         0.5000 
     98 O           0.0099  -17.5984  -52.1099 O.2       17 UNK        -0.5000 
     99 N           0.3182  -17.2423  -54.3342 N.am      18 UNK        -0.5000 
    100 CA        -0.3214  -15.9247  -54.4764 C.3       18 UNK         0.1400 
    101 CB         0.4587  -14.8539  -53.6848 C.3       18 UNK        -0.1800 
    102 C         -1.8339  -15.9148  -54.1452 C.2       18 UNK         0.5000 
    103 O         -2.4047  -14.8461  -53.9212 O.2       18 UNK        -0.5000 
    104 N         -2.4603  -17.0969  -54.1339 N.am      19 UNK        -0.5000 
    105 CA        -3.8513  -17.3280  -53.7677 C.3       19 UNK         0.1400 
    106 CB        -4.0116  -17.2723  -52.2365 C.3       19 UNK        -0.1800 
    107 C         -4.2679  -18.6772  -54.3636 C.2       19 UNK         0.5000 
    108 O         -4.5013  -19.6374  -53.6264 O.2       19 UNK        -0.5000 
    109 N         -4.2929  -18.7355  -55.7029 N.am      20 UNK        -0.5000 
    110 CA        -4.6351  -19.9192  -56.4938 C.3       20 UNK         0.1400 
    111 CB        -4.5538  -19.5728  -57.9879 C.3       20 UNK        -0.1800 
    112 C         -6.0284  -20.4662  -56.1345 C.2       20 UNK         0.5000 
    113 O         -6.9876  -19.6925  -56.0648 O.2       20 UNK        -0.5000 
    114 N         -6.0918  -21.7752  -55.8508 N.am      21 UNK        -0.5000 
    115 CA        -7.2590  -22.5096  -55.3393 C.3       21 UNK         0.1400 
    116 CB        -8.3524  -22.6086  -56.4237 C.3       21 UNK        -0.1800 
    117 C         -7.8015  -21.9596  -53.9977 C.2       21 UNK         0.5000 
    118 O         -8.9751  -22.1628  -53.6819 O.2       21 UNK        -0.5000 
    119 N         -6.9381  -21.2624  -53.2454 N.am      22 UNK        -0.5000 
    120 CA        -7.2392  -20.5218  -52.0110 C.3       22 UNK         0.1400 
    121 C         -8.1120  -19.2482  -52.2303 C.2       22 UNK         0.5000 
    122 N         -8.2409  -18.7315  -53.4484 N.am      22 UNK        -0.7600 
    123 O         -8.6614  -18.6972  -51.2804 O.2       22 UNK        -0.5000 
    124 C124       -7.7495  -21.4196  -50.8474 C.3       23 UNK        -0.0398 
    125 S125       -6.7588  -22.9289  -50.5420 S.3       23 UNK        -0.2404 
    126 C126       -5.0673  -22.2783  -50.3226 C.3       23 UNK        -0.0205 
    127 H127        3.0245  -14.7888  -48.3940 H         1 UNK         0.0600 
    128 H128        3.9101  -16.2898  -48.1333 H         1 UNK         0.0600 
    129 H129        2.3213  -16.0929  -47.4182 H         1 UNK         0.0600 
    130 H130        0.5883  -16.8410  -50.5847 H         1 UNK         0.3000 
    131 H131        0.1278  -15.9843  -47.8890 H         1 UNK         0.0600 
    132 H132       -2.1850  -15.4643  -48.7697 H         1 UNK         0.0800 
    133 H133       -1.6497  -15.8942  -50.3780 H         1 UNK         0.0800 
    134 H134       -4.1538  -17.2601  -49.3903 H         1 UNK         0.0800 
    135 H135       -3.7520  -17.1088  -47.6986 H         1 UNK         0.0800 
    136 H136       -4.0014  -19.7633  -50.3673 H         1 UNK         0.1150 
    137 H137       -5.8721  -22.5799  -47.7300 H         1 UNK         0.1150 
    138 H138       -4.6025  -18.7677  -46.2433 H         1 UNK         0.1150 
    139 H139       -5.8074  -20.2152  -44.7933 H         1 UNK         0.0800 
    140 H140       -6.9202  -21.3091  -45.5750 H         1 UNK         0.0800 
    141 H141       -3.0015  -21.8997  -43.5184 H         1 UNK         0.0800 
    142 H142       -3.3386  -20.7835  -44.7991 H         1 UNK         0.0800 
    143 H143       -2.8052  -22.7450  -46.4589 H         1 UNK         0.0600 
    144 H144       -1.0676  -20.8727  -45.2829 H         1 UNK         0.3000 
    145 H145        1.8873  -21.6874  -47.1170 H         1 UNK         0.0600 
    146 H146        1.7268  -19.3065  -47.7216 H         1 UNK         0.0600 
    147 H147        0.5003  -20.2034  -48.6060 H         1 UNK         0.0600 
    148 H148        0.0472  -19.2473  -47.2008 H         1 UNK         0.0600 
    149 H149        1.3911  -19.6607  -45.1890 H         1 UNK         0.3000 
    150 H150        2.1712  -21.6242  -42.2716 H         1 UNK         0.0600 
    151 H151        4.2911  -20.7445  -43.2380 H         1 UNK         0.0600 
    152 H152        3.6749  -19.6776  -41.9846 H         1 UNK         0.0600 
    153 H153        3.4889  -19.2438  -43.6814 H         1 UNK         0.0600 
    154 H154        1.2840  -18.9349  -42.5109 H         1 UNK         0.3000 
    155 H155       -2.2409  -19.6194  -42.2957 H         1 UNK         0.0600 
    156 H156       -0.2477  -18.2846  -40.3913 H         1 UNK         0.0600 
    157 H157       -1.3215  -19.6126  -39.9697 H         1 UNK         0.0600 
    158 H158       -1.9944  -18.0509  -40.4088 H         1 UNK         0.0600 
    159 H159       -0.8932  -17.1484  -42.5344 H         1 UNK         0.3000 
    160 H160       -0.7188  -17.1096  -46.1412 H         1 UNK         0.0600 
    161 H161       -2.2644  -15.4466  -44.0861 H         1 UNK         0.0600 
    162 H162       -2.9771  -16.2844  -45.4588 H         1 UNK         0.0600 
    163 H163       -1.8621  -14.9522  -45.7284 H         1 UNK         0.0600 
    164 H164        0.2024  -15.2240  -44.2120 H         1 UNK         0.3000 
    165 H165        3.4723  -16.5783  -43.7027 H         1 UNK         0.0600 
    166 H166        3.9173  -14.1482  -44.2642 H         1 UNK         0.0600 
    167 H167        3.7124  -15.1633  -45.6762 H         1 UNK         0.0600 
    168 H168        2.4039  -14.1023  -45.1659 H         1 UNK         0.0600 
    169 H169        1.9569  -14.3481  -42.6515 H         1 UNK         0.3000 
    170 H170        0.8152  -16.0040  -39.7198 H         1 UNK         0.0600 
    171 H171        3.1987  -15.4575  -39.2140 H         1 UNK         0.0600 
    172 H172        3.0529  -13.9409  -40.0943 H         1 UNK         0.0600 
    173 H173        2.1186  -14.2056  -38.6218 H         1 UNK         0.0600 
    174 H174        0.7217  -13.2744  -40.6112 H         1 UNK         0.3000 
    175 H175       -2.3912  -13.5525  -42.3550 H         1 UNK         0.0600 
    176 H176       -1.6219  -12.1946  -39.7186 H         1 UNK         0.0600 
    177 H177       -3.0097  -11.8006  -40.7334 H         1 UNK         0.0600 
    178 H178       -2.9314  -13.3531  -39.9173 H         1 UNK         0.0600 
    179 H179       -0.9426  -11.2331  -41.9753 H         1 UNK         0.3000 
    180 H180       -0.1738  -10.2857  -44.0287 H         1 UNK         0.0600 
    181 H181        2.5462  -11.5512  -43.3404 H         1 UNK         0.0600 
    182 H182        1.5989  -10.5259  -42.2691 H         1 UNK         0.0600 
    183 H183        2.2795   -9.8546  -43.7408 H         1 UNK         0.0600 
    184 H184        1.8580  -11.4900  -45.6817 H         1 UNK         0.3000 
    185 H185        0.0082  -11.5316  -48.5922 H         1 UNK         0.0600 
    186 H186        2.3019  -10.7335  -47.8625 H         1 UNK         0.0600 
    187 H187        2.6817  -12.3675  -47.3117 H         1 UNK         0.0600 
    188 H188        2.3848  -12.0510  -49.0145 H         1 UNK         0.0600 
    189 H189        0.1565  -13.9596  -47.0216 H         1 UNK         0.3000 
    190 H190       -0.7352  -23.0431  -43.5254 H         1 UNK         0.3000 
    191 H191       -1.3743  -25.7169  -42.8875 H         1 UNK         0.0600 
    192 H192        1.1565  -24.0954  -42.2842 H         1 UNK         0.0600 
    193 H193        0.6854  -25.5851  -41.4743 H         1 UNK         0.0600 
    194 H194       -0.3048  -24.1436  -41.3011 H         1 UNK         0.0600 
    195 H195        1.1914  -24.3969  -44.9954 H         1 UNK         0.3000 
    196 H196        2.3642  -26.9405  -45.6847 H         1 UNK         0.0600 
    197 H197        3.5254  -25.5657  -47.4213 H         1 UNK         0.0600 
    198 H198        3.5924  -24.7814  -45.8502 H         1 UNK         0.0600 
    199 H199        2.4616  -24.2076  -47.0741 H         1 UNK         0.0600 
    200 H200       -0.5251  -25.3593  -46.6902 H         1 UNK         0.3000 
    201 H201       -2.0432  -25.5307  -48.2692 H         1 UNK         0.0600 
    202 H202       -2.1800  -27.9250  -47.5549 H         1 UNK         0.0600 
    203 H203       -0.9977  -28.3672  -48.7861 H         1 UNK         0.0600 
    204 H204       -2.5679  -27.7312  -49.2569 H         1 UNK         0.0600 
    205 H205        0.1621  -24.1127  -48.9122 H         1 UNK         0.3000 
    206 H206        1.4632  -24.9559  -51.3410 H         1 UNK         0.0600 
    207 H207        2.6246  -23.6113  -49.6253 H         1 UNK         0.0600 
    208 H208        2.5916  -22.7281  -51.1432 H         1 UNK         0.0600 
    209 H209        1.4922  -22.2795  -49.8440 H         1 UNK         0.0600 
    210 H210       -1.0858  -22.5962  -50.6097 H         1 UNK         0.3000 
    211 H211       -2.4111  -21.2530  -51.7830 H         1 UNK         0.0600 
    212 H212       -3.4309  -22.0900  -53.8620 H         1 UNK         0.0600 
    213 H213       -3.2461  -23.4228  -52.7356 H         1 UNK         0.0600 
    214 H214       -2.1320  -23.2499  -54.0905 H         1 UNK         0.0600 
    215 H215        0.4538  -20.7266  -51.8565 H         1 UNK         0.3000 
    216 H216        1.1865  -19.5933  -54.4073 H         1 UNK         0.0600 
    217 H217        3.0901  -18.6494  -53.0403 H         1 UNK         0.0600 
    218 H218        2.9078  -20.3871  -52.8418 H         1 UNK         0.0600 
    219 H219        2.3393  -19.2919  -51.5842 H         1 UNK         0.0600 
    220 H220        0.6690  -17.6426  -55.1935 H         1 UNK         0.3000 
    221 H221       -0.2481  -15.6673  -55.5338 H         1 UNK         0.0600 
    222 H222        0.3696  -15.0010  -52.6081 H         1 UNK         0.0600 
    223 H223        1.5187  -14.8690  -53.9377 H         1 UNK         0.0600 
    224 H224        0.0880  -13.8526  -53.9064 H         1 UNK         0.0600 
    225 H225       -1.9275  -17.9317  -54.3454 H         1 UNK         0.3000 
    226 H226       -4.4837  -16.5594  -54.2165 H         1 UNK         0.0600 
    227 H227       -3.8085  -16.2729  -51.8525 H         1 UNK         0.0600 
    228 H228       -5.0262  -17.5365  -51.9353 H         1 UNK         0.0600 
    229 H229       -3.3259  -17.9625  -51.7444 H         1 UNK         0.0600 
    230 H230       -4.0820  -17.8974  -56.2240 H         1 UNK         0.3000 
    231 H231       -3.8851  -20.6825  -56.2754 H         1 UNK         0.0600 
    232 H232       -3.5531  -19.2382  -58.2622 H         1 UNK         0.0600 
    233 H233       -5.2582  -18.7844  -58.2567 H         1 UNK         0.0600 
    234 H234       -4.7848  -20.4433  -58.6033 H         1 UNK         0.0600 
    235 H235       -5.2438  -22.3199  -55.9249 H         1 UNK         0.3000 
    236 H236       -6.9125  -23.5221  -55.1275 H         1 UNK         0.0600 
    237 H237       -8.7999  -21.6375  -56.6372 H         1 UNK         0.0600 
    238 H238       -7.9489  -23.0044  -57.3556 H         1 UNK         0.0600 
    239 H239       -9.1559  -23.2764  -56.1111 H         1 UNK         0.0600 
    240 H240       -6.0064  -21.0969  -53.6072 H         1 UNK         0.3000 
    241 H241       -6.2830  -20.1108  -51.6912 H         1 UNK         0.0600 
    242 H242       -8.8031  -17.9053  -53.5754 H         1 UNK         0.3800 
    243 H243       -7.7976  -19.1625  -54.2524 H         1 UNK         0.3800 
    244 H244       -8.7781  -21.7297  -51.0353 H         1 UNK         0.0800 
    245 H245       -7.7768  -20.8481  -49.9182 H         1 UNK         0.0800 
    246 H246       -4.7359  -21.8339  -51.2612 H         1 UNK         0.0800 
    247 H247       -4.3945  -23.1146  -50.1291 H         1 UNK         0.0800 
@<TRIPOS>BOND
     1    1    2 1    
     2    1  127 1    
     3    1  128 1    
     4    1  129 1    
     5    2    3 2    
     6    2    4 am   BACKBONE|DICT|INTERRES
     7    4    5 1    
     8    4  130 1    
     9    5    6 1    
    10    5   65 1    
    11    5  131 1    
    12    6    7 1    
    13    6  132 1    
    14    6  133 1    
    15    7    8 1    
    16    8    9 1    
    17    8  134 1    
    18    8  135 1    
    19    9   10 ar   
    20    9   14 ar   
    21   10   11 ar   
    22   10  136 1    
    23   11   12 ar   
    24   11  126 1    
    25   12   13 ar   
    26   12  137 1    
    27   13   14 ar   
    28   13   15 1    
    29   14  138 1    
    30   15   16 1    
    31   15  139 1    
    32   15  140 1    
    33   16   17 1    
    34   17   18 1    
    35   17  141 1    
    36   17  142 1    
    37   18   19 1    
    38   18   67 1    
    39   18  143 1    
    40   19   20 am   BACKBONE|DICT|INTERRES
    41   19  144 1    
    42   20   21 2    
    43   20   22 1    
    44   22   23 1    
    45   22   24 1    
    46   22  145 1    
    47   23  146 1    
    48   23  147 1    
    49   23  148 1    
    50   24   25 am   BACKBONE|DICT|INTERRES
    51   24  149 1    
    52   25   26 2    
    53   25   27 1    
    54   27   28 1    
    55   27   29 1    
    56   27  150 1    
    57   28  151 1    
    58   28  152 1    
    59   28  153 1    
    60   29   30 am   BACKBONE|DICT|INTERRES
    61   29  154 1    
    62   30   31 2    
    63   30   32 1    
    64   32   33 1    
    65   32   34 1    
    66   32  155 1    
    67   33  156 1    
    68   33  157 1    
    69   33  158 1    
    70   34   35 am   BACKBONE|DICT|INTERRES
    71   34  159 1    
    72   35   36 2    
    73   35   37 1    
    74   37   38 1    
    75   37   39 1    
    76   37  160 1    
    77   38  161 1    
    78   38  162 1    
    79   38  163 1    
    80   39   40 am   BACKBONE|DICT|INTERRES
    81   39  164 1    
    82   40   41 2    
    83   40   42 1    
    84   42   43 1    
    85   42   44 1    
    86   42  165 1    
    87   43  166 1    
    88   43  167 1    
    89   43  168 1    
    90   44   45 am   BACKBONE|DICT|INTERRES
    91   44  169 1    
    92   45   46 2    
    93   45   47 1    
    94   47   48 1    
    95   47   49 1    
    96   47  170 1    
    97   48  171 1    
    98   48  172 1    
    99   48  173 1    
   100   49   50 am   BACKBONE|DICT|INTERRES
   101   49  174 1    
   102   50   51 2    
   103   50   52 1    
   104   52   53 1    
   105   52   54 1    
   106   52  175 1    
   107   53  176 1    
   108   53  177 1    
   109   53  178 1    
   110   54   55 am   BACKBONE|DICT|INTERRES
   111   54  179 1    
   112   55   56 2    
   113   55   57 1    
   114   57   58 1    
   115   57   59 1    
   116   57  180 1    
   117   58  181 1    
   118   58  182 1    
   119   58  183 1    
   120   59   60 am   BACKBONE|DICT|INTERRES
   121   59  184 1    
   122   60   61 2    
   123   60   62 1    
   124   62   63 1    
   125   62   64 1    
   126   62  185 1    
   127   63  186 1    
   128   63  187 1    
   129   63  188 1    
   130   64   65 am   BACKBONE|DICT|INTERRES
   131   64  189 1    
   132   65   66 2    
   133   67   68 2    
   134   67   69 am   BACKBONE|DICT|INTERRES
   135   69   70 1    
   136   69  190 1    
   137   70   71 1    
   138   70   72 1    
   139   70  191 1    
   140   71  192 1    
   141   71  193 1    
   142   71  194 1    
   143   72   73 2    
   144   72   74 am   BACKBONE|DICT|INTERRES
   145   74   75 1    
   146   74  195 1    
   147   75   76 1    
   148   75   77 1    
   149   75  196 1    
   150   76  197 1    
   151   76  198 1    
   152   76  199 1    
   153   77   78 2    
   154   77   79 am   BACKBONE|DICT|INTERRES
   155   79   80 1    
   156   79  200 1    
   157   80   81 1    
   158   80   82 1    
   159   80  201 1    
   160   81  202 1    
   161   81  203 1    
   162   81  204 1    
   163   82   83 2    
   164   82   84 am   BACKBONE|DICT|INTERRES
   165   84   85 1    
   166   84  205 1    
   167   85   86 1    
   168   85   87 1    
   169   85  206 1    
   170   86  207 1    
   171   86  208 1    
   172   86  209 1    
   173   87   88 2    
   174   87   89 am   BACKBONE|DICT|INTERRES
   175   89   90 1    
   176   89  210 1    
   177   90   91 1    
   178   90   92 1    
   179   90  211 1    
   180   91  212 1    
   181   91  213 1    
   182   91  214 1    
   183   92   93 2    
   184   92   94 am   BACKBONE|DICT|INTERRES
   185   94   95 1    
   186   94  215 1    
   187   95   96 1    
   188   95   97 1    
   189   95  216 1    
   190   96  217 1    
   191   96  218 1    
   192   96  219 1    
   193   97   98 2    
   194   97   99 am   BACKBONE|DICT|INTERRES
   195   99  100 1    
   196   99  220 1    
   197  100  101 1    
   198  100  102 1    
   199  100  221 1    
   200  101  222 1    
   201  101  223 1    
   202  101  224 1    
   203  102  103 2    
   204  102  104 am   BACKBONE|DICT|INTERRES
   205  104  105 1    
   206  104  225 1    
   207  105  106 1    
   208  105  107 1    
   209  105  226 1    
   210  106  227 1    
   211  106  228 1    
   212  106  229 1    
   213  107  108 2    
   214  107  109 am   BACKBONE|DICT|INTERRES
   215  109  110 1    
   216  109  230 1    
   217  110  111 1    
   218  110  112 1    
   219  110  231 1    
   220  111  232 1    
   221  111  233 1    
   222  111  234 1    
   223  112  113 2    
   224  112  114 am   BACKBONE|DICT|INTERRES
   225  114  115 1    
   226  114  235 1    
   227  115  116 1    
   228  115  117 1    
   229  115  236 1    
   230  116  237 1    
   231  116  238 1    
   232  116  239 1    
   233  117  118 2    
   234  117  119 am   BACKBONE|DICT|INTERRES
   235  119  120 1    
   236  119  240 1    
   237  120  121 1    
   238  120  124 1    
   239  120  241 1    
   240  121  122 am   BACKBONE|DICT|INTERRES
   241  121  123 2    
   242  122  242 1    
   243  122  243 1    
   244  124  125 1    
   245  124  244 1    
   246  124  245 1    
   247  125  126 1    
   248  126  246 1    
   249  126  247 1    
@<TRIPOS>SUBSTRUCTURE
     1 UNK         1 GROUP             0       ****    0 ROOT    
