@<TRIPOS>MOLECULE
3R540
247   249    1
SMALL
USER_CHARGES


@<TRIPOS>ATOM
      1 CA          1.4670  -14.8955  -50.7532 C.3       0 UNK        -0.1800 
      2 C           1.2405  -14.3571  -49.3482 C.2       0 UNK         0.5000 
      3 O           2.1911  -13.9352  -48.6886 O.2       0 UNK        -0.5000 
      4 N          -0.0158  -14.3573  -48.8892 N.am      1 UNK        -0.5000 
      5 CA         -0.4638  -13.8849  -47.5750 C.3       1 UNK         0.1400 
      6 C6         -1.7804  -14.5731  -47.1241 C.3       23 UNK        -0.0398 
      7 S7         -3.1173  -14.5684  -48.3743 S.3       23 UNK        -0.2404 
      8 C8         -3.3423  -16.3471  -48.6896 C.3       23 UNK        -0.0205 
      9 C9         -2.2336  -16.9255  -49.5566 C.ar      23 UNK        -0.0193 
     10 C10        -2.3382  -16.8781  -50.9486 C.ar      23 UNK        -0.1150 
     11 C11        -1.3455  -17.4404  -51.7564 C.ar      23 UNK        -0.0193 
     12 C12        -0.2378  -18.0507  -51.1588 C.ar      23 UNK        -0.1150 
     13 C13        -0.1099  -18.0857  -49.7685 C.ar      23 UNK        -0.0193 
     14 C14        -1.1165  -17.5294  -48.9736 C.ar      23 UNK        -0.1150 
     15 C15         1.1163  -18.7212  -49.1267 C.3       23 UNK        -0.0205 
     16 S16         1.0033  -20.5382  -49.0711 S.3       23 UNK        -0.2404 
     17 C17        -0.5556  -20.7460  -48.1575 C.3       23 UNK        -0.0398 
     18 CA         -0.6559  -22.0920  -47.4114 C.3       11 UNK         0.1400 
     19 N           0.2317  -22.1715  -46.2460 N.am      11 UNK        -0.5000 
     20 C           0.4263  -23.2839  -45.5226 C.2       10 UNK         0.5000 
     21 O          -0.0937  -24.3666  -45.7878 O.2       10 UNK        -0.5000 
     22 CA          1.2951  -23.1627  -44.2589 C.3       10 UNK         0.1400 
     23 CB          2.7889  -23.1462  -44.6145 C.3       10 UNK        -0.1800 
     24 N           0.9544  -21.9889  -43.4546 N.am      10 UNK        -0.5000 
     25 C          -0.2331  -21.7925  -42.8631 C.2       9 UNK         0.5000 
     26 O          -1.1535  -22.6093  -42.8953 O.2       9 UNK        -0.5000 
     27 CA         -0.4507  -20.4366  -42.1644 C.3       9 UNK         0.1400 
     28 CB          0.1832  -20.4264  -40.7657 C.3       9 UNK        -0.1800 
     29 N           0.0640  -19.3125  -42.9470 N.am      9 UNK        -0.5000 
     30 C          -0.3875  -18.9639  -44.1604 C.2       8 UNK         0.5000 
     31 O          -1.3282  -19.5154  -44.7312 O.2       8 UNK        -0.5000 
     32 CA          0.3878  -17.8529  -44.8857 C.3       8 UNK         0.1400 
     33 CB         -0.0542  -16.4621  -44.4069 C.3       8 UNK        -0.1800 
     34 N           1.8347  -18.0053  -44.7279 N.am      8 UNK        -0.5000 
     35 C           2.5426  -19.0187  -45.2484 C.2       7 UNK         0.5000 
     36 O           2.0478  -19.9086  -45.9373 O.2       7 UNK        -0.5000 
     37 CA          4.0421  -19.0727  -44.9045 C.3       7 UNK         0.1400 
     38 CB          4.8376  -18.1217  -45.8111 C.3       7 UNK        -0.1800 
     39 N           4.3073  -18.7465  -43.5030 N.am      7 UNK        -0.5000 
     40 C           3.8982  -19.4824  -42.4588 C.2       6 UNK         0.5000 
     41 O           3.3144  -20.5589  -42.5708 O.2       6 UNK        -0.5000 
     42 CA          4.1278  -18.8869  -41.0548 C.3       6 UNK         0.1400 
     43 CB          5.4852  -19.3355  -40.4939 C.3       6 UNK        -0.1800 
     44 N           4.0509  -17.4224  -41.0310 N.am      6 UNK        -0.5000 
     45 C           2.9686  -16.7141  -41.3805 C.2       5 UNK         0.5000 
     46 O           1.8987  -17.2324  -41.7113 O.2       5 UNK        -0.5000 
     47 CA          3.1541  -15.1867  -41.4452 C.3       5 UNK         0.1400 
     48 CB          4.1086  -14.8075  -42.5910 C.3       5 UNK        -0.1800 
     49 N           1.8918  -14.4899  -41.6698 N.am      5 UNK        -0.5000 
     50 C           0.9533  -14.2430  -40.7514 C.2       4 UNK         0.5000 
     51 O           1.0683  -14.5454  -39.5619 O.2       4 UNK        -0.5000 
     52 CA         -0.3020  -13.4953  -41.2576 C.3       4 UNK         0.1400 
     53 CB         -1.3060  -13.1876  -40.1319 C.3       4 UNK        -0.1800 
     54 N           0.0397  -12.2416  -41.9402 N.am      4 UNK        -0.5000 
     55 C           0.5116  -12.1417  -43.1885 C.2       3 UNK         0.5000 
     56 O           0.6959  -13.1163  -43.9263 O.2       3 UNK        -0.5000 
     57 CA          0.8768  -10.7330  -43.6808 C.3       3 UNK         0.1400 
     58 CB          2.1826  -10.2365  -43.0365 C.3       3 UNK        -0.1800 
     59 N           1.0430  -10.8069  -45.1244 N.am      3 UNK        -0.5000 
     60 C           0.7950   -9.8451  -46.0180 C.2       2 UNK         0.5000 
     61 O           0.5048   -8.6865  -45.7176 O.2       2 UNK        -0.5000 
     62 CA          0.8605  -10.2614  -47.5036 C.3       2 UNK         0.1400 
     63 CB          2.2151   -9.8734  -48.1152 C.3       2 UNK        -0.1800 
     64 N           0.6449  -11.6991  -47.7009 N.am      2 UNK        -0.5000 
     65 C          -0.5119  -12.3410  -47.4889 C.2       1 UNK         0.5000 
     66 O          -1.5624  -11.7579  -47.2155 O.2       1 UNK        -0.5000 
     67 C          -2.1293  -22.3644  -47.0530 C.2       11 UNK         0.5000 
     68 O          -2.8292  -22.9864  -47.8519 O.2       11 UNK        -0.5000 
     69 N          -2.5813  -21.9043  -45.8791 N.am      12 UNK        -0.5000 
     70 CA         -3.9205  -22.1764  -45.3590 C.3       12 UNK         0.1400 
     71 CB         -4.2096  -21.2661  -44.1564 C.3       12 UNK        -0.1800 
     72 C          -4.1088  -23.6606  -44.9977 C.2       12 UNK         0.5000 
     73 O          -5.1256  -24.2471  -45.3681 O.2       12 UNK        -0.5000 
     74 N          -3.1109  -24.2497  -44.3232 N.am      13 UNK        -0.5000 
     75 CA         -3.0801  -25.6630  -43.9393 C.3       13 UNK         0.1400 
     76 CB         -1.9011  -25.9074  -42.9852 C.3       13 UNK        -0.1800 
     77 C          -3.0112  -26.6166  -45.1474 C.2       13 UNK         0.5000 
     78 O          -3.7045  -27.6342  -45.1598 O.2       13 UNK        -0.5000 
     79 N          -2.1976  -26.2590  -46.1501 N.am      14 UNK        -0.5000 
     80 CA         -2.0438  -26.9938  -47.4085 C.3       14 UNK         0.1400 
     81 CB         -0.7305  -26.5551  -48.0765 C.3       14 UNK        -0.1800 
     82 C          -3.2204  -26.7983  -48.3858 C.2       14 UNK         0.5000 
     83 O          -3.3136  -27.5389  -49.3648 O.2       14 UNK        -0.5000 
     84 N          -4.0639  -25.7880  -48.1266 N.am      15 UNK        -0.5000 
     85 CA         -5.1748  -25.3002  -48.9522 C.3       15 UNK         0.1400 
     86 CB         -6.2421  -26.3905  -49.1766 C.3       15 UNK        -0.1800 
     87 C          -4.7220  -24.6315  -50.2682 C.2       15 UNK         0.5000 
     88 O          -5.5491  -24.3941  -51.1475 O.2       15 UNK        -0.5000 
     89 N          -3.4345  -24.2731  -50.3615 N.am      16 UNK        -0.5000 
     90 CA         -2.8350  -23.5136  -51.4594 C.3       16 UNK         0.1400 
     91 CB         -1.3091  -23.5102  -51.2874 C.3       16 UNK        -0.1800 
     92 C          -3.3732  -22.0732  -51.5363 C.2       16 UNK         0.5000 
     93 O          -3.4972  -21.5259  -52.6332 O.2       16 UNK        -0.5000 
     94 N          -3.7222  -21.5074  -50.3712 N.am      17 UNK        -0.5000 
     95 CA         -4.3951  -20.2154  -50.2437 C.3       17 UNK         0.1400 
     96 CB         -4.4158  -19.7955  -48.7651 C.3       17 UNK        -0.1800 
     97 C          -5.8266  -20.2506  -50.8105 C.2       17 UNK         0.5000 
     98 O          -6.2297  -19.3198  -51.5070 O.2       17 UNK        -0.5000 
     99 N          -6.5552  -21.3378  -50.5180 N.am      18 UNK        -0.5000 
    100 CA        -7.9247  -21.5756  -50.9779 C.3       18 UNK         0.1400 
    101 CB        -8.5607  -22.6886  -50.1306 C.3       18 UNK        -0.1800 
    102 C         -7.9862  -21.9230  -52.4757 C.2       18 UNK         0.5000 
    103 O         -8.8814  -21.4485  -53.1754 O.2       18 UNK        -0.5000 
    104 N         -7.0156  -22.7196  -52.9441 N.am      19 UNK        -0.5000 
    105 CA        -6.8336  -23.0900  -54.3492 C.3       19 UNK         0.1400 
    106 CB        -5.8536  -24.2711  -54.4257 C.3       19 UNK        -0.1800 
    107 C         -6.3341  -21.9294  -55.2332 C.2       19 UNK         0.5000 
    108 O         -6.4423  -22.0228  -56.4564 O.2       19 UNK        -0.5000 
    109 N         -5.7927  -20.8760  -54.6022 N.am      20 UNK        -0.5000 
    110 CA        -5.1802  -19.6894  -55.2017 C.3       20 UNK         0.1400 
    111 CB        -6.2207  -18.8531  -55.9747 C.3       20 UNK        -0.1800 
    112 C         -3.9410  -20.0562  -56.0402 C.2       20 UNK         0.5000 
    113 O         -3.8391  -19.6831  -57.2114 O.2       20 UNK        -0.5000 
    114 N         -3.0078  -20.7811  -55.4047 N.am      21 UNK        -0.5000 
    115 CA        -1.7623  -21.2986  -55.9888 C.3       21 UNK         0.1400 
    116 CB        -1.0342  -22.1311  -54.9234 C.3       21 UNK        -0.1800 
    117 C         -0.8158  -20.2252  -56.5707 C.2       21 UNK         0.5000 
    118 O          0.0573  -20.5540  -57.3748 O.2       21 UNK        -0.5000 
    119 N         -1.0218  -18.9667  -56.1687 N.am      22 UNK        -0.5000 
    120 CA        -0.3865  -17.7626  -56.7201 C.3       22 UNK         0.1400 
    121 C         -0.8022  -17.4404  -58.1876 C.2       22 UNK         0.5000 
    122 N         -1.8985  -17.9821  -58.7087 N.am      22 UNK        -0.7600 
    123 O         -0.1138  -16.6831  -58.8660 O.2       22 UNK        -0.5000 
    124 C124       -0.6464  -16.5287  -55.8168 C.3       23 UNK        -0.0398 
    125 S125       -0.0312  -16.7199  -54.1080 S.3       23 UNK        -0.2404 
    126 C126       -1.4951  -17.4153  -53.2699 C.3       23 UNK        -0.0205 
    127 H127        0.5254  -15.1007  -51.2631 H         1 UNK         0.0600 
    128 H128        2.0234  -14.1727  -51.3496 H         1 UNK         0.0600 
    129 H129        2.0406  -15.8214  -50.7127 H         1 UNK         0.0600 
    130 H130       -0.7566  -14.7054  -49.4828 H         1 UNK         0.3000 
    131 H131        0.2944  -14.1838  -46.8482 H         1 UNK         0.0600 
    132 H132       -1.5599  -15.6032  -46.8513 H         1 UNK         0.0800 
    133 H133       -2.1608  -14.1220  -46.2058 H         1 UNK         0.0800 
    134 H134       -4.3026  -16.4898  -49.1874 H         1 UNK         0.0800 
    135 H135       -3.4125  -16.8863  -47.7436 H         1 UNK         0.0800 
    136 H136       -3.2034  -16.4141  -51.4010 H         1 UNK         0.1150 
    137 H137        0.5304  -18.4936  -51.7770 H         1 UNK         0.1150 
    138 H138       -1.0327  -17.5706  -47.8989 H         1 UNK         0.1150 
    139 H139        1.2624  -18.3368  -48.1168 H         1 UNK         0.0800 
    140 H140        2.0085  -18.4402  -49.6878 H         1 UNK         0.0800 
    141 H141       -1.3504  -20.6469  -48.8987 H         1 UNK         0.0800 
    142 H142       -0.6818  -19.9238  -47.4522 H         1 UNK         0.0800 
    143 H143       -0.3516  -22.8852  -48.0966 H         1 UNK         0.0600 
    144 H144        0.7446  -21.3273  -46.0044 H         1 UNK         0.3000 
    145 H145        1.1080  -24.0462  -43.6452 H         1 UNK         0.0600 
    146 H146        3.4072  -23.1389  -43.7168 H         1 UNK         0.0600 
    147 H147        3.0618  -24.0315  -45.1902 H         1 UNK         0.0600 
    148 H148        3.0547  -22.2736  -45.2104 H         1 UNK         0.0600 
    149 H149        1.6862  -21.2957  -43.3305 H         1 UNK         0.3000 
    150 H150       -1.5269  -20.2924  -42.0489 H         1 UNK         0.0600 
    151 H151        1.2607  -20.5829  -40.8085 H         1 UNK         0.0600 
    152 H152       -0.2375  -21.2169  -40.1431 H         1 UNK         0.0600 
    153 H153        0.0026  -19.4791  -40.2572 H         1 UNK         0.0600 
    154 H154        0.8238  -18.7752  -42.5423 H         1 UNK         0.3000 
    155 H155        0.1587  -17.9303  -45.9490 H         1 UNK         0.0600 
    156 H156        0.1287  -16.3169  -43.3432 H         1 UNK         0.0600 
    157 H157       -1.1223  -16.3158  -44.5697 H         1 UNK         0.0600 
    158 H158        0.4719  -15.6751  -44.9456 H         1 UNK         0.0600 
    159 H159        2.2945  -17.3531  -44.1107 H         1 UNK         0.3000 
    160 H160        4.3904  -20.0914  -45.0874 H         1 UNK         0.0600 
    161 H161        4.5549  -17.0800  -45.6531 H         1 UNK         0.0600 
    162 H162        4.6656  -18.3523  -46.8634 H         1 UNK         0.0600 
    163 H163        5.9091  -18.2101  -45.6312 H         1 UNK         0.0600 
    164 H164        4.7911  -17.8806  -43.3193 H         1 UNK         0.3000 
    165 H165        3.3431  -19.2721  -40.4008 H         1 UNK         0.0600 
    166 H166        5.6230  -18.9889  -39.4695 H         1 UNK         0.0600 
    167 H167        6.3145  -18.9563  -41.0923 H         1 UNK         0.0600 
    168 H168        5.5609  -20.4237  -40.4800 H         1 UNK         0.0600 
    169 H169        4.8953  -16.9329  -40.7716 H         1 UNK         0.3000 
    170 H170        3.5819  -14.8505  -40.4985 H         1 UNK         0.0600 
    171 H171        5.0985  -15.2422  -42.4489 H         1 UNK         0.0600 
    172 H172        3.7339  -15.1480  -43.5574 H         1 UNK         0.0600 
    173 H173        4.2408  -13.7267  -42.6493 H         1 UNK         0.0600 
    174 H174        1.6886  -14.2082  -42.6231 H         1 UNK         0.3000 
    175 H175       -0.7998  -14.1572  -41.9696 H         1 UNK         0.0600 
    176 H176       -0.8764  -12.5271  -39.3778 H         1 UNK         0.0600 
    177 H177       -2.2037  -12.7097  -40.5246 H         1 UNK         0.0600 
    178 H178       -1.6221  -14.1020  -39.6282 H         1 UNK         0.0600 
    179 H179       -0.0465  -11.4015  -41.3863 H         1 UNK         0.3000 
    180 H180        0.0559  -10.0556  -43.4367 H         1 UNK         0.0600 
    181 H181        3.0146  -10.9102  -43.2460 H         1 UNK         0.0600 
    182 H182        2.0844  -10.1616  -41.9530 H         1 UNK         0.0600 
    183 H183        2.4528   -9.2471  -43.4058 H         1 UNK         0.0600 
    184 H184        1.2241  -11.7451  -45.4586 H         1 UNK         0.3000 
    185 H185        0.0745   -9.7205  -48.0346 H         1 UNK         0.0600 
    186 H186        2.2479  -10.1052  -49.1800 H         1 UNK         0.0600 
    187 H187        2.3995   -8.8035  -48.0099 H         1 UNK         0.0600 
    188 H188        3.0397  -10.3986  -47.6314 H         1 UNK         0.0600 
    189 H189        1.4519  -12.2593  -47.9602 H         1 UNK         0.3000 
    190 H190       -1.9743  -21.3272  -45.3054 H         1 UNK         0.3000 
    191 H191       -4.6424  -21.9335  -46.1411 H         1 UNK         0.0600 
    192 H192       -5.2182  -21.4316  -43.7761 H         1 UNK         0.0600 
    193 H193       -4.1340  -20.2144  -44.4333 H         1 UNK         0.0600 
    194 H194       -3.5161  -21.4447  -43.3351 H         1 UNK         0.0600 
    195 H195       -2.3240  -23.6812  -44.0218 H         1 UNK         0.3000 
    196 H196       -4.0034  -25.8807  -43.3985 H         1 UNK         0.0600 
    197 H197       -0.9460  -25.6755  -43.4574 H         1 UNK         0.0600 
    198 H198       -1.9869  -25.2936  -42.0883 H         1 UNK         0.0600 
    199 H199       -1.8660  -26.9494  -42.6649 H         1 UNK         0.0600 
    200 H200       -1.6010  -25.4433  -46.0278 H         1 UNK         0.3000 
    201 H201       -1.9753  -28.0601  -47.1839 H         1 UNK         0.0600 
    202 H202       -0.7423  -25.4933  -48.3260 H         1 UNK         0.0600 
    203 H203       -0.5539  -27.1078  -49.0001 H         1 UNK         0.0600 
    204 H204        0.1234  -26.7353  -47.4231 H         1 UNK         0.0600 
    205 H205       -3.8765  -25.2355  -47.3002 H         1 UNK         0.3000 
    206 H206       -5.6419  -24.5068  -48.3671 H         1 UNK         0.0600 
    207 H207       -6.5425  -26.8476  -48.2338 H         1 UNK         0.0600 
    208 H208       -7.1393  -25.9708  -49.6325 H         1 UNK         0.0600 
    209 H209       -5.8850  -27.1812  -49.8365 H         1 UNK         0.0600 
    210 H210       -2.8583  -24.4178  -49.5437 H         1 UNK         0.3000 
    211 H211       -3.0784  -24.0165  -52.3969 H         1 UNK         0.0600 
    212 H212       -0.8213  -22.9883  -52.1102 H         1 UNK         0.0600 
    213 H213       -0.9116  -24.5251  -51.2655 H         1 UNK         0.0600 
    214 H214       -1.0094  -23.0120  -50.3660 H         1 UNK         0.0600 
    215 H215       -3.5697  -22.0368  -49.5199 H         1 UNK         0.3000 
    216 H216       -3.8263  -19.4731  -50.8076 H         1 UNK         0.0600 
    217 H217       -4.8882  -20.5515  -48.1378 H         1 UNK         0.0600 
    218 H218       -4.9727  -18.8680  -48.6302 H         1 UNK         0.0600 
    219 H219       -3.4100  -19.6247  -48.3840 H         1 UNK         0.0600 
    220 H220       -6.1300  -22.0699  -49.9708 H         1 UNK         0.3000 
    221 H221       -8.5013  -20.6609  -50.8234 H         1 UNK         0.0600 
    222 H222       -8.5689  -22.4240  -49.0731 H         1 UNK         0.0600 
    223 H223       -8.0276  -23.6337  -50.2361 H         1 UNK         0.0600 
    224 H224       -9.5951  -22.8619  -50.4298 H         1 UNK         0.0600 
    225 H225       -6.3688  -23.1408  -52.2818 H         1 UNK         0.3000 
    226 H226       -7.7974  -23.4161  -54.7452 H         1 UNK         0.0600 
    227 H227       -4.8680  -23.9967  -54.0489 H         1 UNK         0.0600 
    228 H228       -6.2113  -25.1204  -53.8431 H         1 UNK         0.0600 
    229 H229       -5.7289  -24.6119  -55.4542 H         1 UNK         0.0600 
    230 H230       -5.7234  -20.9328  -53.5953 H         1 UNK         0.3000 
    231 H231       -4.8219  -19.0790  -54.3711 H         1 UNK         0.0600 
    232 H232       -6.5993  -19.3787  -56.8517 H         1 UNK         0.0600 
    233 H233       -5.7850  -17.9152  -56.3208 H         1 UNK         0.0600 
    234 H234       -7.0714  -18.6020  -55.3410 H         1 UNK         0.0600 
    235 H235       -3.1873  -21.0447  -54.4378 H         1 UNK         0.3000 
    236 H236       -2.0398  -21.9603  -56.8115 H         1 UNK         0.0600 
    237 H237       -1.6590  -22.9512  -54.5691 H         1 UNK         0.0600 
    238 H238       -0.1189  -22.5698  -55.3228 H         1 UNK         0.0600 
    239 H239       -0.7589  -21.5199  -54.0630 H         1 UNK         0.0600 
    240 H240       -1.7686  -18.8088  -55.5124 H         1 UNK         0.3000 
    241 H241        0.6896  -17.9449  -56.7385 H         1 UNK         0.0600 
    242 H242       -2.1513  -17.7654  -59.6597 H         1 UNK         0.3800 
    243 H243       -2.4921  -18.6007  -58.1640 H         1 UNK         0.3800 
    244 H244       -1.7096  -16.2836  -55.7953 H         1 UNK         0.0800 
    245 H245       -0.1487  -15.6508  -56.2327 H         1 UNK         0.0800 
    246 H246       -2.3768  -16.8388  -53.5540 H         1 UNK         0.0800 
    247 H247       -1.6646  -18.4380  -53.6051 H         1 UNK         0.0800 
@<TRIPOS>BOND
     1    1    2 1    
     2    1  127 1    
     3    1  128 1    
     4    1  129 1    
     5    2    3 2    
     6    2    4 am   BACKBONE|DICT|INTERRES
     7    4    5 1    
     8    4  130 1    
     9    5    6 1    
    10    5   65 1    
    11    5  131 1    
    12    6    7 1    
    13    6  132 1    
    14    6  133 1    
    15    7    8 1    
    16    8    9 1    
    17    8  134 1    
    18    8  135 1    
    19    9   10 ar   
    20    9   14 ar   
    21   10   11 ar   
    22   10  136 1    
    23   11   12 ar   
    24   11  126 1    
    25   12   13 ar   
    26   12  137 1    
    27   13   14 ar   
    28   13   15 1    
    29   14  138 1    
    30   15   16 1    
    31   15  139 1    
    32   15  140 1    
    33   16   17 1    
    34   17   18 1    
    35   17  141 1    
    36   17  142 1    
    37   18   19 1    
    38   18   67 1    
    39   18  143 1    
    40   19   20 am   BACKBONE|DICT|INTERRES
    41   19  144 1    
    42   20   21 2    
    43   20   22 1    
    44   22   23 1    
    45   22   24 1    
    46   22  145 1    
    47   23  146 1    
    48   23  147 1    
    49   23  148 1    
    50   24   25 am   BACKBONE|DICT|INTERRES
    51   24  149 1    
    52   25   26 2    
    53   25   27 1    
    54   27   28 1    
    55   27   29 1    
    56   27  150 1    
    57   28  151 1    
    58   28  152 1    
    59   28  153 1    
    60   29   30 am   BACKBONE|DICT|INTERRES
    61   29  154 1    
    62   30   31 2    
    63   30   32 1    
    64   32   33 1    
    65   32   34 1    
    66   32  155 1    
    67   33  156 1    
    68   33  157 1    
    69   33  158 1    
    70   34   35 am   BACKBONE|DICT|INTERRES
    71   34  159 1    
    72   35   36 2    
    73   35   37 1    
    74   37   38 1    
    75   37   39 1    
    76   37  160 1    
    77   38  161 1    
    78   38  162 1    
    79   38  163 1    
    80   39   40 am   BACKBONE|DICT|INTERRES
    81   39  164 1    
    82   40   41 2    
    83   40   42 1    
    84   42   43 1    
    85   42   44 1    
    86   42  165 1    
    87   43  166 1    
    88   43  167 1    
    89   43  168 1    
    90   44   45 am   BACKBONE|DICT|INTERRES
    91   44  169 1    
    92   45   46 2    
    93   45   47 1    
    94   47   48 1    
    95   47   49 1    
    96   47  170 1    
    97   48  171 1    
    98   48  172 1    
    99   48  173 1    
   100   49   50 am   BACKBONE|DICT|INTERRES
   101   49  174 1    
   102   50   51 2    
   103   50   52 1    
   104   52   53 1    
   105   52   54 1    
   106   52  175 1    
   107   53  176 1    
   108   53  177 1    
   109   53  178 1    
   110   54   55 am   BACKBONE|DICT|INTERRES
   111   54  179 1    
   112   55   56 2    
   113   55   57 1    
   114   57   58 1    
   115   57   59 1    
   116   57  180 1    
   117   58  181 1    
   118   58  182 1    
   119   58  183 1    
   120   59   60 am   BACKBONE|DICT|INTERRES
   121   59  184 1    
   122   60   61 2    
   123   60   62 1    
   124   62   63 1    
   125   62   64 1    
   126   62  185 1    
   127   63  186 1    
   128   63  187 1    
   129   63  188 1    
   130   64   65 am   BACKBONE|DICT|INTERRES
   131   64  189 1    
   132   65   66 2    
   133   67   68 2    
   134   67   69 am   BACKBONE|DICT|INTERRES
   135   69   70 1    
   136   69  190 1    
   137   70   71 1    
   138   70   72 1    
   139   70  191 1    
   140   71  192 1    
   141   71  193 1    
   142   71  194 1    
   143   72   73 2    
   144   72   74 am   BACKBONE|DICT|INTERRES
   145   74   75 1    
   146   74  195 1    
   147   75   76 1    
   148   75   77 1    
   149   75  196 1    
   150   76  197 1    
   151   76  198 1    
   152   76  199 1    
   153   77   78 2    
   154   77   79 am   BACKBONE|DICT|INTERRES
   155   79   80 1    
   156   79  200 1    
   157   80   81 1    
   158   80   82 1    
   159   80  201 1    
   160   81  202 1    
   161   81  203 1    
   162   81  204 1    
   163   82   83 2    
   164   82   84 am   BACKBONE|DICT|INTERRES
   165   84   85 1    
   166   84  205 1    
   167   85   86 1    
   168   85   87 1    
   169   85  206 1    
   170   86  207 1    
   171   86  208 1    
   172   86  209 1    
   173   87   88 2    
   174   87   89 am   BACKBONE|DICT|INTERRES
   175   89   90 1    
   176   89  210 1    
   177   90   91 1    
   178   90   92 1    
   179   90  211 1    
   180   91  212 1    
   181   91  213 1    
   182   91  214 1    
   183   92   93 2    
   184   92   94 am   BACKBONE|DICT|INTERRES
   185   94   95 1    
   186   94  215 1    
   187   95   96 1    
   188   95   97 1    
   189   95  216 1    
   190   96  217 1    
   191   96  218 1    
   192   96  219 1    
   193   97   98 2    
   194   97   99 am   BACKBONE|DICT|INTERRES
   195   99  100 1    
   196   99  220 1    
   197  100  101 1    
   198  100  102 1    
   199  100  221 1    
   200  101  222 1    
   201  101  223 1    
   202  101  224 1    
   203  102  103 2    
   204  102  104 am   BACKBONE|DICT|INTERRES
   205  104  105 1    
   206  104  225 1    
   207  105  106 1    
   208  105  107 1    
   209  105  226 1    
   210  106  227 1    
   211  106  228 1    
   212  106  229 1    
   213  107  108 2    
   214  107  109 am   BACKBONE|DICT|INTERRES
   215  109  110 1    
   216  109  230 1    
   217  110  111 1    
   218  110  112 1    
   219  110  231 1    
   220  111  232 1    
   221  111  233 1    
   222  111  234 1    
   223  112  113 2    
   224  112  114 am   BACKBONE|DICT|INTERRES
   225  114  115 1    
   226  114  235 1    
   227  115  116 1    
   228  115  117 1    
   229  115  236 1    
   230  116  237 1    
   231  116  238 1    
   232  116  239 1    
   233  117  118 2    
   234  117  119 am   BACKBONE|DICT|INTERRES
   235  119  120 1    
   236  119  240 1    
   237  120  121 1    
   238  120  124 1    
   239  120  241 1    
   240  121  122 am   BACKBONE|DICT|INTERRES
   241  121  123 2    
   242  122  242 1    
   243  122  243 1    
   244  124  125 1    
   245  124  244 1    
   246  124  245 1    
   247  125  126 1    
   248  126  246 1    
   249  126  247 1    
@<TRIPOS>SUBSTRUCTURE
     1 UNK         1 GROUP             0       ****    0 ROOT    
