@<TRIPOS>MOLECULE
3R540
247   249    1
SMALL
USER_CHARGES


@<TRIPOS>ATOM
      1 CA         -5.1028  -17.6090  -43.3011 C.3       0 UNK        -0.1800 
      2 C          -5.2137  -17.2066  -44.7640 C.2       0 UNK         0.5000 
      3 O          -6.2822  -16.7815  -45.2026 O.2       0 UNK        -0.5000 
      4 N          -4.1173  -17.3555  -45.5168 N.am      1 UNK        -0.5000 
      5 CA         -4.0095  -17.0263  -46.9405 C.3       1 UNK         0.1400 
      6 C6         -2.8435  -17.8170  -47.6035 C.3       23 UNK        -0.0398 
      7 S7         -1.1630  -17.2348  -47.1756 S.3       23 UNK        -0.2404 
      8 C8         -0.5325  -16.6843  -48.7926 C.3       23 UNK        -0.0205 
      9 C9          0.1355  -17.8082  -49.5660 C.ar      23 UNK        -0.0193 
     10 C10        -0.5851  -18.5516  -50.5039 C.ar      23 UNK        -0.1150 
     11 C11         0.0494  -19.5362  -51.2667 C.ar      23 UNK        -0.0193 
     12 C12         1.4126  -19.7832  -51.0767 C.ar      23 UNK        -0.1150 
     13 C13         2.1467  -19.0410  -50.1459 C.ar      23 UNK        -0.0193 
     14 C14         1.4990  -18.0591  -49.3901 C.ar      23 UNK        -0.1150 
     15 C15         3.6496  -19.2544  -50.0053 C.3       23 UNK        -0.0205 
     16 S16         4.1520  -19.6807  -48.3081 S.3       23 UNK        -0.2404 
     17 C17         3.2965  -21.2733  -48.0817 C.3       23 UNK        -0.0398 
     18 CA          4.1056  -22.2578  -47.2036 C.3       11 UNK         0.1400 
     19 N           4.2387  -21.7696  -45.8285 N.am      11 UNK        -0.5000 
     20 C           5.1440  -22.2059  -44.9448 C.2       10 UNK         0.5000 
     21 O           5.9810  -23.0748  -45.1922 O.2       10 UNK        -0.5000 
     22 CA          5.0931  -21.5730  -43.5433 C.3       10 UNK         0.1400 
     23 CB          5.7548  -20.1864  -43.5436 C.3       10 UNK        -0.1800 
     24 N           3.7262  -21.4655  -43.0310 N.am      10 UNK        -0.5000 
     25 C           2.9880  -22.5082  -42.6249 C.2       9 UNK         0.5000 
     26 O           3.3901  -23.6718  -42.6251 O.2       9 UNK        -0.5000 
     27 CA          1.5570  -22.2079  -42.1428 C.3       9 UNK         0.1400 
     28 CB          1.5613  -21.8223  -40.6560 C.3       9 UNK        -0.1800 
     29 N           0.9023  -21.1513  -42.9115 N.am      9 UNK        -0.5000 
     30 C           0.5354  -21.2578  -44.1958 C.2       8 UNK         0.5000 
     31 O           0.6868  -22.2724  -44.8762 O.2       8 UNK        -0.5000 
     32 CA         -0.0623  -19.9986  -44.8444 C.3       8 UNK         0.1400 
     33 CB         -1.5379  -19.8456  -44.4493 C.3       8 UNK        -0.1800 
     34 N           0.6774  -18.7777  -44.5201 N.am      8 UNK        -0.5000 
     35 C           1.9785  -18.5898  -44.7891 C.2       7 UNK         0.5000 
     36 O           2.7067  -19.4462  -45.2866 O.2       7 UNK        -0.5000 
     37 CA          2.5815  -17.2362  -44.3926 C.3       7 UNK         0.1400 
     38 CB          2.2210  -16.1626  -45.4245 C.3       7 UNK        -0.1800 
     39 N           2.1317  -16.8248  -43.0658 N.am      7 UNK        -0.5000 
     40 C           2.5715  -17.3787  -41.9270 C.2       6 UNK         0.5000 
     41 O           3.4518  -18.2382  -41.8766 O.2       6 UNK        -0.5000 
     42 CA          1.8772  -16.9273  -40.6295 C.3       6 UNK         0.1400 
     43 CB          2.4599  -15.5953  -40.1339 C.3       6 UNK        -0.1800 
     44 N           0.4281  -16.7956  -40.7840 N.am      6 UNK        -0.5000 
     45 C          -0.4001  -17.8073  -41.0784 C.2       5 UNK         0.5000 
     46 O          -0.0354  -18.9742  -41.2207 O.2       5 UNK        -0.5000 
     47 CA         -1.8829  -17.4536  -41.2830 C.3       5 UNK         0.1400 
     48 CB         -2.6607  -17.6014  -39.9676 C.3       5 UNK        -0.1800 
     49 N          -2.1123  -16.1145  -41.8311 N.am      5 UNK        -0.5000 
     50 C          -1.6924  -15.6796  -43.0275 C.2       4 UNK         0.5000 
     51 O          -1.0084  -16.3615  -43.7946 O.2       4 UNK        -0.5000 
     52 CA         -2.1634  -14.2636  -43.4143 C.3       4 UNK         0.1400 
     53 CB         -1.7931  -13.2085  -42.3484 C.3       4 UNK        -0.1800 
     54 N          -1.7462  -13.8409  -44.7547 N.am      4 UNK        -0.5000 
     55 C          -0.5279  -13.4710  -45.1769 C.2       3 UNK         0.5000 
     56 O           0.4694  -13.4452  -44.4544 O.2       3 UNK        -0.5000 
     57 CA         -0.4158  -13.0141  -46.6488 C.3       3 UNK         0.1400 
     58 CB          0.9597  -13.3168  -47.2680 C.3       3 UNK        -0.1800 
     59 N          -1.4673  -13.6025  -47.4847 N.am      3 UNK        -0.5000 
     60 C          -2.4010  -12.9136  -48.1574 C.2       2 UNK         0.5000 
     61 O          -2.4274  -11.6836  -48.2129 O.2       2 UNK        -0.5000 
     62 CA         -3.5125  -13.7123  -48.8826 C.3       2 UNK         0.1400 
     63 CB         -3.2537  -13.7298  -50.3979 C.3       2 UNK        -0.1800 
     64 N          -3.7149  -15.0948  -48.4319 N.am      2 UNK        -0.5000 
     65 C          -3.9386  -15.4964  -47.1745 C.2       1 UNK         0.5000 
     66 O          -4.0337  -14.7089  -46.2296 O.2       1 UNK        -0.5000 
     67 C           3.4562  -23.6539  -47.2746 C.2       11 UNK         0.5000 
     68 O           3.6701  -24.3568  -48.2630 O.2       11 UNK        -0.5000 
     69 N           2.6429  -24.0011  -46.2638 N.am      12 UNK        -0.5000 
     70 CA          1.6670  -25.0973  -46.2575 C.3       12 UNK         0.1400 
     71 CB          2.3554  -26.4765  -46.3284 C.3       12 UNK        -0.1800 
     72 C           0.6085  -24.8682  -47.3574 C.2       12 UNK         0.5000 
     73 O           0.3760  -25.7355  -48.2023 O.2       12 UNK        -0.5000 
     74 N           0.0440  -23.6528  -47.3515 N.am      13 UNK        -0.5000 
     75 CA         -0.8896  -23.1408  -48.3522 C.3       13 UNK         0.1400 
     76 CB         -1.0819  -21.6321  -48.1268 C.3       13 UNK        -0.1800 
     77 C          -2.2486  -23.8632  -48.3361 C.2       13 UNK         0.5000 
     78 O          -2.6178  -24.4843  -47.3350 O.2       13 UNK        -0.5000 
     79 N          -2.9891  -23.7309  -49.4431 N.am      14 UNK        -0.5000 
     80 CA         -4.3225  -24.2951  -49.6652 C.3       14 UNK         0.1400 
     81 CB         -4.5920  -24.3148  -51.1820 C.3       14 UNK        -0.1800 
     82 C          -5.4233  -23.5538  -48.8710 C.2       14 UNK         0.5000 
     83 O          -6.3461  -22.9956  -49.4669 O.2       14 UNK        -0.5000 
     84 N          -5.2887  -23.5531  -47.5371 N.am      15 UNK        -0.5000 
     85 CA         -6.1259  -22.8698  -46.5476 C.3       15 UNK         0.1400 
     86 CB         -7.5294  -23.5141  -46.4824 C.3       15 UNK        -0.1800 
     87 C          -6.1302  -21.3455  -46.7846 C.2       15 UNK         0.5000 
     88 O          -5.0564  -20.7388  -46.8046 O.2       15 UNK        -0.5000 
     89 N          -7.3128  -20.7518  -46.9945 N.am      16 UNK        -0.5000 
     90 CA         -7.5135  -19.3434  -47.3443 C.3       16 UNK         0.1400 
     91 CB         -8.9508  -18.9383  -46.9730 C.3       16 UNK        -0.1800 
     92 C          -7.1712  -19.0622  -48.8243 C.2       16 UNK         0.5000 
     93 O          -8.0128  -18.5772  -49.5827 O.2       16 UNK        -0.5000 
     94 N          -5.9447  -19.4226  -49.2124 N.am      17 UNK        -0.5000 
     95 CA         -5.4238  -19.3593  -50.5709 C.3       17 UNK         0.1400 
     96 CB         -4.1217  -20.1690  -50.6205 C.3       17 UNK        -0.1800 
     97 C          -5.1831  -17.9190  -51.0552 C.2       17 UNK         0.5000 
     98 O          -4.7912  -17.0530  -50.2686 O.2       17 UNK        -0.5000 
     99 N          -5.3776  -17.7154  -52.3617 N.am      18 UNK        -0.5000 
    100 CA        -5.0249  -16.5001  -53.0935 C.3       18 UNK         0.1400 
    101 CB        -5.8902  -16.4464  -54.3672 C.3       18 UNK        -0.1800 
    102 C         -3.5162  -16.4624  -53.4265 C.2       18 UNK         0.5000 
    103 O         -2.7478  -17.2868  -52.9299 O.2       18 UNK        -0.5000 
    104 N         -3.1153  -15.5190  -54.2907 N.am      19 UNK        -0.5000 
    105 CA        -1.7548  -15.4219  -54.8340 C.3       19 UNK         0.1400 
    106 CB        -1.5973  -14.0735  -55.5535 C.3       19 UNK        -0.1800 
    107 C         -1.3903  -16.5891  -55.7788 C.2       19 UNK         0.5000 
    108 O         -0.2112  -16.9244  -55.9001 O.2       19 UNK        -0.5000 
    109 N         -2.4086  -17.1844  -56.4160 N.am      20 UNK        -0.5000 
    110 CA        -2.3328  -18.4487  -57.1457 C.3       20 UNK         0.1400 
    111 CB        -3.2285  -18.3545  -58.3974 C.3       20 UNK        -0.1800 
    112 C         -2.7213  -19.5800  -56.1717 C.2       20 UNK         0.5000 
    113 O         -2.0446  -19.7433  -55.1590 O.2       20 UNK        -0.5000 
    114 N         -3.8082  -20.3109  -56.4630 N.am      21 UNK        -0.5000 
    115 CA        -4.5359  -21.2777  -55.6226 C.3       21 UNK         0.1400 
    116 CB        -5.1521  -20.5701  -54.4012 C.3       21 UNK        -0.1800 
    117 C         -3.7736  -22.5480  -55.1859 C.2       21 UNK         0.5000 
    118 O         -4.3372  -23.6396  -55.2728 O.2       21 UNK        -0.5000 
    119 N         -2.5317  -22.3986  -54.7163 N.am      22 UNK        -0.5000 
    120 CA        -1.6759  -23.4830  -54.2037 C.3       22 UNK         0.1400 
    121 C         -1.0893  -24.4236  -55.2988 C.2       22 UNK         0.5000 
    122 N         -1.1903  -24.1012  -56.5827 N.am      22 UNK        -0.7600 
    123 O         -0.5360  -25.4713  -54.9764 O.2       22 UNK        -0.5000 
    124 C124       -0.5453  -22.9507  -53.2840 C.3       23 UNK        -0.0398 
    125 S125       -1.1544  -21.9748  -51.8630 S.3       23 UNK        -0.2404 
    126 C126       -0.7164  -20.2752  -52.3520 C.3       23 UNK        -0.0205 
    127 H127       -6.0323  -18.0674  -42.9632 H         1 UNK         0.0600 
    128 H128       -4.9079  -16.7337  -42.6819 H         1 UNK         0.0600 
    129 H129       -4.3017  -18.3315  -43.1495 H         1 UNK         0.0600 
    130 H130       -3.2550  -17.6518  -45.0843 H         1 UNK         0.3000 
    131 H131       -4.9315  -17.3580  -47.4197 H         1 UNK         0.0600 
    132 H132       -2.9126  -18.8713  -47.3308 H         1 UNK         0.0800 
    133 H133       -2.9529  -17.8057  -48.6854 H         1 UNK         0.0800 
    134 H134       -1.3310  -16.2405  -49.3874 H         1 UNK         0.0800 
    135 H135        0.1931  -15.8882  -48.6344 H         1 UNK         0.0800 
    136 H136       -1.6308  -18.3364  -50.6704 H         1 UNK         0.1150 
    137 H137        1.9053  -20.5325  -51.6802 H         1 UNK         0.1150 
    138 H138        2.0645  -17.4744  -48.6783 H         1 UNK         0.1150 
    139 H139        4.0003  -20.0312  -50.6865 H         1 UNK         0.0800 
    140 H140        4.1606  -18.3370  -50.3002 H         1 UNK         0.0800 
    141 H141        2.3161  -21.0779  -47.6432 H         1 UNK         0.0800 
    142 H142        3.1098  -21.7047  -49.0672 H         1 UNK         0.0800 
    143 H143        5.1067  -22.3510  -47.6305 H         1 UNK         0.0600 
    144 H144        3.6266  -20.9980  -45.5662 H         1 UNK         0.3000 
    145 H145        5.6614  -22.2151  -42.8669 H         1 UNK         0.0600 
    146 H146        5.7873  -19.7659  -42.5384 H         1 UNK         0.0600 
    147 H147        5.2209  -19.4824  -44.1825 H         1 UNK         0.0600 
    148 H148        6.7820  -20.2442  -43.9057 H         1 UNK         0.0600 
    149 H149        3.3188  -20.5402  -43.0125 H         1 UNK         0.3000 
    150 H150        0.9693  -23.1212  -42.2571 H         1 UNK         0.0600 
    151 H151        2.0323  -22.5977  -40.0506 H         1 UNK         0.0600 
    152 H152        0.5462  -21.6882  -40.2815 H         1 UNK         0.0600 
    153 H153        2.1054  -20.8923  -40.4845 H         1 UNK         0.0600 
    154 H154        0.7038  -20.2858  -42.4158 H         1 UNK         0.3000 
    155 H155       -0.0048  -20.1147  -45.9270 H         1 UNK         0.0600 
    156 H156       -2.1392  -20.6524  -44.8701 H         1 UNK         0.0600 
    157 H157       -1.6696  -19.8745  -43.3686 H         1 UNK         0.0600 
    158 H158       -1.9494  -18.9074  -44.8131 H         1 UNK         0.0600 
    159 H159        0.1426  -18.0006  -44.1459 H         1 UNK         0.3000 
    160 H160        3.6687  -17.3394  -44.3784 H         1 UNK         0.0600 
    161 H161        1.1422  -16.0217  -45.4908 H         1 UNK         0.0600 
    162 H162        2.5771  -16.4410  -46.4170 H         1 UNK         0.0600 
    163 H163        2.6708  -15.2025  -45.1716 H         1 UNK         0.0600 
    164 H164        1.3690  -16.1624  -43.0312 H         1 UNK         0.3000 
    165 H165        2.0661  -17.6885  -39.8695 H         1 UNK         0.0600 
    166 H166        2.0307  -15.3102  -39.1732 H         1 UNK         0.0600 
    167 H167        3.5396  -15.6691  -39.9973 H         1 UNK         0.0600 
    168 H168        2.2726  -14.7849  -40.8397 H         1 UNK         0.0600 
    169 H169        0.0396  -15.8689  -40.6917 H         1 UNK         0.3000 
    170 H170       -2.2887  -18.1720  -41.9939 H         1 UNK         0.0600 
    171 H171       -2.5282  -18.5985  -39.5453 H         1 UNK         0.0600 
    172 H172       -2.3276  -16.8809  -39.2195 H         1 UNK         0.0600 
    173 H173       -3.7300  -17.4564  -40.1230 H         1 UNK         0.0600 
    174 H174       -2.6684  -15.4948  -41.2600 H         1 UNK         0.3000 
    175 H175       -3.2522  -14.3131  -43.4624 H         1 UNK         0.0600 
    176 H176       -0.7243  -13.2037  -42.1325 H         1 UNK         0.0600 
    177 H177       -2.0732  -12.2061  -42.6725 H         1 UNK         0.0600 
    178 H178       -2.3119  -13.3935  -41.4077 H         1 UNK         0.0600 
    179 H179       -2.4903  -13.8918  -45.4449 H         1 UNK         0.3000 
    180 H180       -0.5240  -11.9284  -46.6208 H         1 UNK         0.0600 
    181 H181        1.7588  -12.8255  -46.7116 H         1 UNK         0.0600 
    182 H182        1.0154  -12.9589  -48.2960 H         1 UNK         0.0600 
    183 H183        1.1745  -14.3829  -47.2733 H         1 UNK         0.0600 
    184 H184       -1.5374  -14.6102  -47.4612 H         1 UNK         0.3000 
    185 H185       -4.4487  -13.1801  -48.7040 H         1 UNK         0.0600 
    186 H186       -3.1205  -12.7196  -50.7874 H         1 UNK         0.0600 
    187 H187       -2.3577  -14.2992  -50.6477 H         1 UNK         0.0600 
    188 H188       -4.0925  -14.1729  -50.9336 H         1 UNK         0.0600 
    189 H189       -3.7765  -15.7929  -49.1681 H         1 UNK         0.3000 
    190 H190        2.5166  -23.3237  -45.5220 H         1 UNK         0.3000 
    191 H191        1.1431  -25.0406  -45.3022 H         1 UNK         0.0600 
    192 H192        1.6273  -27.2776  -46.1969 H         1 UNK         0.0600 
    193 H193        3.1025  -26.5832  -45.5419 H         1 UNK         0.0600 
    194 H194        2.8495  -26.6428  -47.2856 H         1 UNK         0.0600 
    195 H195        0.2604  -23.0391  -46.5714 H         1 UNK         0.3000 
    196 H196       -0.4316  -23.2945  -49.3307 H         1 UNK         0.0600 
    197 H197       -0.1315  -21.0992  -48.1593 H         1 UNK         0.0600 
    198 H198       -1.7138  -21.1954  -48.8998 H         1 UNK         0.0600 
    199 H199       -1.5589  -21.4294  -47.1680 H         1 UNK         0.0600 
    200 H200       -2.6160  -23.1764  -50.2020 H         1 UNK         0.3000 
    201 H201       -4.3208  -25.3301  -49.3171 H         1 UNK         0.0600 
    202 H202       -5.5679  -24.7492  -51.4020 H         1 UNK         0.0600 
    203 H203       -3.8480  -24.9151  -51.7058 H         1 UNK         0.0600 
    204 H204       -4.5738  -23.3126  -51.6122 H         1 UNK         0.0600 
    205 H205       -4.4426  -23.9838  -47.1726 H         1 UNK         0.3000 
    206 H206       -5.6464  -23.0235  -45.5801 H         1 UNK         0.0600 
    207 H207       -7.4552  -24.5809  -46.2712 H         1 UNK         0.0600 
    208 H208       -8.1290  -23.0740  -45.6846 H         1 UNK         0.0600 
    209 H209       -8.0809  -23.4035  -47.4166 H         1 UNK         0.0600 
    210 H210       -8.1374  -21.3338  -47.0108 H         1 UNK         0.3000 
    211 H211       -6.8340  -18.7431  -46.7424 H         1 UNK         0.0600 
    212 H212       -9.6897  -19.5087  -47.5371 H         1 UNK         0.0600 
    213 H213       -9.1229  -17.8807  -47.1767 H         1 UNK         0.0600 
    214 H214       -9.1420  -19.0963  -45.9114 H         1 UNK         0.0600 
    215 H215       -5.3422  -19.8393  -48.5104 H         1 UNK         0.3000 
    216 H216       -6.1518  -19.8359  -51.2310 H         1 UNK         0.0600 
    217 H217       -3.3760  -19.7787  -49.9298 H         1 UNK         0.0600 
    218 H218       -3.6853  -20.1515  -51.6171 H         1 UNK         0.0600 
    219 H219       -4.2963  -21.2119  -50.3639 H         1 UNK         0.0600 
    220 H220       -5.6700  -18.4956  -52.9292 H         1 UNK         0.3000 
    221 H221       -5.2583  -15.6314  -52.4754 H         1 UNK         0.0600 
    222 H222       -6.9490  -16.5467  -54.1266 H         1 UNK         0.0600 
    223 H223       -5.7766  -15.4971  -54.8912 H         1 UNK         0.0600 
    224 H224       -5.6313  -17.2437  -55.0653 H         1 UNK         0.0600 
    225 H225       -3.7899  -14.8578  -54.6471 H         1 UNK         0.3000 
    226 H226       -1.0529  -15.4462  -53.9975 H         1 UNK         0.0600 
    227 H227       -1.7785  -13.2402  -54.8744 H         1 UNK         0.0600 
    228 H228       -0.5864  -13.9569  -55.9464 H         1 UNK         0.0600 
    229 H229       -2.2880  -13.9814  -56.3926 H         1 UNK         0.0600 
    230 H230       -3.3367  -16.8353  -56.2324 H         1 UNK         0.3000 
    231 H231       -1.3087  -18.6377  -57.4736 H         1 UNK         0.0600 
    232 H232       -3.1903  -19.2744  -58.9823 H         1 UNK         0.0600 
    233 H233       -2.8924  -17.5497  -59.0516 H         1 UNK         0.0600 
    234 H234       -4.2708  -18.1554  -58.1445 H         1 UNK         0.0600 
    235 H235       -4.2531  -20.1196  -57.3498 H         1 UNK         0.3000 
    236 H236       -5.3655  -21.6266  -56.2398 H         1 UNK         0.0600 
    237 H237       -4.3861  -20.0947  -53.7903 H         1 UNK         0.0600 
    238 H238       -5.8607  -19.8030  -54.7125 H         1 UNK         0.0600 
    239 H239       -5.6914  -21.2739  -53.7655 H         1 UNK         0.0600 
    240 H240       -2.1498  -21.4547  -54.6940 H         1 UNK         0.3000 
    241 H241       -2.3121  -24.1202  -53.5868 H         1 UNK         0.0600 
    242 H242       -1.6476  -23.2477  -56.8596 H         1 UNK         0.3800 
    243 H243       -0.8113  -24.7196  -57.2828 H         1 UNK         0.3800 
    244 H244        0.1745  -22.3715  -53.8633 H         1 UNK         0.0800 
    245 H245        0.0203  -23.7862  -52.8677 H         1 UNK         0.0800 
    246 H246       -1.6317  -19.7363  -52.5949 H         1 UNK         0.0800 
    247 H247       -0.1219  -20.2649  -53.2653 H         1 UNK         0.0800 
@<TRIPOS>BOND
     1    1    2 1    
     2    1  127 1    
     3    1  128 1    
     4    1  129 1    
     5    2    3 2    
     6    2    4 am   BACKBONE|DICT|INTERRES
     7    4    5 1    
     8    4  130 1    
     9    5    6 1    
    10    5   65 1    
    11    5  131 1    
    12    6    7 1    
    13    6  132 1    
    14    6  133 1    
    15    7    8 1    
    16    8    9 1    
    17    8  134 1    
    18    8  135 1    
    19    9   10 ar   
    20    9   14 ar   
    21   10   11 ar   
    22   10  136 1    
    23   11   12 ar   
    24   11  126 1    
    25   12   13 ar   
    26   12  137 1    
    27   13   14 ar   
    28   13   15 1    
    29   14  138 1    
    30   15   16 1    
    31   15  139 1    
    32   15  140 1    
    33   16   17 1    
    34   17   18 1    
    35   17  141 1    
    36   17  142 1    
    37   18   19 1    
    38   18   67 1    
    39   18  143 1    
    40   19   20 am   BACKBONE|DICT|INTERRES
    41   19  144 1    
    42   20   21 2    
    43   20   22 1    
    44   22   23 1    
    45   22   24 1    
    46   22  145 1    
    47   23  146 1    
    48   23  147 1    
    49   23  148 1    
    50   24   25 am   BACKBONE|DICT|INTERRES
    51   24  149 1    
    52   25   26 2    
    53   25   27 1    
    54   27   28 1    
    55   27   29 1    
    56   27  150 1    
    57   28  151 1    
    58   28  152 1    
    59   28  153 1    
    60   29   30 am   BACKBONE|DICT|INTERRES
    61   29  154 1    
    62   30   31 2    
    63   30   32 1    
    64   32   33 1    
    65   32   34 1    
    66   32  155 1    
    67   33  156 1    
    68   33  157 1    
    69   33  158 1    
    70   34   35 am   BACKBONE|DICT|INTERRES
    71   34  159 1    
    72   35   36 2    
    73   35   37 1    
    74   37   38 1    
    75   37   39 1    
    76   37  160 1    
    77   38  161 1    
    78   38  162 1    
    79   38  163 1    
    80   39   40 am   BACKBONE|DICT|INTERRES
    81   39  164 1    
    82   40   41 2    
    83   40   42 1    
    84   42   43 1    
    85   42   44 1    
    86   42  165 1    
    87   43  166 1    
    88   43  167 1    
    89   43  168 1    
    90   44   45 am   BACKBONE|DICT|INTERRES
    91   44  169 1    
    92   45   46 2    
    93   45   47 1    
    94   47   48 1    
    95   47   49 1    
    96   47  170 1    
    97   48  171 1    
    98   48  172 1    
    99   48  173 1    
   100   49   50 am   BACKBONE|DICT|INTERRES
   101   49  174 1    
   102   50   51 2    
   103   50   52 1    
   104   52   53 1    
   105   52   54 1    
   106   52  175 1    
   107   53  176 1    
   108   53  177 1    
   109   53  178 1    
   110   54   55 am   BACKBONE|DICT|INTERRES
   111   54  179 1    
   112   55   56 2    
   113   55   57 1    
   114   57   58 1    
   115   57   59 1    
   116   57  180 1    
   117   58  181 1    
   118   58  182 1    
   119   58  183 1    
   120   59   60 am   BACKBONE|DICT|INTERRES
   121   59  184 1    
   122   60   61 2    
   123   60   62 1    
   124   62   63 1    
   125   62   64 1    
   126   62  185 1    
   127   63  186 1    
   128   63  187 1    
   129   63  188 1    
   130   64   65 am   BACKBONE|DICT|INTERRES
   131   64  189 1    
   132   65   66 2    
   133   67   68 2    
   134   67   69 am   BACKBONE|DICT|INTERRES
   135   69   70 1    
   136   69  190 1    
   137   70   71 1    
   138   70   72 1    
   139   70  191 1    
   140   71  192 1    
   141   71  193 1    
   142   71  194 1    
   143   72   73 2    
   144   72   74 am   BACKBONE|DICT|INTERRES
   145   74   75 1    
   146   74  195 1    
   147   75   76 1    
   148   75   77 1    
   149   75  196 1    
   150   76  197 1    
   151   76  198 1    
   152   76  199 1    
   153   77   78 2    
   154   77   79 am   BACKBONE|DICT|INTERRES
   155   79   80 1    
   156   79  200 1    
   157   80   81 1    
   158   80   82 1    
   159   80  201 1    
   160   81  202 1    
   161   81  203 1    
   162   81  204 1    
   163   82   83 2    
   164   82   84 am   BACKBONE|DICT|INTERRES
   165   84   85 1    
   166   84  205 1    
   167   85   86 1    
   168   85   87 1    
   169   85  206 1    
   170   86  207 1    
   171   86  208 1    
   172   86  209 1    
   173   87   88 2    
   174   87   89 am   BACKBONE|DICT|INTERRES
   175   89   90 1    
   176   89  210 1    
   177   90   91 1    
   178   90   92 1    
   179   90  211 1    
   180   91  212 1    
   181   91  213 1    
   182   91  214 1    
   183   92   93 2    
   184   92   94 am   BACKBONE|DICT|INTERRES
   185   94   95 1    
   186   94  215 1    
   187   95   96 1    
   188   95   97 1    
   189   95  216 1    
   190   96  217 1    
   191   96  218 1    
   192   96  219 1    
   193   97   98 2    
   194   97   99 am   BACKBONE|DICT|INTERRES
   195   99  100 1    
   196   99  220 1    
   197  100  101 1    
   198  100  102 1    
   199  100  221 1    
   200  101  222 1    
   201  101  223 1    
   202  101  224 1    
   203  102  103 2    
   204  102  104 am   BACKBONE|DICT|INTERRES
   205  104  105 1    
   206  104  225 1    
   207  105  106 1    
   208  105  107 1    
   209  105  226 1    
   210  106  227 1    
   211  106  228 1    
   212  106  229 1    
   213  107  108 2    
   214  107  109 am   BACKBONE|DICT|INTERRES
   215  109  110 1    
   216  109  230 1    
   217  110  111 1    
   218  110  112 1    
   219  110  231 1    
   220  111  232 1    
   221  111  233 1    
   222  111  234 1    
   223  112  113 2    
   224  112  114 am   BACKBONE|DICT|INTERRES
   225  114  115 1    
   226  114  235 1    
   227  115  116 1    
   228  115  117 1    
   229  115  236 1    
   230  116  237 1    
   231  116  238 1    
   232  116  239 1    
   233  117  118 2    
   234  117  119 am   BACKBONE|DICT|INTERRES
   235  119  120 1    
   236  119  240 1    
   237  120  121 1    
   238  120  124 1    
   239  120  241 1    
   240  121  122 am   BACKBONE|DICT|INTERRES
   241  121  123 2    
   242  122  242 1    
   243  122  243 1    
   244  124  125 1    
   245  124  244 1    
   246  124  245 1    
   247  125  126 1    
   248  126  246 1    
   249  126  247 1    
@<TRIPOS>SUBSTRUCTURE
     1 UNK         1 GROUP             0       ****    0 ROOT    
