@<TRIPOS>MOLECULE
3R540
247   249    1
SMALL
USER_CHARGES


@<TRIPOS>ATOM
      1 CA         -1.6685  -12.5447  -45.7208 C.3       0 UNK        -0.1800 
      2 C          -1.0502  -11.2640  -46.2801 C.2       0 UNK         0.5000 
      3 O          -1.7900  -10.3104  -46.5102 O.2       0 UNK        -0.5000 
      4 N           0.2662  -11.1620  -46.5253 N.am      1 UNK        -0.5000 
      5 CA          1.3543  -12.1333  -46.3213 C.3       1 UNK         0.1400 
      6 C6          1.2915  -13.3854  -47.2374 C.3       23 UNK        -0.0398 
      7 S7          1.2962  -12.9607  -49.0125 S.3       23 UNK        -0.2404 
      8 C8         -0.4399  -13.2772  -49.4913 C.3       23 UNK        -0.0205 
      9 C9         -0.8537  -14.7427  -49.6547 C.ar      23 UNK        -0.0193 
     10 C10        -2.1289  -15.0091  -50.1607 C.ar      23 UNK        -0.1150 
     11 C11        -2.5711  -16.3207  -50.3478 C.ar      23 UNK        -0.0193 
     12 C12        -1.7250  -17.3815  -50.0163 C.ar      23 UNK        -0.1150 
     13 C13        -0.4491  -17.1432  -49.4859 C.ar      23 UNK        -0.0193 
     14 C14        -0.0257  -15.8213  -49.3168 C.ar      23 UNK        -0.1150 
     15 C15         0.4963  -18.2603  -49.0344 C.3       23 UNK        -0.0205 
     16 S16         0.2592  -19.8879  -49.8141 S.3       23 UNK        -0.2404 
     17 C17        -1.1854  -20.5248  -48.9025 C.3       23 UNK        -0.0398 
     18 CA         -0.8421  -21.7384  -48.0157 C.3       11 UNK         0.1400 
     19 N          -0.0521  -21.3676  -46.8422 N.am      11 UNK        -0.5000 
     20 C           0.8050  -22.1852  -46.2164 C.2       10 UNK         0.5000 
     21 O           1.0871  -23.3160  -46.6126 O.2       10 UNK        -0.5000 
     22 CA          1.4333  -21.6625  -44.9087 C.3       10 UNK         0.1400 
     23 CB          2.7606  -20.9459  -45.1972 C.3       10 UNK        -0.1800 
     24 N           0.5489  -20.7587  -44.1703 N.am      10 UNK        -0.5000 
     25 C          -0.6255  -21.1213  -43.6313 C.2       9 UNK         0.5000 
     26 O          -1.0650  -22.2716  -43.6578 O.2       9 UNK        -0.5000 
     27 CA         -1.4818  -20.0019  -43.0114 C.3       9 UNK         0.1400 
     28 CB         -1.2093  -19.8879  -41.5063 C.3       9 UNK        -0.1800 
     29 N          -1.2945  -18.7011  -43.6593 N.am      9 UNK        -0.5000 
     30 C          -1.5882  -18.4385  -44.9426 C.2       8 UNK         0.5000 
     31 O          -2.0338  -19.2916  -45.7126 O.2       8 UNK        -0.5000 
     32 CA         -1.2761  -17.0302  -45.4903 C.3       8 UNK         0.1400 
     33 CB         -2.4278  -16.4574  -46.3400 C.3       8 UNK        -0.1800 
     34 N          -0.8116  -16.0721  -44.4825 N.am      8 UNK        -0.5000 
     35 C          -1.5014  -15.5069  -43.4811 C.2       7 UNK         0.5000 
     36 O          -2.7015  -15.6845  -43.2729 O.2       7 UNK        -0.5000 
     37 CA         -0.6653  -14.6034  -42.5518 C.3       7 UNK         0.1400 
     38 CB         -1.3912  -14.2097  -41.2483 C.3       7 UNK        -0.1800 
     39 N           0.6654  -15.1737  -42.2874 N.am      7 UNK        -0.5000 
     40 C           0.9214  -16.3105  -41.6187 C.2       6 UNK         0.5000 
     41 O           0.0510  -16.9889  -41.0758 O.2       6 UNK        -0.5000 
     42 CA          2.3923  -16.7803  -41.5957 C.3       6 UNK         0.1400 
     43 CB          2.5623  -18.2188  -41.0634 C.3       6 UNK        -0.1800 
     44 N           3.0541  -16.6402  -42.8965 N.am      6 UNK        -0.5000 
     45 C           2.6839  -17.1976  -44.0603 C.2       5 UNK         0.5000 
     46 O           1.7039  -17.9343  -44.1898 O.2       5 UNK        -0.5000 
     47 CA          3.5356  -16.8354  -45.2888 C.3       5 UNK         0.1400 
     48 CB          2.7186  -16.8547  -46.5906 C.3       5 UNK        -0.1800 
     49 N           4.1526  -15.5194  -45.1109 N.am      5 UNK        -0.5000 
     50 C           5.4424  -15.2447  -45.3400 C.2       4 UNK         0.5000 
     51 O           6.2423  -16.0457  -45.8250 O.2       4 UNK        -0.5000 
     52 CA          5.9328  -13.8454  -44.9250 C.3       4 UNK         0.1400 
     53 CB          5.6053  -12.8170  -46.0186 C.3       4 UNK        -0.1800 
     54 N           5.3875  -13.3751  -43.6484 N.am      4 UNK        -0.5000 
     55 C           5.5070  -13.9703  -42.4539 C.2       3 UNK         0.5000 
     56 O           6.0604  -15.0565  -42.2866 O.2       3 UNK        -0.5000 
     57 CA          4.8683  -13.2626  -41.2382 C.3       3 UNK         0.1400 
     58 CB          5.8206  -12.2076  -40.6436 C.3       3 UNK        -0.1800 
     59 N           3.5296  -12.7080  -41.4932 N.am      3 UNK        -0.5000 
     60 C           3.1863  -11.7069  -42.3143 C.2       2 UNK         0.5000 
     61 O           3.9912  -11.0180  -42.9453 O.2       2 UNK        -0.5000 
     62 CA          1.6801  -11.4903  -42.5331 C.3       2 UNK         0.1400 
     63 CB          1.2122  -10.1774  -41.8895 C.3       2 UNK        -0.1800 
     64 N           1.3682  -11.4672  -43.9629 N.am      2 UNK        -0.5000 
     65 C           1.5937  -12.4656  -44.8304 C.2       1 UNK         0.5000 
     66 O           1.9644  -13.5948  -44.4900 O.2       1 UNK        -0.5000 
     67 C          -2.1314  -22.4592  -47.5878 C.2       11 UNK         0.5000 
     68 O          -2.4904  -23.4614  -48.2059 O.2       11 UNK        -0.5000 
     69 N          -2.8056  -21.9570  -46.5406 N.am      12 UNK        -0.5000 
     70 CA         -4.0666  -22.4975  -46.0165 C.3       12 UNK         0.1400 
     71 CB         -4.5816  -21.6094  -44.8770 C.3       12 UNK        -0.1800 
     72 C          -3.9688  -23.9630  -45.5531 C.2       12 UNK         0.5000 
     73 O          -4.9417  -24.7046  -45.6891 O.2       12 UNK        -0.5000 
     74 N          -2.7789  -24.3755  -45.0943 N.am      13 UNK        -0.5000 
     75 CA         -2.4163  -25.7631  -44.7919 C.3       13 UNK         0.1400 
     76 CB         -0.9906  -25.7828  -44.2201 C.3       13 UNK        -0.1800 
     77 C          -2.5247  -26.7239  -45.9987 C.2       13 UNK         0.5000 
     78 O          -2.7097  -27.9243  -45.7963 O.2       13 UNK        -0.5000 
     79 N          -2.4315  -26.1827  -47.2208 N.am      14 UNK        -0.5000 
     80 CA         -2.6079  -26.8849  -48.4924 C.3       14 UNK         0.1400 
     81 CB         -1.3977  -26.5716  -49.3910 C.3       14 UNK        -0.1800 
     82 C          -3.9335  -26.4927  -49.1815 C.2       14 UNK         0.5000 
     83 O          -4.0915  -26.7595  -50.3716 O.2       14 UNK        -0.5000 
     84 N          -4.8542  -25.8564  -48.4386 N.am      15 UNK        -0.5000 
     85 CA         -6.1551  -25.3271  -48.8726 C.3       15 UNK         0.1400 
     86 CB         -7.0645  -26.4419  -49.4304 C.3       15 UNK        -0.1800 
     87 C          -6.0632  -24.1004  -49.8083 C.2       15 UNK         0.5000 
     88 O          -7.0582  -23.7425  -50.4421 O.2       15 UNK        -0.5000 
     89 N          -4.8900  -23.4516  -49.8414 N.am      16 UNK        -0.5000 
     90 CA         -4.5611  -22.2168  -50.5537 C.3       16 UNK         0.1400 
     91 CB         -5.0987  -20.9971  -49.7731 C.3       16 UNK        -0.1800 
     92 C          -4.9635  -22.2447  -52.0416 C.2       16 UNK         0.5000 
     93 O          -4.4370  -23.0648  -52.7970 O.2       16 UNK        -0.5000 
     94 N          -5.8903  -21.3619  -52.4375 N.am      17 UNK        -0.5000 
     95 CA         -6.3714  -21.1718  -53.8060 C.3       17 UNK         0.1400 
     96 CB         -7.3697  -20.0056  -53.8259 C.3       17 UNK        -0.1800 
     97 C          -6.9846  -22.4277  -54.4567 C.2       17 UNK         0.5000 
     98 O          -6.9620  -22.5283  -55.6831 O.2       17 UNK        -0.5000 
     99 N          -7.4581  -23.3889  -53.6484 N.am      18 UNK        -0.5000 
    100 CA        -7.9304  -24.6980  -54.1126 C.3       18 UNK         0.1400 
    101 CB        -8.6184  -25.4310  -52.9526 C.3       18 UNK        -0.1800 
    102 C         -6.8101  -25.5728  -54.7162 C.2       18 UNK         0.5000 
    103 O         -7.0979  -26.4248  -55.5572 O.2       18 UNK        -0.5000 
    104 N         -5.5598  -25.3271  -54.3023 N.am      19 UNK        -0.5000 
    105 CA        -4.3434  -25.9388  -54.8400 C.3       19 UNK         0.1400 
    106 CB        -3.5089  -26.4701  -53.6625 C.3       19 UNK        -0.1800 
    107 C         -3.5322  -24.9343  -55.6862 C.2       19 UNK         0.5000 
    108 O         -2.3832  -25.2204  -56.0243 O.2       19 UNK        -0.5000 
    109 N         -4.1280  -23.7691  -55.9895 N.am      20 UNK        -0.5000 
    110 CA        -3.5542  -22.6066  -56.6799 C.3       20 UNK         0.1400 
    111 CB        -3.1405  -22.9631  -58.1224 C.3       20 UNK        -0.1800 
    112 C         -2.4233  -21.8976  -55.9005 C.2       20 UNK         0.5000 
    113 O         -1.7270  -21.0550  -56.4716 O.2       20 UNK        -0.5000 
    114 N         -2.2737  -22.2073  -54.6056 N.am      21 UNK        -0.5000 
    115 CA        -1.3024  -21.6045  -53.6981 C.3       21 UNK         0.1400 
    116 CB        -0.9724  -22.6047  -52.5748 C.3       21 UNK        -0.1800 
    117 C         -1.8516  -20.2671  -53.1738 C.2       21 UNK         0.5000 
    118 O         -2.3582  -20.1980  -52.0559 O.2       21 UNK        -0.5000 
    119 N         -1.7887  -19.2456  -54.0296 N.am      22 UNK        -0.5000 
    120 CA        -2.2024  -17.8583  -53.7810 C.3       22 UNK         0.1400 
    121 C         -1.7713  -16.9282  -54.9511 C.2       22 UNK         0.5000 
    122 N         -1.6681  -17.4160  -56.1846 N.am      22 UNK        -0.7600 
    123 O         -1.4896  -15.7527  -54.7393 O.2       22 UNK        -0.5000 
    124 C124       -3.7198  -17.7222  -53.4615 C.3       23 UNK        -0.0398 
    125 S125       -4.1636  -16.1591  -52.6287 S.3       23 UNK        -0.2404 
    126 C126       -3.9802  -16.5816  -50.8648 C.3       23 UNK        -0.0205 
    127 H127       -0.9458  -13.3088  -45.4581 H         1 UNK         0.0600 
    128 H128       -2.3527  -12.9731  -46.4529 H         1 UNK         0.0600 
    129 H129       -2.2420  -12.3151  -44.8229 H         1 UNK         0.0600 
    130 H130        0.5830  -10.2845  -46.9135 H         1 UNK         0.3000 
    131 H131        2.2565  -11.5932  -46.6124 H         1 UNK         0.0600 
    132 H132        2.1774  -14.0000  -47.0747 H         1 UNK         0.0800 
    133 H133        0.4382  -14.0220  -47.0087 H         1 UNK         0.0800 
    134 H134       -0.6103  -12.7695  -50.4418 H         1 UNK         0.0800 
    135 H135       -1.1040  -12.7998  -48.7716 H         1 UNK         0.0800 
    136 H136       -2.7855  -14.1887  -50.4155 H         1 UNK         0.1150 
    137 H137       -2.0813  -18.3876  -50.1668 H         1 UNK         0.1150 
    138 H138        0.9598  -15.6464  -48.9132 H         1 UNK         0.1150 
    139 H139        0.4142  -18.3787  -47.9552 H         1 UNK         0.0800 
    140 H140        1.5251  -17.9580  -49.2352 H         1 UNK         0.0800 
    141 H141       -1.9248  -20.8000  -49.6512 H         1 UNK         0.0800 
    142 H142       -1.6436  -19.7319  -48.3101 H         1 UNK         0.0800 
    143 H143       -0.2710  -22.4444  -48.6233 H         1 UNK         0.0600 
    144 H144       -0.2685  -20.4766  -46.4176 H         1 UNK         0.3000 
    145 H145        1.6395  -22.5247  -44.2712 H         1 UNK         0.0600 
    146 H146        3.4650  -21.6141  -45.6941 H         1 UNK         0.0600 
    147 H147        3.2321  -20.6007  -44.2767 H         1 UNK         0.0600 
    148 H148        2.6163  -20.0812  -45.8450 H         1 UNK         0.0600 
    149 H149        0.8363  -19.7862  -44.1100 H         1 UNK         0.3000 
    150 H150       -2.5294  -20.2723  -43.1360 H         1 UNK         0.0600 
    151 H151       -0.1651  -19.6531  -41.3030 H         1 UNK         0.0600 
    152 H152       -1.4369  -20.8257  -40.9981 H         1 UNK         0.0600 
    153 H153       -1.8249  -19.1128  -41.0495 H         1 UNK         0.0600 
    154 H154       -0.8898  -17.9677  -43.0932 H         1 UNK         0.3000 
    155 H155       -0.4282  -17.1682  -46.1596 H         1 UNK         0.0600 
    156 H156       -3.3367  -16.3150  -45.7559 H         1 UNK         0.0600 
    157 H157       -2.6758  -17.1269  -47.1644 H         1 UNK         0.0600 
    158 H158       -2.1533  -15.4990  -46.7801 H         1 UNK         0.0600 
    159 H159        0.1822  -15.8943  -44.5031 H         1 UNK         0.3000 
    160 H160       -0.5029  -13.6823  -43.1090 H         1 UNK         0.0600 
    161 H161       -1.6852  -15.0806  -40.6623 H         1 UNK         0.0600 
    162 H162       -2.2991  -13.6462  -41.4661 H         1 UNK         0.0600 
    163 H163       -0.7617  -13.5791  -40.6207 H         1 UNK         0.0600 
    164 H164        1.4296  -14.7244  -42.7779 H         1 UNK         0.3000 
    165 H165        2.9117  -16.1123  -40.9076 H         1 UNK         0.0600 
    166 H166        2.1370  -18.3231  -40.0646 H         1 UNK         0.0600 
    167 H167        2.0744  -18.9510  -41.7069 H         1 UNK         0.0600 
    168 H168        3.6162  -18.4883  -40.9950 H         1 UNK         0.0600 
    169 H169        3.9015  -16.0895  -42.9012 H         1 UNK         0.3000 
    170 H170        4.3056  -17.6062  -45.3576 H         1 UNK         0.0600 
    171 H171        3.3078  -16.5029  -47.4375 H         1 UNK         0.0600 
    172 H172        1.8263  -16.2345  -46.5158 H         1 UNK         0.0600 
    173 H173        2.3970  -17.8694  -46.8202 H         1 UNK         0.0600 
    174 H174        3.5495  -14.7893  -44.7435 H         1 UNK         0.3000 
    175 H175        7.0180  -13.8957  -44.8163 H         1 UNK         0.0600 
    176 H176        6.0237  -13.1203  -46.9792 H         1 UNK         0.0600 
    177 H177        4.5296  -12.7000  -46.1513 H         1 UNK         0.0600 
    178 H178        6.0215  -11.8386  -45.7776 H         1 UNK         0.0600 
    179 H179        4.9190  -12.4730  -43.6584 H         1 UNK         0.3000 
    180 H180        4.7242  -14.0299  -40.4757 H         1 UNK         0.0600 
    181 H181        6.0565  -11.4172  -41.3563 H         1 UNK         0.0600 
    182 H182        6.7648  -12.6641  -40.3441 H         1 UNK         0.0600 
    183 H183        5.3893  -11.7426  -39.7572 H         1 UNK         0.0600 
    184 H184        2.7828  -13.1937  -41.0177 H         1 UNK         0.3000 
    185 H185        1.1291  -12.3102  -42.0723 H         1 UNK         0.0600 
    186 H186        1.4178  -10.1731  -40.8183 H         1 UNK         0.0600 
    187 H187        1.7160   -9.3130  -42.3242 H         1 UNK         0.0600 
    188 H188        0.1381  -10.0381  -42.0142 H         1 UNK         0.0600 
    189 H189        1.0740  -10.5766  -44.3370 H         1 UNK         0.3000 
    190 H190       -2.4733  -21.0960  -46.1146 H         1 UNK         0.3000 
    191 H191       -4.7942  -22.4603  -46.8294 H         1 UNK         0.0600 
    192 H192       -4.5801  -20.5552  -45.1553 H         1 UNK         0.0600 
    193 H193       -5.6058  -21.8762  -44.6139 H         1 UNK         0.0600 
    194 H194       -3.9784  -21.7287  -43.9783 H         1 UNK         0.0600 
    195 H195       -2.0556  -23.6792  -44.9529 H         1 UNK         0.3000 
    196 H196       -3.1021  -26.1246  -44.0232 H         1 UNK         0.0600 
    197 H197       -0.6862  -26.7969  -43.9577 H         1 UNK         0.0600 
    198 H198       -0.9201  -25.1783  -43.3155 H         1 UNK         0.0600 
    199 H199       -0.2660  -25.3958  -44.9380 H         1 UNK         0.0600 
    200 H200       -2.3052  -25.1785  -47.3040 H         1 UNK         0.3000 
    201 H201       -2.6407  -27.9639  -48.3304 H         1 UNK         0.0600 
    202 H202       -1.4445  -27.1316  -50.3258 H         1 UNK         0.0600 
    203 H203       -0.4625  -26.8411  -48.9001 H         1 UNK         0.0600 
    204 H204       -1.3489  -25.5121  -49.6456 H         1 UNK         0.0600 
    205 H205       -4.6360  -25.6809  -47.4638 H         1 UNK         0.3000 
    206 H206       -6.6311  -24.9559  -47.9641 H         1 UNK         0.0600 
    207 H207       -7.1317  -27.2793  -48.7361 H         1 UNK         0.0600 
    208 H208       -8.0789  -26.0753  -49.5917 H         1 UNK         0.0600 
    209 H209       -6.7027  -26.8251  -50.3844 H         1 UNK         0.0600 
    210 H210       -4.1259  -23.8328  -49.2937 H         1 UNK         0.3000 
    211 H211       -3.4752  -22.1571  -50.5487 H         1 UNK         0.0600 
    212 H212       -4.6807  -20.9634  -48.7677 H         1 UNK         0.0600 
    213 H213       -4.8165  -20.0625  -50.2597 H         1 UNK         0.0600 
    214 H214       -6.1848  -21.0171  -49.6767 H         1 UNK         0.0600 
    215 H215       -6.2903  -20.7547  -51.7376 H         1 UNK         0.3000 
    216 H216       -5.5079  -20.8885  -54.4113 H         1 UNK         0.0600 
    217 H217       -8.2406  -20.2123  -53.2026 H         1 UNK         0.0600 
    218 H218       -7.7281  -19.8138  -54.8382 H         1 UNK         0.0600 
    219 H219       -6.9090  -19.0848  -53.4670 H         1 UNK         0.0600 
    220 H220       -7.4106  -23.2532  -52.6451 H         1 UNK         0.3000 
    221 H221       -8.6730  -24.5279  -54.8949 H         1 UNK         0.0600 
    222 H222       -7.9131  -25.6638  -52.1558 H         1 UNK         0.0600 
    223 H223       -9.4237  -24.8331  -52.5256 H         1 UNK         0.0600 
    224 H224       -9.0537  -26.3727  -53.2892 H         1 UNK         0.0600 
    225 H225       -5.4046  -24.5935  -53.6168 H         1 UNK         0.3000 
    226 H226       -4.5905  -26.7797  -55.4906 H         1 UNK         0.0600 
    227 H227       -4.0729  -27.2013  -53.0835 H         1 UNK         0.0600 
    228 H228       -2.6012  -26.9656  -54.0086 H         1 UNK         0.0600 
    229 H229       -3.2102  -25.6678  -52.9860 H         1 UNK         0.0600 
    230 H230       -5.0873  -23.6499  -55.6893 H         1 UNK         0.3000 
    231 H231       -4.3629  -21.8779  -56.7475 H         1 UNK         0.0600 
    232 H232       -2.2747  -23.6253  -58.1460 H         1 UNK         0.0600 
    233 H233       -2.8784  -22.0675  -58.6868 H         1 UNK         0.0600 
    234 H234       -3.9543  -23.4537  -58.6564 H         1 UNK         0.0600 
    235 H235       -2.9481  -22.8309  -54.1758 H         1 UNK         0.3000 
    236 H236       -0.3747  -21.4011  -54.2374 H         1 UNK         0.0600 
    237 H237       -1.8591  -22.9143  -52.0244 H         1 UNK         0.0600 
    238 H238       -0.5063  -23.5037  -52.9781 H         1 UNK         0.0600 
    239 H239       -0.2752  -22.1707  -51.8576 H         1 UNK         0.0600 
    240 H240       -1.3682  -19.4140  -54.9341 H         1 UNK         0.3000 
    241 H241       -1.6379  -17.5326  -52.9060 H         1 UNK         0.0600 
    242 H242       -1.3696  -16.7974  -56.9230 H         1 UNK         0.3800 
    243 H243       -1.9296  -18.3617  -56.4160 H         1 UNK         0.3800 
    244 H244       -4.0720  -18.5376  -52.8316 H         1 UNK         0.0800 
    245 H245       -4.3070  -17.8039  -54.3776 H         1 UNK         0.0800 
    246 H246       -4.6793  -15.9723  -50.2903 H         1 UNK         0.0800 
    247 H247       -4.2753  -17.6172  -50.6916 H         1 UNK         0.0800 
@<TRIPOS>BOND
     1    1    2 1    
     2    1  127 1    
     3    1  128 1    
     4    1  129 1    
     5    2    3 2    
     6    2    4 am   BACKBONE|DICT|INTERRES
     7    4    5 1    
     8    4  130 1    
     9    5    6 1    
    10    5   65 1    
    11    5  131 1    
    12    6    7 1    
    13    6  132 1    
    14    6  133 1    
    15    7    8 1    
    16    8    9 1    
    17    8  134 1    
    18    8  135 1    
    19    9   10 ar   
    20    9   14 ar   
    21   10   11 ar   
    22   10  136 1    
    23   11   12 ar   
    24   11  126 1    
    25   12   13 ar   
    26   12  137 1    
    27   13   14 ar   
    28   13   15 1    
    29   14  138 1    
    30   15   16 1    
    31   15  139 1    
    32   15  140 1    
    33   16   17 1    
    34   17   18 1    
    35   17  141 1    
    36   17  142 1    
    37   18   19 1    
    38   18   67 1    
    39   18  143 1    
    40   19   20 am   BACKBONE|DICT|INTERRES
    41   19  144 1    
    42   20   21 2    
    43   20   22 1    
    44   22   23 1    
    45   22   24 1    
    46   22  145 1    
    47   23  146 1    
    48   23  147 1    
    49   23  148 1    
    50   24   25 am   BACKBONE|DICT|INTERRES
    51   24  149 1    
    52   25   26 2    
    53   25   27 1    
    54   27   28 1    
    55   27   29 1    
    56   27  150 1    
    57   28  151 1    
    58   28  152 1    
    59   28  153 1    
    60   29   30 am   BACKBONE|DICT|INTERRES
    61   29  154 1    
    62   30   31 2    
    63   30   32 1    
    64   32   33 1    
    65   32   34 1    
    66   32  155 1    
    67   33  156 1    
    68   33  157 1    
    69   33  158 1    
    70   34   35 am   BACKBONE|DICT|INTERRES
    71   34  159 1    
    72   35   36 2    
    73   35   37 1    
    74   37   38 1    
    75   37   39 1    
    76   37  160 1    
    77   38  161 1    
    78   38  162 1    
    79   38  163 1    
    80   39   40 am   BACKBONE|DICT|INTERRES
    81   39  164 1    
    82   40   41 2    
    83   40   42 1    
    84   42   43 1    
    85   42   44 1    
    86   42  165 1    
    87   43  166 1    
    88   43  167 1    
    89   43  168 1    
    90   44   45 am   BACKBONE|DICT|INTERRES
    91   44  169 1    
    92   45   46 2    
    93   45   47 1    
    94   47   48 1    
    95   47   49 1    
    96   47  170 1    
    97   48  171 1    
    98   48  172 1    
    99   48  173 1    
   100   49   50 am   BACKBONE|DICT|INTERRES
   101   49  174 1    
   102   50   51 2    
   103   50   52 1    
   104   52   53 1    
   105   52   54 1    
   106   52  175 1    
   107   53  176 1    
   108   53  177 1    
   109   53  178 1    
   110   54   55 am   BACKBONE|DICT|INTERRES
   111   54  179 1    
   112   55   56 2    
   113   55   57 1    
   114   57   58 1    
   115   57   59 1    
   116   57  180 1    
   117   58  181 1    
   118   58  182 1    
   119   58  183 1    
   120   59   60 am   BACKBONE|DICT|INTERRES
   121   59  184 1    
   122   60   61 2    
   123   60   62 1    
   124   62   63 1    
   125   62   64 1    
   126   62  185 1    
   127   63  186 1    
   128   63  187 1    
   129   63  188 1    
   130   64   65 am   BACKBONE|DICT|INTERRES
   131   64  189 1    
   132   65   66 2    
   133   67   68 2    
   134   67   69 am   BACKBONE|DICT|INTERRES
   135   69   70 1    
   136   69  190 1    
   137   70   71 1    
   138   70   72 1    
   139   70  191 1    
   140   71  192 1    
   141   71  193 1    
   142   71  194 1    
   143   72   73 2    
   144   72   74 am   BACKBONE|DICT|INTERRES
   145   74   75 1    
   146   74  195 1    
   147   75   76 1    
   148   75   77 1    
   149   75  196 1    
   150   76  197 1    
   151   76  198 1    
   152   76  199 1    
   153   77   78 2    
   154   77   79 am   BACKBONE|DICT|INTERRES
   155   79   80 1    
   156   79  200 1    
   157   80   81 1    
   158   80   82 1    
   159   80  201 1    
   160   81  202 1    
   161   81  203 1    
   162   81  204 1    
   163   82   83 2    
   164   82   84 am   BACKBONE|DICT|INTERRES
   165   84   85 1    
   166   84  205 1    
   167   85   86 1    
   168   85   87 1    
   169   85  206 1    
   170   86  207 1    
   171   86  208 1    
   172   86  209 1    
   173   87   88 2    
   174   87   89 am   BACKBONE|DICT|INTERRES
   175   89   90 1    
   176   89  210 1    
   177   90   91 1    
   178   90   92 1    
   179   90  211 1    
   180   91  212 1    
   181   91  213 1    
   182   91  214 1    
   183   92   93 2    
   184   92   94 am   BACKBONE|DICT|INTERRES
   185   94   95 1    
   186   94  215 1    
   187   95   96 1    
   188   95   97 1    
   189   95  216 1    
   190   96  217 1    
   191   96  218 1    
   192   96  219 1    
   193   97   98 2    
   194   97   99 am   BACKBONE|DICT|INTERRES
   195   99  100 1    
   196   99  220 1    
   197  100  101 1    
   198  100  102 1    
   199  100  221 1    
   200  101  222 1    
   201  101  223 1    
   202  101  224 1    
   203  102  103 2    
   204  102  104 am   BACKBONE|DICT|INTERRES
   205  104  105 1    
   206  104  225 1    
   207  105  106 1    
   208  105  107 1    
   209  105  226 1    
   210  106  227 1    
   211  106  228 1    
   212  106  229 1    
   213  107  108 2    
   214  107  109 am   BACKBONE|DICT|INTERRES
   215  109  110 1    
   216  109  230 1    
   217  110  111 1    
   218  110  112 1    
   219  110  231 1    
   220  111  232 1    
   221  111  233 1    
   222  111  234 1    
   223  112  113 2    
   224  112  114 am   BACKBONE|DICT|INTERRES
   225  114  115 1    
   226  114  235 1    
   227  115  116 1    
   228  115  117 1    
   229  115  236 1    
   230  116  237 1    
   231  116  238 1    
   232  116  239 1    
   233  117  118 2    
   234  117  119 am   BACKBONE|DICT|INTERRES
   235  119  120 1    
   236  119  240 1    
   237  120  121 1    
   238  120  124 1    
   239  120  241 1    
   240  121  122 am   BACKBONE|DICT|INTERRES
   241  121  123 2    
   242  122  242 1    
   243  122  243 1    
   244  124  125 1    
   245  124  244 1    
   246  124  245 1    
   247  125  126 1    
   248  126  246 1    
   249  126  247 1    
@<TRIPOS>SUBSTRUCTURE
     1 UNK         1 GROUP             0       ****    0 ROOT    
