@<TRIPOS>MOLECULE
3R540
247   249    1
SMALL
USER_CHARGES


@<TRIPOS>ATOM
      1 CA          1.5439  -10.8133  -46.7559 C.3       0 UNK        -0.1800 
      2 C           0.6495  -12.0267  -46.5551 C.2       0 UNK         0.5000 
      3 O           0.8612  -12.8055  -45.6215 O.2       0 UNK        -0.5000 
      4 N          -0.3646  -12.1791  -47.4156 N.am      1 UNK        -0.5000 
      5 CA         -1.3866  -13.2337  -47.3710 C.3       1 UNK         0.1400 
      6 C6         -2.0249  -13.4791  -48.7619 C.3       23 UNK        -0.0398 
      7 S7         -0.8586  -14.2996  -49.9021 S.3       23 UNK        -0.2404 
      8 C8         -1.4787  -16.0056  -49.7910 C.3       23 UNK        -0.0205 
      9 C9         -0.6038  -16.9908  -50.5485 C.ar      23 UNK        -0.0193 
     10 C10        -0.9041  -17.3379  -51.8685 C.ar      23 UNK        -0.1150 
     11 C11        -0.1451  -18.3021  -52.5391 C.ar      23 UNK        -0.0193 
     12 C12         0.9158  -18.9274  -51.8740 C.ar      23 UNK        -0.1150 
     13 C13         1.2344  -18.5782  -50.5585 C.ar      23 UNK        -0.0193 
     14 C14         0.4803  -17.5958  -49.9089 C.ar      23 UNK        -0.1150 
     15 C15         2.3762  -19.2743  -49.8268 C.3       23 UNK        -0.0205 
     16 S16         1.8598  -20.8531  -49.0680 S.3       23 UNK        -0.2404 
     17 C17         0.4858  -20.2917  -48.0149 C.3       23 UNK        -0.0398 
     18 CA         -0.1289  -21.3996  -47.1339 C.3       11 UNK         0.1400 
     19 N           0.7823  -21.8455  -46.0771 N.am      11 UNK        -0.5000 
     20 C           0.5860  -22.9113  -45.2898 C.2       10 UNK         0.5000 
     21 O          -0.4839  -23.5206  -45.2431 O.2       10 UNK        -0.5000 
     22 CA          1.7842  -23.4090  -44.4491 C.3       10 UNK         0.1400 
     23 CB          3.1333  -22.7729  -44.8308 C.3       10 UNK        -0.1800 
     24 N           1.5440  -23.1922  -43.0275 N.am      10 UNK        -0.5000 
     25 C           0.7947  -23.9818  -42.2476 C.2       9 UNK         0.5000 
     26 O           0.3778  -25.0875  -42.5950 O.2       9 UNK        -0.5000 
     27 CA          0.4442  -23.4643  -40.8359 C.3       9 UNK         0.1400 
     28 CB          1.2591  -24.2162  -39.7719 C.3       9 UNK        -0.1800 
     29 N           0.6329  -22.0255  -40.6340 N.am      9 UNK        -0.5000 
     30 C           0.0529  -21.0295  -41.3192 C.2       8 UNK         0.5000 
     31 O          -0.7413  -21.2035  -42.2442 O.2       8 UNK        -0.5000 
     32 CA          0.4531  -19.5937  -40.9144 C.3       8 UNK         0.1400 
     33 CB          0.8159  -19.4654  -39.4204 C.3       8 UNK        -0.1800 
     34 N           1.5311  -19.0152  -41.7254 N.am      8 UNK        -0.5000 
     35 C           2.6906  -19.5730  -42.1073 C.2       7 UNK         0.5000 
     36 O           2.9989  -20.7498  -41.9107 O.2       7 UNK        -0.5000 
     37 CA          3.6752  -18.6253  -42.8226 C.3       7 UNK         0.1400 
     38 CB          4.9172  -19.3386  -43.3957 C.3       7 UNK        -0.1800 
     39 N           3.0402  -17.7960  -43.8492 N.am      7 UNK        -0.5000 
     40 C           2.3778  -18.2076  -44.9408 C.2       6 UNK         0.5000 
     41 O           2.1560  -19.3884  -45.2035 O.2       6 UNK        -0.5000 
     42 CA          1.8757  -17.1209  -45.9163 C.3       6 UNK         0.1400 
     43 CB          0.3498  -16.9663  -45.8377 C.3       6 UNK        -0.1800 
     44 N           2.4832  -15.8101  -45.6982 N.am      6 UNK        -0.5000 
     45 C           3.7627  -15.4967  -45.9448 C.2       5 UNK         0.5000 
     46 O           4.5643  -16.2558  -46.4890 O.2       5 UNK        -0.5000 
     47 CA          4.2267  -14.1104  -45.4661 C.3       5 UNK         0.1400 
     48 CB          4.2528  -13.1185  -46.6375 C.3       5 UNK        -0.1800 
     49 N           3.3732  -13.5915  -44.3902 N.am      5 UNK        -0.5000 
     50 C           3.4656  -13.9818  -43.1112 C.2       4 UNK         0.5000 
     51 O           4.2909  -14.8042  -42.7120 O.2       4 UNK        -0.5000 
     52 CA          2.4635  -13.3648  -42.1167 C.3       4 UNK         0.1400 
     53 CB          2.3838  -11.8336  -42.2548 C.3       4 UNK        -0.1800 
     54 N           1.1140  -13.9210  -42.2207 N.am      4 UNK        -0.5000 
     55 C           0.7516  -15.1974  -42.0392 C.2       3 UNK         0.5000 
     56 O           1.5452  -16.1115  -41.8231 O.2       3 UNK        -0.5000 
     57 CA         -0.7503  -15.5434  -42.1239 C.3       3 UNK         0.1400 
     58 CB         -1.3505  -15.7568  -40.7216 C.3       3 UNK        -0.1800 
     59 N          -1.5664  -14.6205  -42.9277 N.am      3 UNK        -0.5000 
     60 C          -1.8995  -13.3449  -42.6776 C.2       2 UNK         0.5000 
     61 O          -1.5367  -12.7217  -41.6800 O.2       2 UNK        -0.5000 
     62 CA         -2.6817  -12.6394  -43.7962 C.3       2 UNK         0.1400 
     63 CB         -2.8964  -11.1349  -43.5449 C.3       2 UNK        -0.1800 
     64 N          -1.9369  -12.8348  -45.0334 N.am      2 UNK        -0.5000 
     65 C          -2.4317  -12.9491  -46.2670 C.2       1 UNK         0.5000 
     66 O          -3.6286  -12.8393  -46.5370 O.2       1 UNK        -0.5000 
     67 C          -1.5055  -20.9279  -46.6323 C.2       11 UNK         0.5000 
     68 O          -2.4870  -21.1215  -47.3512 O.2       11 UNK        -0.5000 
     69 N          -1.5671  -20.2966  -45.4511 N.am      12 UNK        -0.5000 
     70 CA         -2.8158  -19.7490  -44.9141 C.3       12 UNK         0.1400 
     71 CB         -2.5297  -18.7013  -43.8282 C.3       12 UNK        -0.1800 
     72 C          -3.7612  -20.8539  -44.4161 C.2       12 UNK         0.5000 
     73 O          -4.9548  -20.8060  -44.7131 O.2       12 UNK        -0.5000 
     74 N          -3.2054  -21.8549  -43.7207 N.am      13 UNK        -0.5000 
     75 CA         -3.9283  -23.0490  -43.2813 C.3       13 UNK         0.1400 
     76 CB         -3.0869  -23.8053  -42.2471 C.3       13 UNK        -0.1800 
     77 C          -4.3131  -23.9728  -44.4522 C.2       13 UNK         0.5000 
     78 O          -5.4025  -24.5468  -44.4348 O.2       13 UNK        -0.5000 
     79 N          -3.4315  -24.0816  -45.4575 N.am      14 UNK        -0.5000 
     80 CA         -3.6748  -24.8336  -46.6923 C.3       14 UNK         0.1400 
     81 CB         -2.3400  -25.0484  -47.4220 C.3       14 UNK        -0.1800 
     82 C          -4.6888  -24.1565  -47.6369 C.2       14 UNK         0.5000 
     83 O          -5.2529  -24.8374  -48.4938 O.2       14 UNK        -0.5000 
     84 N          -4.8823  -22.8391  -47.4714 N.am      15 UNK        -0.5000 
     85 CA         -5.6886  -21.9367  -48.2968 C.3       15 UNK         0.1400 
     86 CB         -7.1874  -22.2874  -48.2026 C.3       15 UNK        -0.1800 
     87 C          -5.1619  -21.8757  -49.7443 C.2       15 UNK         0.5000 
     88 O          -5.9221  -22.0626  -50.6952 O.2       15 UNK        -0.5000 
     89 N          -3.8516  -21.6247  -49.8771 N.am      16 UNK        -0.5000 
     90 CA         -3.0857  -21.6608  -51.1287 C.3       16 UNK         0.1400 
     91 CB         -1.6305  -21.2840  -50.8288 C.3       16 UNK        -0.1800 
     92 C          -3.6337  -20.7637  -52.2545 C.2       16 UNK         0.5000 
     93 O          -3.5531  -21.1426  -53.4239 O.2       16 UNK        -0.5000 
     94 N          -4.1960  -19.6060  -51.8828 N.am      17 UNK        -0.5000 
     95 CA         -4.8320  -18.6638  -52.8033 C.3       17 UNK         0.1400 
     96 CB         -5.0389  -17.3193  -52.0904 C.3       17 UNK        -0.1800 
     97 C          -6.1671  -19.1883  -53.3649 C.2       17 UNK         0.5000 
     98 O          -6.4532  -18.9720  -54.5421 O.2       17 UNK        -0.5000 
     99 N          -6.9469  -19.8849  -52.5255 N.am      18 UNK        -0.5000 
    100 CA        -8.2215  -20.5039  -52.8985 C.3       18 UNK         0.1400 
    101 CB        -9.0562  -20.7650  -51.6357 C.3       18 UNK        -0.1800 
    102 C         -8.0097  -21.8051  -53.6909 C.2       18 UNK         0.5000 
    103 O         -8.7586  -22.0791  -54.6291 O.2       18 UNK        -0.5000 
    104 N         -6.9654  -22.5597  -53.3220 N.am      19 UNK        -0.5000 
    105 CA        -6.4904  -23.7526  -54.0254 C.3       19 UNK         0.1400 
    106 CB        -5.4959  -24.4927  -53.1173 C.3       19 UNK        -0.1800 
    107 C         -5.8366  -23.4383  -55.3876 C.2       19 UNK         0.5000 
    108 O         -5.6861  -24.3472  -56.2046 O.2       19 UNK        -0.5000 
    109 N         -5.4568  -22.1680  -55.5951 N.am      20 UNK        -0.5000 
    110 CA        -4.7716  -21.6100  -56.7629 C.3       20 UNK         0.1400 
    111 CB        -5.6589  -21.6946  -58.0220 C.3       20 UNK        -0.1800 
    112 C         -3.3669  -22.2129  -56.9631 C.2       20 UNK         0.5000 
    113 O         -2.9443  -22.4487  -58.0969 O.2       20 UNK        -0.5000 
    114 N         -2.6504  -22.4264  -55.8496 N.am      21 UNK        -0.5000 
    115 CA        -1.3029  -23.0057  -55.8072 C.3       21 UNK         0.1400 
    116 CB        -0.9211  -23.2653  -54.3430 C.3       21 UNK        -0.1800 
    117 C         -0.2356  -22.1321  -56.4973 C.2       21 UNK         0.5000 
    118 O          0.7817  -22.6550  -56.9535 O.2       21 UNK        -0.5000 
    119 N         -0.5079  -20.8252  -56.5801 N.am      22 UNK        -0.5000 
    120 CA         0.2675  -19.8337  -57.3373 C.3       22 UNK         0.1400 
    121 C         -0.0092  -19.8532  -58.8724 C.2       22 UNK         0.5000 
    122 N         -0.9519  -20.6364  -59.3861 N.am      22 UNK        -0.7600 
    123 O          0.6584  -19.1458  -59.6219 O.2       22 UNK        -0.5000 
    124 C124        0.0686  -18.4122  -56.7494 C.3       23 UNK        -0.0398 
    125 S125        0.8519  -18.2029  -55.1142 S.3       23 UNK        -0.2404 
    126 C126       -0.4841  -18.6815  -53.9729 C.3       23 UNK        -0.0205 
    127 H127        2.1875  -10.9538  -47.6240 H         1 UNK         0.0600 
    128 H128        2.1757  -10.6523  -45.8823 H         1 UNK         0.0600 
    129 H129        0.9463   -9.9149  -46.9107 H         1 UNK         0.0600 
    130 H130       -0.4832  -11.4970  -48.1509 H         1 UNK         0.3000 
    131 H131       -0.8972  -14.1629  -47.0736 H         1 UNK         0.0600 
    132 H132       -2.9199  -14.0989  -48.6827 H         1 UNK         0.0800 
    133 H133       -2.3541  -12.5386  -49.2063 H         1 UNK         0.0800 
    134 H134       -1.5371  -16.3023  -48.7426 H         1 UNK         0.0800 
    135 H135       -2.4989  -16.0420  -50.1743 H         1 UNK         0.0800 
    136 H136       -1.7362  -16.8641  -52.3695 H         1 UNK         0.1150 
    137 H137        1.4932  -19.6868  -52.3824 H         1 UNK         0.1150 
    138 H138        0.7149  -17.3242  -48.8903 H         1 UNK         0.1150 
    139 H139        2.7865  -18.6214  -49.0551 H         1 UNK         0.0800 
    140 H140        3.1930  -19.4685  -50.5234 H         1 UNK         0.0800 
    141 H141       -0.2748  -19.8786  -48.6752 H         1 UNK         0.0800 
    142 H142        0.8323  -19.4616  -47.4050 H         1 UNK         0.0800 
    143 H143       -0.3163  -22.2653  -47.7719 H         1 UNK         0.0600 
    144 H144        1.6446  -21.3205  -45.9883 H         1 UNK         0.3000 
    145 H145        1.8704  -24.4812  -44.6366 H         1 UNK         0.0600 
    146 H146        3.3480  -22.8988  -45.8929 H         1 UNK         0.0600 
    147 H147        3.9515  -23.2373  -44.2801 H         1 UNK         0.0600 
    148 H148        3.1532  -21.7086  -44.6063 H         1 UNK         0.0600 
    149 H149        1.8701  -22.3113  -42.6431 H         1 UNK         0.3000 
    150 H150       -0.6112  -23.6803  -40.6671 H         1 UNK         0.0600 
    151 H151        2.3267  -24.0151  -39.8697 H         1 UNK         0.0600 
    152 H152        1.1187  -25.2945  -39.8590 H         1 UNK         0.0600 
    153 H153        0.9532  -23.9318  -38.7649 H         1 UNK         0.0600 
    154 H154        1.3133  -21.7683  -39.9342 H         1 UNK         0.3000 
    155 H155       -0.4277  -18.9746  -41.0877 H         1 UNK         0.0600 
    156 H156        1.7597  -19.9569  -39.1817 H         1 UNK         0.0600 
    157 H157        0.0416  -19.8993  -38.7862 H         1 UNK         0.0600 
    158 H158        0.9132  -18.4175  -39.1357 H         1 UNK         0.0600 
    159 H159        1.4323  -18.0239  -41.9263 H         1 UNK         0.3000 
    160 H160        4.0266  -17.9338  -42.0554 H         1 UNK         0.0600 
    161 H161        4.6591  -20.0295  -44.1970 H         1 UNK         0.0600 
    162 H162        5.4362  -19.9081  -42.6240 H         1 UNK         0.0600 
    163 H163        5.6287  -18.6176  -43.7981 H         1 UNK         0.0600 
    164 H164        3.1254  -16.8000  -43.6977 H         1 UNK         0.3000 
    165 H165        2.1389  -17.4514  -46.9223 H         1 UNK         0.0600 
    166 H166       -0.0169  -16.3143  -46.6293 H         1 UNK         0.0600 
    167 H167       -0.1563  -17.9238  -45.9511 H         1 UNK         0.0600 
    168 H168        0.0405  -16.5422  -44.8839 H         1 UNK         0.0600 
    169 H169        1.8996  -15.0974  -45.2827 H         1 UNK         0.3000 
    170 H170        5.2462  -14.2094  -45.0870 H         1 UNK         0.0600 
    171 H171        4.4812  -12.1071  -46.3012 H         1 UNK         0.0600 
    172 H172        3.3013  -13.0974  -47.1672 H         1 UNK         0.0600 
    173 H173        5.0166  -13.4008  -47.3629 H         1 UNK         0.0600 
    174 H174        2.6098  -12.9836  -44.6678 H         1 UNK         0.3000 
    175 H175        2.8313  -13.5882  -41.1132 H         1 UNK         0.0600 
    176 H176        3.3771  -11.3839  -42.2259 H         1 UNK         0.0600 
    177 H177        1.9101  -11.5305  -43.1894 H         1 UNK         0.0600 
    178 H178        1.8082  -11.3980  -41.4378 H         1 UNK         0.0600 
    179 H179        0.3637  -13.2501  -42.3271 H         1 UNK         0.3000 
    180 H180       -0.8031  -16.5037  -42.6366 H         1 UNK         0.0600 
    181 H181       -1.3130  -14.8499  -40.1179 H         1 UNK         0.0600 
    182 H182       -0.8045  -16.5285  -40.1775 H         1 UNK         0.0600 
    183 H183       -2.3902  -16.0780  -40.7829 H         1 UNK         0.0600 
    184 H184       -1.8958  -15.0036  -43.8024 H         1 UNK         0.3000 
    185 H185       -3.6556  -13.1280  -43.8691 H         1 UNK         0.0600 
    186 H186       -3.4481  -10.9675  -42.6192 H         1 UNK         0.0600 
    187 H187       -1.9480  -10.6019  -43.4670 H         1 UNK         0.0600 
    188 H188       -3.4703  -10.6790  -44.3517 H         1 UNK         0.0600 
    189 H189       -0.9270  -12.9077  -44.9359 H         1 UNK         0.3000 
    190 H190       -0.7339  -20.2177  -44.8845 H         1 UNK         0.3000 
    191 H191       -3.3322  -19.2300  -45.7251 H         1 UNK         0.0600 
    192 H192       -1.9875  -17.8531  -44.2418 H         1 UNK         0.0600 
    193 H193       -3.4582  -18.3138  -43.4069 H         1 UNK         0.0600 
    194 H194       -1.9449  -19.1071  -43.0063 H         1 UNK         0.0600 
    195 H195       -2.2229  -21.7916  -43.4710 H         1 UNK         0.3000 
    196 H196       -4.8511  -22.7268  -42.7941 H         1 UNK         0.0600 
    197 H197       -3.6200  -24.6791  -41.8707 H         1 UNK         0.0600 
    198 H198       -2.8531  -23.1708  -41.3922 H         1 UNK         0.0600 
    199 H199       -2.1501  -24.1530  -42.6810 H         1 UNK         0.0600 
    200 H200       -2.5219  -23.6395  -45.3657 H         1 UNK         0.3000 
    201 H201       -4.0771  -25.8126  -46.4240 H         1 UNK         0.0600 
    202 H202       -2.4781  -25.6451  -48.3245 H         1 UNK         0.0600 
    203 H203       -1.6245  -25.5756  -46.7908 H         1 UNK         0.0600 
    204 H204       -1.8913  -24.1012  -47.7214 H         1 UNK         0.0600 
    205 H205       -4.3217  -22.3804  -46.7655 H         1 UNK         0.3000 
    206 H206       -5.5564  -20.9390  -47.8757 H         1 UNK         0.0600 
    207 H207       -7.5124  -22.3468  -47.1639 H         1 UNK         0.0600 
    208 H208       -7.7946  -21.5235  -48.6883 H         1 UNK         0.0600 
    209 H209       -7.4156  -23.2404  -48.6810 H         1 UNK         0.0600 
    210 H210       -3.3169  -21.4730  -49.0252 H         1 UNK         0.3000 
    211 H211       -3.1042  -22.6902  -51.4898 H         1 UNK         0.0600 
    212 H212       -1.5601  -20.2578  -50.4693 H         1 UNK         0.0600 
    213 H213       -1.0077  -21.3542  -51.7196 H         1 UNK         0.0600 
    214 H214       -1.1951  -21.9429  -50.0782 H         1 UNK         0.0600 
    215 H215       -4.2138  -19.3749  -50.9007 H         1 UNK         0.3000 
    216 H216       -4.1567  -18.5012  -53.6462 H         1 UNK         0.0600 
    217 H217       -5.6840  -17.4197  -51.2167 H         1 UNK         0.0600 
    218 H218       -5.5008  -16.5907  -52.7580 H         1 UNK         0.0600 
    219 H219       -4.0905  -16.8981  -51.7606 H         1 UNK         0.0600 
    220 H220       -6.6023  -20.0911  -51.5982 H         1 UNK         0.3000 
    221 H221       -8.7756  -19.8084  -53.5327 H         1 UNK         0.0600 
    222 H222       -8.5775  -21.4906  -50.9782 H         1 UNK         0.0600 
    223 H223       -9.2138  -19.8478  -51.0681 H         1 UNK         0.0600 
    224 H224      -10.0390  -21.1602  -51.8956 H         1 UNK         0.0600 
    225 H225       -6.4567  -22.2963  -52.4812 H         1 UNK         0.3000 
    226 H226       -7.3456  -24.4060  -54.2089 H         1 UNK         0.0600 
    227 H227       -5.9445  -24.7381  -52.1542 H         1 UNK         0.0600 
    228 H228       -5.1702  -25.4282  -53.5737 H         1 UNK         0.0600 
    229 H229       -4.6057  -23.8928  -52.9286 H         1 UNK         0.0600 
    230 H230       -5.5958  -21.5219  -54.8307 H         1 UNK         0.3000 
    231 H231       -4.6170  -20.5527  -56.5428 H         1 UNK         0.0600 
    232 H232       -5.8061  -22.7244  -58.3482 H         1 UNK         0.0600 
    233 H233       -5.2088  -21.1509  -58.8533 H         1 UNK         0.0600 
    234 H234       -6.6402  -21.2557  -57.8414 H         1 UNK         0.0600 
    235 H235       -3.0523  -22.1438  -54.9588 H         1 UNK         0.3000 
    236 H236       -1.3351  -23.9633  -56.3307 H         1 UNK         0.0600 
    237 H237       -0.8530  -22.3339  -53.7827 H         1 UNK         0.0600 
    238 H238       -1.6531  -23.9039  -53.8482 H         1 UNK         0.0600 
    239 H239        0.0473  -23.7623  -54.2731 H         1 UNK         0.0600 
    240 H240       -1.3773  -20.5031  -56.1843 H         1 UNK         0.3000 
    241 H241        1.3244  -20.0874  -57.2352 H         1 UNK         0.0600 
    242 H242       -1.1009  -20.6302  -60.3827 H         1 UNK         0.3800 
    243 H243       -1.5153  -21.2496  -58.8072 H         1 UNK         0.3800 
    244 H244       -0.9904  -18.1556  -56.6944 H         1 UNK         0.0800 
    245 H245        0.5218  -17.6617  -57.3995 H         1 UNK         0.0800 
    246 H246       -1.4170  -18.2085  -54.2831 H         1 UNK         0.0800 
    247 H247       -0.6468  -19.7582  -54.0246 H         1 UNK         0.0800 
@<TRIPOS>BOND
     1    1    2 1    
     2    1  127 1    
     3    1  128 1    
     4    1  129 1    
     5    2    3 2    
     6    2    4 am   BACKBONE|DICT|INTERRES
     7    4    5 1    
     8    4  130 1    
     9    5    6 1    
    10    5   65 1    
    11    5  131 1    
    12    6    7 1    
    13    6  132 1    
    14    6  133 1    
    15    7    8 1    
    16    8    9 1    
    17    8  134 1    
    18    8  135 1    
    19    9   10 ar   
    20    9   14 ar   
    21   10   11 ar   
    22   10  136 1    
    23   11   12 ar   
    24   11  126 1    
    25   12   13 ar   
    26   12  137 1    
    27   13   14 ar   
    28   13   15 1    
    29   14  138 1    
    30   15   16 1    
    31   15  139 1    
    32   15  140 1    
    33   16   17 1    
    34   17   18 1    
    35   17  141 1    
    36   17  142 1    
    37   18   19 1    
    38   18   67 1    
    39   18  143 1    
    40   19   20 am   BACKBONE|DICT|INTERRES
    41   19  144 1    
    42   20   21 2    
    43   20   22 1    
    44   22   23 1    
    45   22   24 1    
    46   22  145 1    
    47   23  146 1    
    48   23  147 1    
    49   23  148 1    
    50   24   25 am   BACKBONE|DICT|INTERRES
    51   24  149 1    
    52   25   26 2    
    53   25   27 1    
    54   27   28 1    
    55   27   29 1    
    56   27  150 1    
    57   28  151 1    
    58   28  152 1    
    59   28  153 1    
    60   29   30 am   BACKBONE|DICT|INTERRES
    61   29  154 1    
    62   30   31 2    
    63   30   32 1    
    64   32   33 1    
    65   32   34 1    
    66   32  155 1    
    67   33  156 1    
    68   33  157 1    
    69   33  158 1    
    70   34   35 am   BACKBONE|DICT|INTERRES
    71   34  159 1    
    72   35   36 2    
    73   35   37 1    
    74   37   38 1    
    75   37   39 1    
    76   37  160 1    
    77   38  161 1    
    78   38  162 1    
    79   38  163 1    
    80   39   40 am   BACKBONE|DICT|INTERRES
    81   39  164 1    
    82   40   41 2    
    83   40   42 1    
    84   42   43 1    
    85   42   44 1    
    86   42  165 1    
    87   43  166 1    
    88   43  167 1    
    89   43  168 1    
    90   44   45 am   BACKBONE|DICT|INTERRES
    91   44  169 1    
    92   45   46 2    
    93   45   47 1    
    94   47   48 1    
    95   47   49 1    
    96   47  170 1    
    97   48  171 1    
    98   48  172 1    
    99   48  173 1    
   100   49   50 am   BACKBONE|DICT|INTERRES
   101   49  174 1    
   102   50   51 2    
   103   50   52 1    
   104   52   53 1    
   105   52   54 1    
   106   52  175 1    
   107   53  176 1    
   108   53  177 1    
   109   53  178 1    
   110   54   55 am   BACKBONE|DICT|INTERRES
   111   54  179 1    
   112   55   56 2    
   113   55   57 1    
   114   57   58 1    
   115   57   59 1    
   116   57  180 1    
   117   58  181 1    
   118   58  182 1    
   119   58  183 1    
   120   59   60 am   BACKBONE|DICT|INTERRES
   121   59  184 1    
   122   60   61 2    
   123   60   62 1    
   124   62   63 1    
   125   62   64 1    
   126   62  185 1    
   127   63  186 1    
   128   63  187 1    
   129   63  188 1    
   130   64   65 am   BACKBONE|DICT|INTERRES
   131   64  189 1    
   132   65   66 2    
   133   67   68 2    
   134   67   69 am   BACKBONE|DICT|INTERRES
   135   69   70 1    
   136   69  190 1    
   137   70   71 1    
   138   70   72 1    
   139   70  191 1    
   140   71  192 1    
   141   71  193 1    
   142   71  194 1    
   143   72   73 2    
   144   72   74 am   BACKBONE|DICT|INTERRES
   145   74   75 1    
   146   74  195 1    
   147   75   76 1    
   148   75   77 1    
   149   75  196 1    
   150   76  197 1    
   151   76  198 1    
   152   76  199 1    
   153   77   78 2    
   154   77   79 am   BACKBONE|DICT|INTERRES
   155   79   80 1    
   156   79  200 1    
   157   80   81 1    
   158   80   82 1    
   159   80  201 1    
   160   81  202 1    
   161   81  203 1    
   162   81  204 1    
   163   82   83 2    
   164   82   84 am   BACKBONE|DICT|INTERRES
   165   84   85 1    
   166   84  205 1    
   167   85   86 1    
   168   85   87 1    
   169   85  206 1    
   170   86  207 1    
   171   86  208 1    
   172   86  209 1    
   173   87   88 2    
   174   87   89 am   BACKBONE|DICT|INTERRES
   175   89   90 1    
   176   89  210 1    
   177   90   91 1    
   178   90   92 1    
   179   90  211 1    
   180   91  212 1    
   181   91  213 1    
   182   91  214 1    
   183   92   93 2    
   184   92   94 am   BACKBONE|DICT|INTERRES
   185   94   95 1    
   186   94  215 1    
   187   95   96 1    
   188   95   97 1    
   189   95  216 1    
   190   96  217 1    
   191   96  218 1    
   192   96  219 1    
   193   97   98 2    
   194   97   99 am   BACKBONE|DICT|INTERRES
   195   99  100 1    
   196   99  220 1    
   197  100  101 1    
   198  100  102 1    
   199  100  221 1    
   200  101  222 1    
   201  101  223 1    
   202  101  224 1    
   203  102  103 2    
   204  102  104 am   BACKBONE|DICT|INTERRES
   205  104  105 1    
   206  104  225 1    
   207  105  106 1    
   208  105  107 1    
   209  105  226 1    
   210  106  227 1    
   211  106  228 1    
   212  106  229 1    
   213  107  108 2    
   214  107  109 am   BACKBONE|DICT|INTERRES
   215  109  110 1    
   216  109  230 1    
   217  110  111 1    
   218  110  112 1    
   219  110  231 1    
   220  111  232 1    
   221  111  233 1    
   222  111  234 1    
   223  112  113 2    
   224  112  114 am   BACKBONE|DICT|INTERRES
   225  114  115 1    
   226  114  235 1    
   227  115  116 1    
   228  115  117 1    
   229  115  236 1    
   230  116  237 1    
   231  116  238 1    
   232  116  239 1    
   233  117  118 2    
   234  117  119 am   BACKBONE|DICT|INTERRES
   235  119  120 1    
   236  119  240 1    
   237  120  121 1    
   238  120  124 1    
   239  120  241 1    
   240  121  122 am   BACKBONE|DICT|INTERRES
   241  121  123 2    
   242  122  242 1    
   243  122  243 1    
   244  124  125 1    
   245  124  244 1    
   246  124  245 1    
   247  125  126 1    
   248  126  246 1    
   249  126  247 1    
@<TRIPOS>SUBSTRUCTURE
     1 UNK         1 GROUP             0       ****    0 ROOT    
