@<TRIPOS>MOLECULE
3R540
247   249    1
SMALL
USER_CHARGES


@<TRIPOS>ATOM
      1 CA         -2.2552  -10.3560  -46.0022 C.3       0 UNK        -0.1800 
      2 C          -0.7560  -10.2963  -45.7482 C.2       0 UNK         0.5000 
      3 O          -0.2674   -9.3326  -45.1594 O.2       0 UNK        -0.5000 
      4 N          -0.0249  -11.3346  -46.1687 N.am      1 UNK        -0.5000 
      5 CA          1.4299  -11.5056  -46.0484 C.3       1 UNK         0.1400 
      6 C6          1.9743  -12.4638  -47.1417 C.3       23 UNK        -0.0398 
      7 S7          1.0843  -14.0598  -47.2574 S.3       23 UNK        -0.2404 
      8 C8          0.2597  -13.8466  -48.8628 C.3       23 UNK        -0.0205 
      9 C9         -0.5299  -15.0788  -49.2704 C.ar      23 UNK        -0.0193 
     10 C10         0.0526  -16.0452  -50.0935 C.ar      23 UNK        -0.1150 
     11 C11        -0.6952  -17.1356  -50.5480 C.ar      23 UNK        -0.0193 
     12 C12        -2.0249  -17.2779  -50.1389 C.ar      23 UNK        -0.1150 
     13 C13        -2.6159  -16.3224  -49.3077 C.ar      23 UNK        -0.0193 
     14 C14        -1.8626  -15.2244  -48.8783 C.ar      23 UNK        -0.1150 
     15 C15        -4.0825  -16.4352  -48.9183 C.3       23 UNK        -0.0205 
     16 S16        -4.2847  -16.6006  -47.1197 S.3       23 UNK        -0.2404 
     17 C17        -4.7673  -18.3467  -46.8967 C.3       23 UNK        -0.0398 
     18 CA         -3.7777  -19.4126  -47.4346 C.3       11 UNK         0.1400 
     19 N          -2.4020  -19.2418  -46.9535 N.am      11 UNK        -0.5000 
     20 C          -1.3490  -19.8896  -47.4761 C.2       10 UNK         0.5000 
     21 O          -1.4365  -20.6857  -48.4127 O.2       10 UNK        -0.5000 
     22 CA          0.0241  -19.6546  -46.8223 C.3       10 UNK         0.1400 
     23 CB          0.6404  -18.3273  -47.2884 C.3       10 UNK        -0.1800 
     24 N          -0.0009  -19.7028  -45.3597 N.am      10 UNK        -0.5000 
     25 C          -0.3058  -20.7885  -44.6352 C.2       9 UNK         0.5000 
     26 O          -0.7123  -21.8403  -45.1247 O.2       9 UNK        -0.5000 
     27 CA         -0.1307  -20.6905  -43.1117 C.3       9 UNK         0.1400 
     28 CB          1.3548  -20.7830  -42.7282 C.3       9 UNK        -0.1800 
     29 N          -0.6848  -19.4388  -42.6072 N.am      9 UNK        -0.5000 
     30 C          -1.9091  -19.3065  -42.0799 C.2       8 UNK         0.5000 
     31 O          -2.6671  -20.2519  -41.8624 O.2       8 UNK        -0.5000 
     32 CA         -2.3834  -17.8742  -41.7532 C.3       8 UNK         0.1400 
     33 CB         -2.1115  -17.5431  -40.2779 C.3       8 UNK        -0.1800 
     34 N          -1.7787  -16.8357  -42.5917 N.am      8 UNK        -0.5000 
     35 C          -1.8787  -16.7712  -43.9269 C.2       7 UNK         0.5000 
     36 O          -2.5060  -17.5846  -44.6021 O.2       7 UNK        -0.5000 
     37 CA         -1.0762  -15.6589  -44.6286 C.3       7 UNK         0.1400 
     38 CB         -1.8908  -14.3580  -44.6765 C.3       7 UNK        -0.1800 
     39 N           0.2363  -15.3869  -44.0273 N.am      7 UNK        -0.5000 
     40 C           1.1855  -16.2968  -43.7641 C.2       6 UNK         0.5000 
     41 O           1.0480  -17.5051  -43.9552 O.2       6 UNK        -0.5000 
     42 CA          2.4936  -15.7560  -43.1704 C.3       6 UNK         0.1400 
     43 CB          3.0826  -16.6836  -42.0879 C.3       6 UNK        -0.1800 
     44 N           3.4669  -15.4491  -44.2181 N.am      6 UNK        -0.5000 
     45 C           4.1400  -16.2899  -45.0201 C.2       5 UNK         0.5000 
     46 O           4.0391  -17.5162  -44.9864 O.2       5 UNK        -0.5000 
     47 CA          5.1299  -15.6567  -46.0229 C.3       5 UNK         0.1400 
     48 CB          4.5930  -15.7361  -47.4603 C.3       5 UNK        -0.1800 
     49 N           5.4733  -14.2649  -45.7119 N.am      5 UNK        -0.5000 
     50 C           6.2754  -13.8875  -44.7071 C.2       4 UNK         0.5000 
     51 O           6.8579  -14.6829  -43.9682 O.2       4 UNK        -0.5000 
     52 CA          6.4342  -12.3798  -44.4501 C.3       4 UNK         0.1400 
     53 CB          5.9413  -11.4796  -45.6014 C.3       4 UNK        -0.1800 
     54 N           5.6828  -12.0673  -43.2394 N.am      4 UNK        -0.5000 
     55 C           6.2033  -11.6271  -42.0866 C.2       3 UNK         0.5000 
     56 O           7.3942  -11.3434  -41.9457 O.2       3 UNK        -0.5000 
     57 CA          5.2534  -11.5170  -40.8698 C.3       3 UNK         0.1400 
     58 CB          5.4841  -10.2240  -40.0591 C.3       3 UNK        -0.1800 
     59 N           3.8291  -11.7037  -41.1858 N.am      3 UNK        -0.5000 
     60 C           3.0445  -10.8994  -41.9161 C.2       2 UNK         0.5000 
     61 O           3.4035   -9.8218  -42.3954 O.2       2 UNK        -0.5000 
     62 CA          1.6180  -11.4131  -42.1857 C.3       2 UNK         0.1400 
     63 CB          0.5894  -10.6513  -41.3373 C.3       2 UNK        -0.1800 
     64 N           1.2647  -11.2831  -43.5980 N.am      2 UNK        -0.5000 
     65 C           1.8947  -11.8792  -44.6178 C.2       1 UNK         0.5000 
     66 O           2.8092  -12.6910  -44.4517 O.2       1 UNK        -0.5000 
     67 C          -4.3106  -20.8196  -47.0982 C.2       11 UNK         0.5000 
     68 O          -5.0175  -21.4173  -47.9108 O.2       11 UNK        -0.5000 
     69 N          -3.9453  -21.3258  -45.9106 N.am      12 UNK        -0.5000 
     70 CA         -4.3053  -22.6582  -45.4331 C.3       12 UNK         0.1400 
     71 CB         -3.9374  -22.8019  -43.9490 C.3       12 UNK        -0.1800 
     72 C          -3.6580  -23.7639  -46.2799 C.2       12 UNK         0.5000 
     73 O          -4.3571  -24.6865  -46.6915 O.2       12 UNK        -0.5000 
     74 N          -2.3567  -23.6264  -46.5697 N.am      13 UNK        -0.5000 
     75 CA         -1.5890  -24.5295  -47.4275 C.3       13 UNK         0.1400 
     76 CB         -0.1081  -24.1226  -47.4113 C.3       13 UNK        -0.1800 
     77 C          -2.1238  -24.5795  -48.8684 C.2       13 UNK         0.5000 
     78 O          -2.2741  -25.6710  -49.4176 O.2       13 UNK        -0.5000 
     79 N          -2.4452  -23.4052  -49.4325 N.am      14 UNK        -0.5000 
     80 CA         -3.0419  -23.2496  -50.7612 C.3       14 UNK         0.1400 
     81 CB         -3.1945  -21.7529  -51.0727 C.3       14 UNK        -0.1800 
     82 C          -4.3951  -23.9711  -50.9084 C.2       14 UNK         0.5000 
     83 O          -4.6531  -24.5754  -51.9533 O.2       14 UNK        -0.5000 
     84 N          -5.2165  -23.9050  -49.8521 N.am      15 UNK        -0.5000 
     85 CA         -6.5002  -24.5919  -49.7518 C.3       15 UNK         0.1400 
     86 CB         -7.3444  -23.9373  -48.6477 C.3       15 UNK        -0.1800 
     87 C          -6.3360  -26.1007  -49.4982 C.2       15 UNK         0.5000 
     88 O          -6.9692  -26.8978  -50.1894 O.2       15 UNK        -0.5000 
     89 N          -5.4857  -26.4715  -48.5296 N.am      16 UNK        -0.5000 
     90 CA         -5.2453  -27.8530  -48.0985 C.3       16 UNK         0.1400 
     91 CB         -4.3629  -27.8577  -46.8413 C.3       16 UNK        -0.1800 
     92 C          -4.6254  -28.7430  -49.1887 C.2       16 UNK         0.5000 
     93 O          -4.9773  -29.9194  -49.2837 O.2       16 UNK        -0.5000 
     94 N          -3.7432  -28.1620  -50.0123 N.am      17 UNK        -0.5000 
     95 CA         -3.1571  -28.8120  -51.1859 C.3       17 UNK         0.1400 
     96 CB         -1.9142  -28.0178  -51.6194 C.3       17 UNK        -0.1800 
     97 C          -4.1406  -28.9389  -52.3675 C.2       17 UNK         0.5000 
     98 O          -3.8315  -29.6476  -53.3260 O.2       17 UNK        -0.5000 
     99 N          -5.2748  -28.2207  -52.3017 N.am      18 UNK        -0.5000 
    100 CA        -6.2819  -28.0317  -53.3535 C.3       18 UNK         0.1400 
    101 CB        -6.9997  -29.3577  -53.6789 C.3       18 UNK        -0.1800 
    102 C         -5.7112  -27.3299  -54.6051 C.2       18 UNK         0.5000 
    103 O         -6.2300  -27.5083  -55.7086 O.2       18 UNK        -0.5000 
    104 N         -4.6402  -26.5511  -54.4068 N.am      19 UNK        -0.5000 
    105 CA        -3.9045  -25.8563  -55.4564 C.3       19 UNK         0.1400 
    106 CB        -2.4554  -25.6471  -54.9867 C.3       19 UNK        -0.1800 
    107 C         -4.5472  -24.5091  -55.8127 C.2       19 UNK         0.5000 
    108 O         -4.4816  -24.1021  -56.9730 O.2       19 UNK        -0.5000 
    109 N         -5.1246  -23.8360  -54.8025 N.am      20 UNK        -0.5000 
    110 CA        -5.6606  -22.4692  -54.8539 C.3       20 UNK         0.1400 
    111 CB        -6.9274  -22.4051  -55.7319 C.3       20 UNK        -0.1800 
    112 C         -4.5833  -21.4370  -55.2583 C.2       20 UNK         0.5000 
    113 O         -4.8611  -20.4962  -56.0060 O.2       20 UNK        -0.5000 
    114 N         -3.3562  -21.6665  -54.7684 N.am      21 UNK        -0.5000 
    115 CA        -2.1641  -20.8597  -55.0151 C.3       21 UNK         0.1400 
    116 CB        -0.9637  -21.5252  -54.3234 C.3       21 UNK        -0.1800 
    117 C         -2.3202  -19.4030  -54.5440 C.2       21 UNK         0.5000 
    118 O         -3.0147  -19.1419  -53.5591 O.2       21 UNK        -0.5000 
    119 N         -1.6504  -18.4957  -55.2626 N.am      22 UNK        -0.5000 
    120 CA        -1.6548  -17.0356  -55.0593 C.3       22 UNK         0.1400 
    121 C         -2.9739  -16.3193  -55.4861 C.2       22 UNK         0.5000 
    122 N         -3.9553  -17.0028  -56.0635 N.am      22 UNK        -0.7600 
    123 O         -3.0989  -15.1083  -55.3243 O.2       22 UNK        -0.5000 
    124 C124       -1.1985  -16.5949  -53.6401 C.3       23 UNK        -0.0398 
    125 S125        0.3870  -17.3355  -53.1019 S.3       23 UNK        -0.2404 
    126 C126       -0.0831  -18.1298  -51.5256 C.3       23 UNK        -0.0205 
    127 H127       -2.5667   -9.5069  -46.6104 H         1 UNK         0.0600 
    128 H128       -2.7972  -10.3177  -45.0572 H         1 UNK         0.0600 
    129 H129       -2.5425  -11.2706  -46.5217 H         1 UNK         0.0600 
    130 H130       -0.4930  -12.1083  -46.6175 H         1 UNK         0.3000 
    131 H131        1.8855  -10.5317  -46.2395 H         1 UNK         0.0600 
    132 H132        1.9167  -11.9568  -48.1055 H         1 UNK         0.0800 
    133 H133        3.0364  -12.6663  -47.0032 H         1 UNK         0.0800 
    134 H134        1.0082  -13.6229  -49.6248 H         1 UNK         0.0800 
    135 H135       -0.4024  -12.9805  -48.8214 H         1 UNK         0.0800 
    136 H136        1.0779  -15.9292  -50.4157 H         1 UNK         0.1150 
    137 H137       -2.6077  -18.1160  -50.4957 H         1 UNK         0.1150 
    138 H138       -2.3219  -14.4740  -48.2502 H         1 UNK         0.1150 
    139 H139       -4.5979  -15.5303  -49.2428 H         1 UNK         0.0800 
    140 H140       -4.5708  -17.2619  -49.4356 H         1 UNK         0.0800 
    141 H141       -5.7465  -18.4784  -47.3608 H         1 UNK         0.0800 
    142 H142       -4.9237  -18.4887  -45.8256 H         1 UNK         0.0800 
    143 H143       -3.7557  -19.3324  -48.5228 H         1 UNK         0.0600 
    144 H144       -2.2770  -18.6129  -46.1636 H         1 UNK         0.3000 
    145 H145        0.6846  -20.4584  -47.1541 H         1 UNK         0.0600 
    146 H146        1.5954  -18.1346  -46.7986 H         1 UNK         0.0600 
    147 H147        0.8256  -18.3467  -48.3621 H         1 UNK         0.0600 
    148 H148       -0.0163  -17.4819  -47.0881 H         1 UNK         0.0600 
    149 H149        0.3485  -18.8782  -44.8753 H         1 UNK         0.3000 
    150 H150       -0.6444  -21.5414  -42.6592 H         1 UNK         0.0600 
    151 H151        1.7913  -21.7166  -43.0853 H         1 UNK         0.0600 
    152 H152        1.4831  -20.7565  -41.6461 H         1 UNK         0.0600 
    153 H153        1.9378  -19.9649  -43.1532 H         1 UNK         0.0600 
    154 H154       -0.1465  -18.6036  -42.8102 H         1 UNK         0.3000 
    155 H155       -3.4622  -17.8439  -41.9190 H         1 UNK         0.0600 
    156 H156       -1.0428  -17.5289  -40.0599 H         1 UNK         0.0600 
    157 H157       -2.5709  -18.2824  -39.6204 H         1 UNK         0.0600 
    158 H158       -2.5236  -16.5706  -40.0084 H         1 UNK         0.0600 
    159 H159       -1.2251  -16.1370  -42.1191 H         1 UNK         0.3000 
    160 H160       -0.9047  -15.9807  -45.6560 H         1 UNK         0.0600 
    161 H161       -1.3907  -13.6048  -45.2823 H         1 UNK         0.0600 
    162 H162       -2.0474  -13.9412  -43.6810 H         1 UNK         0.0600 
    163 H163       -2.8722  -14.5276  -45.1217 H         1 UNK         0.0600 
    164 H164        0.4468  -14.4154  -43.8565 H         1 UNK         0.3000 
    165 H165        2.2679  -14.8073  -42.6822 H         1 UNK         0.0600 
    166 H166        3.9984  -16.2666  -41.6691 H         1 UNK         0.0600 
    167 H167        2.3774  -16.8142  -41.2664 H         1 UNK         0.0600 
    168 H168        3.3133  -17.6769  -42.4734 H         1 UNK         0.0600 
    169 H169        3.5678  -14.4559  -44.4034 H         1 UNK         0.3000 
    170 H170        6.0455  -16.2506  -45.9799 H         1 UNK         0.0600 
    171 H171        4.3186  -16.7591  -47.7216 H         1 UNK         0.0600 
    172 H172        3.7089  -15.1168  -47.5961 H         1 UNK         0.0600 
    173 H173        5.3439  -15.4085  -48.1793 H         1 UNK         0.0600 
    174 H174        5.0240  -13.5516  -46.2657 H         1 UNK         0.3000 
    175 H175        7.5010  -12.1944  -44.3104 H         1 UNK         0.0600 
    176 H176        6.4442  -11.7247  -46.5378 H         1 UNK         0.0600 
    177 H177        6.1571  -10.4327  -45.3874 H         1 UNK         0.0600 
    178 H178        4.8672  -11.5608  -45.7627 H         1 UNK         0.0600 
    179 H179        4.6953  -12.2859  -43.2698 H         1 UNK         0.3000 
    180 H180        5.5184  -12.3528  -40.2206 H         1 UNK         0.0600 
    181 H181        5.3349   -9.3302  -40.6651 H         1 UNK         0.0600 
    182 H182        6.5021  -10.1835  -39.6698 H         1 UNK         0.0600 
    183 H183        4.8102  -10.1678  -39.2043 H         1 UNK         0.0600 
    184 H184        3.4321  -12.5661  -40.8395 H         1 UNK         0.3000 
    185 H185        1.5625  -12.4716  -41.9244 H         1 UNK         0.0600 
    186 H186        0.8142  -10.7439  -40.2740 H         1 UNK         0.0600 
    187 H187        0.5777   -9.5878  -41.5799 H         1 UNK         0.0600 
    188 H188       -0.4167  -11.0415  -41.4925 H         1 UNK         0.0600 
    189 H189        0.5819  -10.5711  -43.8332 H         1 UNK         0.3000 
    190 H190       -3.3315  -20.7808  -45.3229 H         1 UNK         0.3000 
    191 H191       -5.3886  -22.7639  -45.5225 H         1 UNK         0.0600 
    192 H192       -2.8672  -22.6855  -43.7795 H         1 UNK         0.0600 
    193 H193       -4.2235  -23.7842  -43.5710 H         1 UNK         0.0600 
    194 H194       -4.4529  -22.0577  -43.3417 H         1 UNK         0.0600 
    195 H195       -1.8397  -22.8558  -46.1509 H         1 UNK         0.3000 
    196 H196       -1.6702  -25.5341  -47.0083 H         1 UNK         0.0600 
    197 H197        0.4865  -24.7814  -48.0454 H         1 UNK         0.0600 
    198 H198        0.3044  -24.1813  -46.4039 H         1 UNK         0.0600 
    199 H199        0.0329  -23.1023  -47.7701 H         1 UNK         0.0600 
    200 H200       -2.2583  -22.5507  -48.9182 H         1 UNK         0.3000 
    201 H201       -2.3546  -23.6859  -51.4888 H         1 UNK         0.0600 
    202 H202       -2.2273  -21.2506  -51.0910 H         1 UNK         0.0600 
    203 H203       -3.8132  -21.2480  -50.3311 H         1 UNK         0.0600 
    204 H204       -3.6636  -21.5942  -52.0428 H         1 UNK         0.0600 
    205 H205       -4.9306  -23.3575  -49.0492 H         1 UNK         0.3000 
    206 H206       -7.0311  -24.4680  -50.6982 H         1 UNK         0.0600 
    207 H207       -7.5240  -22.8840  -48.8638 H         1 UNK         0.0600 
    208 H208       -8.3171  -24.4228  -48.5592 H         1 UNK         0.0600 
    209 H209       -6.8563  -23.9972  -47.6743 H         1 UNK         0.0600 
    210 H210       -5.0184  -25.7492  -47.9835 H         1 UNK         0.3000 
    211 H211       -6.2119  -28.2864  -47.8342 H         1 UNK         0.0600 
    212 H212       -3.3964  -27.3886  -47.0291 H         1 UNK         0.0600 
    213 H213       -4.1742  -28.8754  -46.4973 H         1 UNK         0.0600 
    214 H214       -4.8422  -27.3227  -46.0214 H         1 UNK         0.0600 
    215 H215       -3.4549  -27.2041  -49.8315 H         1 UNK         0.3000 
    216 H216       -2.8415  -29.8197  -50.9083 H         1 UNK         0.0600 
    217 H217       -1.4225  -28.4887  -52.4716 H         1 UNK         0.0600 
    218 H218       -1.1821  -27.9608  -50.8137 H         1 UNK         0.0600 
    219 H219       -2.1708  -26.9981  -51.9105 H         1 UNK         0.0600 
    220 H220       -5.4569  -27.7039  -51.4496 H         1 UNK         0.3000 
    221 H221       -7.0253  -27.3485  -52.9411 H         1 UNK         0.0600 
    222 H222       -7.8497  -29.1895  -54.3411 H         1 UNK         0.0600 
    223 H223       -7.3835  -29.8291  -52.7740 H         1 UNK         0.0600 
    224 H224       -6.3374  -30.0685  -54.1735 H         1 UNK         0.0600 
    225 H225       -4.3179  -26.4176  -53.4583 H         1 UNK         0.3000 
    226 H226       -3.8876  -26.4747  -56.3566 H         1 UNK         0.0600 
    227 H227       -1.9656  -26.6008  -54.7886 H         1 UNK         0.0600 
    228 H228       -1.8678  -25.1319  -55.7477 H         1 UNK         0.0600 
    229 H229       -2.4070  -25.0512  -54.0742 H         1 UNK         0.0600 
    230 H230       -5.1038  -24.2607  -53.8798 H         1 UNK         0.3000 
    231 H231       -5.9539  -22.2174  -53.8337 H         1 UNK         0.0600 
    232 H232       -7.6637  -23.1435  -55.4146 H         1 UNK         0.0600 
    233 H233       -6.7033  -22.5852  -56.7836 H         1 UNK         0.0600 
    234 H234       -7.4004  -21.4250  -55.6627 H         1 UNK         0.0600 
    235 H235       -3.2343  -22.4669  -54.1688 H         1 UNK         0.3000 
    236 H236       -1.9896  -20.8608  -56.0931 H         1 UNK         0.0600 
    237 H237       -0.8104  -22.5416  -54.6866 H         1 UNK         0.0600 
    238 H238       -0.0446  -20.9702  -54.5161 H         1 UNK         0.0600 
    239 H239       -1.0952  -21.5704  -53.2422 H         1 UNK         0.0600 
    240 H240       -1.1049  -18.8123  -56.0514 H         1 UNK         0.3000 
    241 H241       -0.9070  -16.6594  -55.7581 H         1 UNK         0.0600 
    242 H242       -4.7946  -16.5206  -56.3447 H         1 UNK         0.3800 
    243 H243       -3.8897  -18.0024  -56.1842 H         1 UNK         0.3800 
    244 H244       -1.9821  -16.8212  -52.9177 H         1 UNK         0.0800 
    245 H245       -1.0725  -15.5117  -53.6042 H         1 UNK         0.0800 
    246 H246        0.8016  -18.5792  -51.0730 H         1 UNK         0.0800 
    247 H247       -0.7745  -18.9485  -51.7319 H         1 UNK         0.0800 
@<TRIPOS>BOND
     1    1    2 1    
     2    1  127 1    
     3    1  128 1    
     4    1  129 1    
     5    2    3 2    
     6    2    4 am   BACKBONE|DICT|INTERRES
     7    4    5 1    
     8    4  130 1    
     9    5    6 1    
    10    5   65 1    
    11    5  131 1    
    12    6    7 1    
    13    6  132 1    
    14    6  133 1    
    15    7    8 1    
    16    8    9 1    
    17    8  134 1    
    18    8  135 1    
    19    9   10 ar   
    20    9   14 ar   
    21   10   11 ar   
    22   10  136 1    
    23   11   12 ar   
    24   11  126 1    
    25   12   13 ar   
    26   12  137 1    
    27   13   14 ar   
    28   13   15 1    
    29   14  138 1    
    30   15   16 1    
    31   15  139 1    
    32   15  140 1    
    33   16   17 1    
    34   17   18 1    
    35   17  141 1    
    36   17  142 1    
    37   18   19 1    
    38   18   67 1    
    39   18  143 1    
    40   19   20 am   BACKBONE|DICT|INTERRES
    41   19  144 1    
    42   20   21 2    
    43   20   22 1    
    44   22   23 1    
    45   22   24 1    
    46   22  145 1    
    47   23  146 1    
    48   23  147 1    
    49   23  148 1    
    50   24   25 am   BACKBONE|DICT|INTERRES
    51   24  149 1    
    52   25   26 2    
    53   25   27 1    
    54   27   28 1    
    55   27   29 1    
    56   27  150 1    
    57   28  151 1    
    58   28  152 1    
    59   28  153 1    
    60   29   30 am   BACKBONE|DICT|INTERRES
    61   29  154 1    
    62   30   31 2    
    63   30   32 1    
    64   32   33 1    
    65   32   34 1    
    66   32  155 1    
    67   33  156 1    
    68   33  157 1    
    69   33  158 1    
    70   34   35 am   BACKBONE|DICT|INTERRES
    71   34  159 1    
    72   35   36 2    
    73   35   37 1    
    74   37   38 1    
    75   37   39 1    
    76   37  160 1    
    77   38  161 1    
    78   38  162 1    
    79   38  163 1    
    80   39   40 am   BACKBONE|DICT|INTERRES
    81   39  164 1    
    82   40   41 2    
    83   40   42 1    
    84   42   43 1    
    85   42   44 1    
    86   42  165 1    
    87   43  166 1    
    88   43  167 1    
    89   43  168 1    
    90   44   45 am   BACKBONE|DICT|INTERRES
    91   44  169 1    
    92   45   46 2    
    93   45   47 1    
    94   47   48 1    
    95   47   49 1    
    96   47  170 1    
    97   48  171 1    
    98   48  172 1    
    99   48  173 1    
   100   49   50 am   BACKBONE|DICT|INTERRES
   101   49  174 1    
   102   50   51 2    
   103   50   52 1    
   104   52   53 1    
   105   52   54 1    
   106   52  175 1    
   107   53  176 1    
   108   53  177 1    
   109   53  178 1    
   110   54   55 am   BACKBONE|DICT|INTERRES
   111   54  179 1    
   112   55   56 2    
   113   55   57 1    
   114   57   58 1    
   115   57   59 1    
   116   57  180 1    
   117   58  181 1    
   118   58  182 1    
   119   58  183 1    
   120   59   60 am   BACKBONE|DICT|INTERRES
   121   59  184 1    
   122   60   61 2    
   123   60   62 1    
   124   62   63 1    
   125   62   64 1    
   126   62  185 1    
   127   63  186 1    
   128   63  187 1    
   129   63  188 1    
   130   64   65 am   BACKBONE|DICT|INTERRES
   131   64  189 1    
   132   65   66 2    
   133   67   68 2    
   134   67   69 am   BACKBONE|DICT|INTERRES
   135   69   70 1    
   136   69  190 1    
   137   70   71 1    
   138   70   72 1    
   139   70  191 1    
   140   71  192 1    
   141   71  193 1    
   142   71  194 1    
   143   72   73 2    
   144   72   74 am   BACKBONE|DICT|INTERRES
   145   74   75 1    
   146   74  195 1    
   147   75   76 1    
   148   75   77 1    
   149   75  196 1    
   150   76  197 1    
   151   76  198 1    
   152   76  199 1    
   153   77   78 2    
   154   77   79 am   BACKBONE|DICT|INTERRES
   155   79   80 1    
   156   79  200 1    
   157   80   81 1    
   158   80   82 1    
   159   80  201 1    
   160   81  202 1    
   161   81  203 1    
   162   81  204 1    
   163   82   83 2    
   164   82   84 am   BACKBONE|DICT|INTERRES
   165   84   85 1    
   166   84  205 1    
   167   85   86 1    
   168   85   87 1    
   169   85  206 1    
   170   86  207 1    
   171   86  208 1    
   172   86  209 1    
   173   87   88 2    
   174   87   89 am   BACKBONE|DICT|INTERRES
   175   89   90 1    
   176   89  210 1    
   177   90   91 1    
   178   90   92 1    
   179   90  211 1    
   180   91  212 1    
   181   91  213 1    
   182   91  214 1    
   183   92   93 2    
   184   92   94 am   BACKBONE|DICT|INTERRES
   185   94   95 1    
   186   94  215 1    
   187   95   96 1    
   188   95   97 1    
   189   95  216 1    
   190   96  217 1    
   191   96  218 1    
   192   96  219 1    
   193   97   98 2    
   194   97   99 am   BACKBONE|DICT|INTERRES
   195   99  100 1    
   196   99  220 1    
   197  100  101 1    
   198  100  102 1    
   199  100  221 1    
   200  101  222 1    
   201  101  223 1    
   202  101  224 1    
   203  102  103 2    
   204  102  104 am   BACKBONE|DICT|INTERRES
   205  104  105 1    
   206  104  225 1    
   207  105  106 1    
   208  105  107 1    
   209  105  226 1    
   210  106  227 1    
   211  106  228 1    
   212  106  229 1    
   213  107  108 2    
   214  107  109 am   BACKBONE|DICT|INTERRES
   215  109  110 1    
   216  109  230 1    
   217  110  111 1    
   218  110  112 1    
   219  110  231 1    
   220  111  232 1    
   221  111  233 1    
   222  111  234 1    
   223  112  113 2    
   224  112  114 am   BACKBONE|DICT|INTERRES
   225  114  115 1    
   226  114  235 1    
   227  115  116 1    
   228  115  117 1    
   229  115  236 1    
   230  116  237 1    
   231  116  238 1    
   232  116  239 1    
   233  117  118 2    
   234  117  119 am   BACKBONE|DICT|INTERRES
   235  119  120 1    
   236  119  240 1    
   237  120  121 1    
   238  120  124 1    
   239  120  241 1    
   240  121  122 am   BACKBONE|DICT|INTERRES
   241  121  123 2    
   242  122  242 1    
   243  122  243 1    
   244  124  125 1    
   245  124  244 1    
   246  124  245 1    
   247  125  126 1    
   248  126  246 1    
   249  126  247 1    
@<TRIPOS>SUBSTRUCTURE
     1 UNK         1 GROUP             0       ****    0 ROOT    
