@<TRIPOS>MOLECULE
3R540
247   249    1
SMALL
USER_CHARGES


@<TRIPOS>ATOM
      1 CA          7.0732  -13.4910  -46.5295 C.3       0 UNK        -0.1800 
      2 C           5.6194  -13.7963  -46.2009 C.2       0 UNK         0.5000 
      3 O           5.2213  -13.7134  -45.0399 O.2       0 UNK        -0.5000 
      4 N           4.8185  -14.1348  -47.2178 N.am      1 UNK        -0.5000 
      5 CA          3.3947  -14.4888  -47.1370 C.3       1 UNK         0.1400 
      6 C6          2.9701  -15.4144  -48.3081 C.3       23 UNK        -0.0398 
      7 S7          3.4217  -14.7878  -49.9695 S.3       23 UNK        -0.2404 
      8 C8          1.7936  -14.6836  -50.7966 C.3       23 UNK        -0.0205 
      9 C9          1.0754  -16.0116  -51.0587 C.ar      23 UNK        -0.0193 
     10 C10        -0.2295  -15.9697  -51.5626 C.ar      23 UNK        -0.1150 
     11 C11        -0.9506  -17.1453  -51.7961 C.ar      23 UNK        -0.0193 
     12 C12        -0.3565  -18.3776  -51.5175 C.ar      23 UNK        -0.1150 
     13 C13         0.9456  -18.4415  -51.0161 C.ar      23 UNK        -0.0193 
     14 C14         1.6606  -17.2605  -50.8084 C.ar      23 UNK        -0.1150 
     15 C15         1.5746  -19.7826  -50.6659 C.3       23 UNK        -0.0205 
     16 S16         1.7332  -19.9984  -48.8620 S.3       23 UNK        -0.2404 
     17 C17        -0.0111  -19.9616  -48.3284 C.3       23 UNK        -0.0398 
     18 CA         -0.4284  -21.2615  -47.6077 C.3       11 UNK         0.1400 
     19 N           0.0908  -21.3454  -46.2403 N.am      11 UNK        -0.5000 
     20 C          -0.0183  -22.4266  -45.4546 C.2       10 UNK         0.5000 
     21 O          -0.5157  -23.4914  -45.8223 O.2       10 UNK        -0.5000 
     22 CA          0.4501  -22.2755  -43.9965 C.3       10 UNK         0.1400 
     23 CB          1.9807  -22.3542  -43.8974 C.3       10 UNK        -0.1800 
     24 N          -0.0214  -21.0315  -43.3873 N.am      10 UNK        -0.5000 
     25 C          -1.3098  -20.7175  -43.1903 C.2       9 UNK         0.5000 
     26 O          -2.2455  -21.4739  -43.4503 O.2       9 UNK        -0.5000 
     27 CA         -1.6055  -19.2992  -42.6682 C.3       9 UNK         0.1400 
     28 CB         -1.4164  -19.2159  -41.1462 C.3       9 UNK        -0.1800 
     29 N          -0.7856  -18.2819  -43.3291 N.am      9 UNK        -0.5000 
     30 C          -0.8730  -17.9755  -44.6316 C.2       8 UNK         0.5000 
     31 O          -1.6819  -18.4891  -45.4023 O.2       8 UNK        -0.5000 
     32 CA          0.1436  -16.9616  -45.1803 C.3       8 UNK         0.1400 
     33 CB         -0.3512  -15.5267  -44.9681 C.3       8 UNK        -0.1800 
     34 N           1.4720  -17.1313  -44.5902 N.am      8 UNK        -0.5000 
     35 C           2.2531  -18.1960  -44.8279 C.2       7 UNK         0.5000 
     36 O           1.9396  -19.1123  -45.5862 O.2       7 UNK        -0.5000 
     37 CA          3.5765  -18.2825  -44.0464 C.3       7 UNK         0.1400 
     38 CB          4.6593  -17.4168  -44.7076 C.3       7 UNK        -0.1800 
     39 N           3.4340  -17.8914  -42.6440 N.am      7 UNK        -0.5000 
     40 C           2.6467  -18.5084  -41.7508 C.2       6 UNK         0.5000 
     41 O           1.9930  -19.5187  -42.0054 O.2       6 UNK        -0.5000 
     42 CA          2.5409  -17.8748  -40.3498 C.3       6 UNK         0.1400 
     43 CB          3.4669  -18.5996  -39.3621 C.3       6 UNK        -0.1800 
     44 N           2.8454  -16.4411  -40.3321 N.am      6 UNK        -0.5000 
     45 C           2.1150  -15.4971  -40.9400 C.2       5 UNK         0.5000 
     46 O           1.0891  -15.7349  -41.5832 O.2       5 UNK        -0.5000 
     47 CA          2.6831  -14.0711  -40.8708 C.3       5 UNK         0.1400 
     48 CB          3.7244  -13.8646  -41.9831 C.3       5 UNK        -0.1800 
     49 N           1.6302  -13.0680  -41.0111 N.am      5 UNK        -0.5000 
     50 C           0.9239  -12.5652  -39.9891 C.2       4 UNK         0.5000 
     51 O           1.0823  -12.9215  -38.8201 O.2       4 UNK        -0.5000 
     52 CA         -0.1055  -11.4560  -40.2928 C.3       4 UNK         0.1400 
     53 CB          0.4193  -10.0949  -39.8075 C.3       4 UNK        -0.1800 
     54 N          -0.4394  -11.3417  -41.7119 N.am      4 UNK        -0.5000 
     55 C          -1.3432  -12.0986  -42.3462 C.2       3 UNK         0.5000 
     56 O          -2.0424  -12.9425  -41.7848 O.2       3 UNK        -0.5000 
     57 CA         -1.4914  -11.8821  -43.8677 C.3       3 UNK         0.1400 
     58 CB         -2.6842  -10.9594  -44.1619 C.3       3 UNK        -0.1800 
     59 N          -0.3017  -11.3523  -44.5500 N.am      3 UNK        -0.5000 
     60 C           0.9011  -11.9402  -44.5610 C.2       2 UNK         0.5000 
     61 O           1.1838  -12.9206  -43.8723 O.2       2 UNK        -0.5000 
     62 CA          1.9821  -11.3235  -45.4646 C.3       2 UNK         0.1400 
     63 CB          2.8489  -10.3386  -44.6661 C.3       2 UNK        -0.1800 
     64 N           2.8383  -12.3796  -46.0008 N.am      2 UNK        -0.5000 
     65 C           2.4662  -13.2661  -46.9323 C.2       1 UNK         0.5000 
     66 O           1.4276  -13.1539  -47.5857 O.2       1 UNK        -0.5000 
     67 C          -1.9579  -21.4355  -47.6580 C.2       11 UNK         0.5000 
     68 O          -2.4381  -22.1721  -48.5168 O.2       11 UNK        -0.5000 
     69 N          -2.6948  -20.7908  -46.7427 N.am      12 UNK        -0.5000 
     70 CA         -4.1494  -20.9106  -46.6255 C.3       12 UNK         0.1400 
     71 CB         -4.6798  -19.8958  -45.6022 C.3       12 UNK        -0.1800 
     72 C          -4.6001  -22.3390  -46.2717 C.2       12 UNK         0.5000 
     73 O          -5.5371  -22.8442  -46.8897 O.2       12 UNK        -0.5000 
     74 N          -3.8938  -22.9838  -45.3318 N.am      13 UNK        -0.5000 
     75 CA         -4.1095  -24.3781  -44.9347 C.3       13 UNK         0.1400 
     76 CB         -3.2436  -24.7001  -43.7075 C.3       13 UNK        -0.1800 
     77 C          -3.8372  -25.3800  -46.0744 C.2       13 UNK         0.5000 
     78 O          -4.5696  -26.3602  -46.2112 O.2       13 UNK        -0.5000 
     79 N          -2.8149  -25.0958  -46.8920 N.am      14 UNK        -0.5000 
     80 CA         -2.4630  -25.8538  -48.0950 C.3       14 UNK         0.1400 
     81 CB         -0.9822  -25.5933  -48.4168 C.3       14 UNK        -0.1800 
     82 C          -3.3393  -25.5114  -49.3189 C.2       14 UNK         0.5000 
     83 O          -3.1744  -26.1391  -50.3664 O.2       14 UNK        -0.5000 
     84 N          -4.2043  -24.4933  -49.1983 N.am      15 UNK        -0.5000 
     85 CA         -5.0301  -23.8937  -50.2506 C.3       15 UNK         0.1400 
     86 CB         -6.1509  -24.8601  -50.6838 C.3       15 UNK        -0.1800 
     87 C          -4.1901  -23.3811  -51.4386 C.2       15 UNK         0.5000 
     88 O          -4.5691  -23.5833  -52.5922 O.2       15 UNK        -0.5000 
     89 N          -3.0560  -22.7358  -51.1326 N.am      16 UNK        -0.5000 
     90 CA         -2.0180  -22.2651  -52.0583 C.3       16 UNK         0.1400 
     91 CB         -2.5513  -21.1443  -52.9752 C.3       16 UNK        -0.1800 
     92 C          -1.3434  -23.4175  -52.8331 C.2       16 UNK         0.5000 
     93 O          -0.9940  -23.2549  -54.0018 O.2       16 UNK        -0.5000 
     94 N          -1.1846  -24.5635  -52.1531 N.am      17 UNK        -0.5000 
     95 CA         -0.7285  -25.8547  -52.6777 C.3       17 UNK         0.1400 
     96 CB          0.7273  -25.7796  -53.1848 C.3       17 UNK        -0.1800 
     97 C          -1.7225  -26.4128  -53.7159 C.2       17 UNK         0.5000 
     98 O          -1.3352  -26.7434  -54.8382 O.2       17 UNK        -0.5000 
     99 N          -2.9960  -26.4861  -53.2997 N.am      18 UNK        -0.5000 
    100 CA        -4.1639  -26.9201  -54.0730 C.3       18 UNK         0.1400 
    101 CB        -4.0821  -28.4296  -54.3817 C.3       18 UNK        -0.1800 
    102 C         -4.4082  -26.0526  -55.3275 C.2       18 UNK         0.5000 
    103 O         -4.5769  -26.5792  -56.4293 O.2       18 UNK        -0.5000 
    104 N         -4.4308  -24.7309  -55.1255 N.am      19 UNK        -0.5000 
    105 CA        -4.6851  -23.7104  -56.1418 C.3       19 UNK         0.1400 
    106 CB        -3.3621  -23.0324  -56.5385 C.3       19 UNK        -0.1800 
    107 C         -5.7477  -22.7148  -55.6390 C.2       19 UNK         0.5000 
    108 O         -5.6383  -21.5115  -55.8825 O.2       19 UNK        -0.5000 
    109 N         -6.7552  -23.2444  -54.9265 N.am      20 UNK        -0.5000 
    110 CA        -7.9655  -22.5714  -54.4344 C.3       20 UNK         0.1400 
    111 CB        -8.8755  -22.1965  -55.6230 C.3       20 UNK        -0.1800 
    112 C         -7.7119  -21.3724  -53.4927 C.2       20 UNK         0.5000 
    113 O         -8.5700  -20.4956  -53.3852 O.2       20 UNK        -0.5000 
    114 N         -6.5476  -21.3598  -52.8260 N.am      21 UNK        -0.5000 
    115 CA        -6.0343  -20.2804  -51.9721 C.3       21 UNK         0.1400 
    116 CB        -6.9095  -20.0934  -50.7147 C.3       21 UNK        -0.1800 
    117 C         -5.7757  -18.9678  -52.7473 C.2       21 UNK         0.5000 
    118 O         -5.9521  -17.8833  -52.1897 O.2       21 UNK        -0.5000 
    119 N         -5.3404  -19.1055  -54.0086 N.am      22 UNK        -0.5000 
    120 CA        -5.1029  -18.0434  -55.0017 C.3       22 UNK         0.1400 
    121 C         -6.4126  -17.4399  -55.5914 C.2       22 UNK         0.5000 
    122 N         -6.3186  -16.7264  -56.7062 N.am      22 UNK        -0.7600 
    123 O         -7.5124  -17.5986  -55.0677 O.2       22 UNK        -0.5000 
    124 C124       -4.1252  -16.9252  -54.5329 C.3       23 UNK        -0.0398 
    125 S125       -2.4604  -17.5296  -54.0863 S.3       23 UNK        -0.2404 
    126 C126       -2.3773  -17.0836  -52.3231 C.3       23 UNK        -0.0205 
    127 H127        7.3168  -12.4695  -46.2373 H         1 UNK         0.0600 
    128 H128        7.2796  -13.5994  -47.5945 H         1 UNK         0.0600 
    129 H129        7.7301  -14.1688  -45.9845 H         1 UNK         0.0600 
    130 H130        5.1966  -14.1477  -48.1551 H         1 UNK         0.3000 
    131 H131        3.2614  -15.0801  -46.2294 H         1 UNK         0.0600 
    132 H132        3.4622  -16.3805  -48.1870 H         1 UNK         0.0800 
    133 H133        1.9022  -15.6360  -48.2622 H         1 UNK         0.0800 
    134 H134        1.1455  -14.0385  -50.2014 H         1 UNK         0.0800 
    135 H135        1.9346  -14.1781  -51.7527 H         1 UNK         0.0800 
    136 H136       -0.6901  -15.0129  -51.7663 H         1 UNK         0.1150 
    137 H137       -0.9135  -19.2867  -51.6817 H         1 UNK         0.1150 
    138 H138        2.6668  -17.3349  -50.4249 H         1 UNK         0.1150 
    139 H139        0.9952  -20.6084  -51.0811 H         1 UNK         0.0800 
    140 H140        2.5650  -19.8448  -51.1189 H         1 UNK         0.0800 
    141 H141       -0.6403  -19.7956  -49.2028 H         1 UNK         0.0800 
    142 H142       -0.1635  -19.0941  -47.6857 H         1 UNK         0.0800 
    143 H143       -0.0086  -22.1041  -48.1617 H         1 UNK         0.0600 
    144 H144        0.5694  -20.5225  -45.8861 H         1 UNK         0.3000 
    145 H145        0.0297  -23.1055  -43.4250 H         1 UNK         0.0600 
    146 H146        2.3519  -23.2869  -44.3240 H         1 UNK         0.0600 
    147 H147        2.4633  -21.5342  -44.4295 H         1 UNK         0.0600 
    148 H148        2.3099  -22.3166  -42.8589 H         1 UNK         0.0600 
    149 H149        0.6925  -20.3721  -43.0886 H         1 UNK         0.3000 
    150 H150       -2.6516  -19.0763  -42.8885 H         1 UNK         0.0600 
    151 H151       -1.6486  -18.2182  -40.7731 H         1 UNK         0.0600 
    152 H152       -0.3965  -19.4568  -40.8482 H         1 UNK         0.0600 
    153 H153       -2.0781  -19.9166  -40.6357 H         1 UNK         0.0600 
    154 H154       -0.0872  -17.8154  -42.7675 H         1 UNK         0.3000 
    155 H155        0.2266  -17.1273  -46.2565 H         1 UNK         0.0600 
    156 H156       -1.3610  -15.3967  -45.3594 H         1 UNK         0.0600 
    157 H157        0.2879  -14.8177  -45.4911 H         1 UNK         0.0600 
    158 H158       -0.3692  -15.2544  -43.9120 H         1 UNK         0.0600 
    159 H159        1.7582  -16.4469  -43.9038 H         1 UNK         0.3000 
    160 H160        3.9066  -19.3231  -44.0735 H         1 UNK         0.0600 
    161 H161        4.7462  -17.6369  -45.7726 H         1 UNK         0.0600 
    162 H162        5.6357  -17.5986  -44.2582 H         1 UNK         0.0600 
    163 H163        4.4406  -16.3540  -44.6057 H         1 UNK         0.0600 
    164 H164        3.9437  -17.0740  -42.3453 H         1 UNK         0.3000 
    165 H165        1.5111  -18.0032  -40.0104 H         1 UNK         0.0600 
    166 H166        3.3424  -18.2156  -38.3495 H         1 UNK         0.0600 
    167 H167        3.2461  -19.6676  -39.3321 H         1 UNK         0.0600 
    168 H168        4.5163  -18.4890  -39.6381 H         1 UNK         0.0600 
    169 H169        3.6800  -16.1682  -39.8328 H         1 UNK         0.3000 
    170 H170        3.1828  -13.9363  -39.9090 H         1 UNK         0.0600 
    171 H171        4.0864  -12.8366  -42.0036 H         1 UNK         0.0600 
    172 H172        4.5915  -14.5089  -41.8344 H         1 UNK         0.0600 
    173 H173        3.3185  -14.0940  -42.9687 H         1 UNK         0.0600 
    174 H174        1.3777  -12.8266  -41.9651 H         1 UNK         0.3000 
    175 H175       -1.0120  -11.6883  -39.7298 H         1 UNK         0.0600 
    176 H176        1.3305   -9.8048  -40.3321 H         1 UNK         0.0600 
    177 H177       -0.3213   -9.3094  -39.9598 H         1 UNK         0.0600 
    178 H178        0.6483  -10.1204  -38.7413 H         1 UNK         0.0600 
    179 H179        0.0921  -10.6763  -42.2533 H         1 UNK         0.3000 
    180 H180       -1.7044  -12.8592  -44.3059 H         1 UNK         0.0600 
    181 H181       -2.8755  -10.8893  -45.2329 H         1 UNK         0.0600 
    182 H182       -2.5142   -9.9509  -43.7829 H         1 UNK         0.0600 
    183 H183       -3.5957  -11.3359  -43.6957 H         1 UNK         0.0600 
    184 H184       -0.4475  -10.5334  -45.1227 H         1 UNK         0.3000 
    185 H185        1.5063  -10.7939  -46.2926 H         1 UNK         0.0600 
    186 H186        3.3427  -10.8280  -43.8251 H         1 UNK         0.0600 
    187 H187        3.6208   -9.8944  -45.2947 H         1 UNK         0.0600 
    188 H188        2.2466   -9.5226  -44.2649 H         1 UNK         0.0600 
    189 H189        3.6775  -12.5956  -45.4717 H         1 UNK         0.3000 
    190 H190       -2.2397  -20.1450  -46.1023 H         1 UNK         0.3000 
    191 H191       -4.5796  -20.6615  -47.5980 H         1 UNK         0.0600 
    192 H192       -4.2643  -20.0676  -44.6095 H         1 UNK         0.0600 
    193 H193       -5.7656  -19.9564  -45.5190 H         1 UNK         0.0600 
    194 H194       -4.4329  -18.8754  -45.8958 H         1 UNK         0.0600 
    195 H195       -3.1624  -22.4786  -44.8383 H         1 UNK         0.3000 
    196 H196       -5.1576  -24.4825  -44.6472 H         1 UNK         0.0600 
    197 H197       -3.4023  -25.7266  -43.3749 H         1 UNK         0.0600 
    198 H198       -3.4876  -24.0452  -42.8709 H         1 UNK         0.0600 
    199 H199       -2.1810  -24.5842  -43.9225 H         1 UNK         0.0600 
    200 H200       -2.2224  -24.3025  -46.6687 H         1 UNK         0.3000 
    201 H201       -2.5869  -26.9193  -47.8921 H         1 UNK         0.0600 
    202 H202       -0.3442  -25.8592  -47.5737 H         1 UNK         0.0600 
    203 H203       -0.8007  -24.5440  -48.6526 H         1 UNK         0.0600 
    204 H204       -0.6519  -26.1865  -49.2701 H         1 UNK         0.0600 
    205 H205       -4.2471  -24.0238  -48.3026 H         1 UNK         0.3000 
    206 H206       -5.5008  -23.0149  -49.8083 H         1 UNK         0.0600 
    207 H207       -6.8343  -24.3786  -51.3844 H         1 UNK         0.0600 
    208 H208       -5.7539  -25.7503  -51.1721 H         1 UNK         0.0600 
    209 H209       -6.7416  -25.1839  -49.8270 H         1 UNK         0.0600 
    210 H210       -2.8476  -22.5987  -50.1421 H         1 UNK         0.3000 
    211 H211       -1.2344  -21.8309  -51.4362 H         1 UNK         0.0600 
    212 H212       -3.3654  -21.4852  -53.6131 H         1 UNK         0.0600 
    213 H213       -1.7667  -20.7604  -53.6283 H         1 UNK         0.0600 
    214 H214       -2.9135  -20.3005  -52.3910 H         1 UNK         0.0600 
    215 H215       -1.5537  -24.5944  -51.2139 H         1 UNK         0.3000 
    216 H216       -0.7419  -26.5502  -51.8374 H         1 UNK         0.0600 
    217 H217        1.0944  -26.7709  -53.4526 H         1 UNK         0.0600 
    218 H218        1.3917  -25.3837  -52.4169 H         1 UNK         0.0600 
    219 H219        0.8233  -25.1496  -54.0693 H         1 UNK         0.0600 
    220 H220       -3.1866  -26.2122  -52.3398 H         1 UNK         0.3000 
    221 H221       -5.0288  -26.7667  -53.4263 H         1 UNK         0.0600 
    222 H222       -3.2565  -28.6636  -55.0544 H         1 UNK         0.0600 
    223 H223       -3.9463  -29.0107  -53.4696 H         1 UNK         0.0600 
    224 H224       -4.9993  -28.7810  -54.8558 H         1 UNK         0.0600 
    225 H225       -4.3257  -24.3778  -54.1744 H         1 UNK         0.3000 
    226 H226       -5.1072  -24.1718  -57.0365 H         1 UNK         0.0600 
    227 H227       -2.6270  -23.7662  -56.8693 H         1 UNK         0.0600 
    228 H228       -3.5118  -22.3285  -57.3577 H         1 UNK         0.0600 
    229 H229       -2.9286  -22.4798  -55.7061 H         1 UNK         0.0600 
    230 H230       -6.7115  -24.2371  -54.7449 H         1 UNK         0.3000 
    231 H231       -8.4974  -23.3106  -53.8339 H         1 UNK         0.0600 
    232 H232       -8.4325  -21.4102  -56.2354 H         1 UNK         0.0600 
    233 H233       -9.0616  -23.0574  -56.2650 H         1 UNK         0.0600 
    234 H234       -9.8460  -21.8364  -55.2797 H         1 UNK         0.0600 
    235 H235       -5.9139  -22.1368  -52.9837 H         1 UNK         0.3000 
    236 H236       -5.0586  -20.6093  -51.6203 H         1 UNK         0.0600 
    237 H237       -7.8845  -19.6703  -50.9567 H         1 UNK         0.0600 
    238 H238       -7.0725  -21.0405  -50.2008 H         1 UNK         0.0600 
    239 H239       -6.4304  -19.4186  -50.0043 H         1 UNK         0.0600 
    240 H240       -5.3061  -20.0421  -54.3945 H         1 UNK         0.3000 
    241 H241       -4.6273  -18.5625  -55.8349 H         1 UNK         0.0600 
    242 H242       -7.1570  -16.3287  -57.1012 H         1 UNK         0.3800 
    243 H243       -5.4385  -16.5867  -57.1781 H         1 UNK         0.3800 
    244 H244       -3.9767  -16.1974  -55.3317 H         1 UNK         0.0800 
    245 H245       -4.5554  -16.3575  -53.7077 H         1 UNK         0.0800 
    246 H246       -3.0145  -17.7569  -51.7482 H         1 UNK         0.0800 
    247 H247       -2.7819  -16.0804  -52.1804 H         1 UNK         0.0800 
@<TRIPOS>BOND
     1    1    2 1    
     2    1  127 1    
     3    1  128 1    
     4    1  129 1    
     5    2    3 2    
     6    2    4 am   BACKBONE|DICT|INTERRES
     7    4    5 1    
     8    4  130 1    
     9    5    6 1    
    10    5   65 1    
    11    5  131 1    
    12    6    7 1    
    13    6  132 1    
    14    6  133 1    
    15    7    8 1    
    16    8    9 1    
    17    8  134 1    
    18    8  135 1    
    19    9   10 ar   
    20    9   14 ar   
    21   10   11 ar   
    22   10  136 1    
    23   11   12 ar   
    24   11  126 1    
    25   12   13 ar   
    26   12  137 1    
    27   13   14 ar   
    28   13   15 1    
    29   14  138 1    
    30   15   16 1    
    31   15  139 1    
    32   15  140 1    
    33   16   17 1    
    34   17   18 1    
    35   17  141 1    
    36   17  142 1    
    37   18   19 1    
    38   18   67 1    
    39   18  143 1    
    40   19   20 am   BACKBONE|DICT|INTERRES
    41   19  144 1    
    42   20   21 2    
    43   20   22 1    
    44   22   23 1    
    45   22   24 1    
    46   22  145 1    
    47   23  146 1    
    48   23  147 1    
    49   23  148 1    
    50   24   25 am   BACKBONE|DICT|INTERRES
    51   24  149 1    
    52   25   26 2    
    53   25   27 1    
    54   27   28 1    
    55   27   29 1    
    56   27  150 1    
    57   28  151 1    
    58   28  152 1    
    59   28  153 1    
    60   29   30 am   BACKBONE|DICT|INTERRES
    61   29  154 1    
    62   30   31 2    
    63   30   32 1    
    64   32   33 1    
    65   32   34 1    
    66   32  155 1    
    67   33  156 1    
    68   33  157 1    
    69   33  158 1    
    70   34   35 am   BACKBONE|DICT|INTERRES
    71   34  159 1    
    72   35   36 2    
    73   35   37 1    
    74   37   38 1    
    75   37   39 1    
    76   37  160 1    
    77   38  161 1    
    78   38  162 1    
    79   38  163 1    
    80   39   40 am   BACKBONE|DICT|INTERRES
    81   39  164 1    
    82   40   41 2    
    83   40   42 1    
    84   42   43 1    
    85   42   44 1    
    86   42  165 1    
    87   43  166 1    
    88   43  167 1    
    89   43  168 1    
    90   44   45 am   BACKBONE|DICT|INTERRES
    91   44  169 1    
    92   45   46 2    
    93   45   47 1    
    94   47   48 1    
    95   47   49 1    
    96   47  170 1    
    97   48  171 1    
    98   48  172 1    
    99   48  173 1    
   100   49   50 am   BACKBONE|DICT|INTERRES
   101   49  174 1    
   102   50   51 2    
   103   50   52 1    
   104   52   53 1    
   105   52   54 1    
   106   52  175 1    
   107   53  176 1    
   108   53  177 1    
   109   53  178 1    
   110   54   55 am   BACKBONE|DICT|INTERRES
   111   54  179 1    
   112   55   56 2    
   113   55   57 1    
   114   57   58 1    
   115   57   59 1    
   116   57  180 1    
   117   58  181 1    
   118   58  182 1    
   119   58  183 1    
   120   59   60 am   BACKBONE|DICT|INTERRES
   121   59  184 1    
   122   60   61 2    
   123   60   62 1    
   124   62   63 1    
   125   62   64 1    
   126   62  185 1    
   127   63  186 1    
   128   63  187 1    
   129   63  188 1    
   130   64   65 am   BACKBONE|DICT|INTERRES
   131   64  189 1    
   132   65   66 2    
   133   67   68 2    
   134   67   69 am   BACKBONE|DICT|INTERRES
   135   69   70 1    
   136   69  190 1    
   137   70   71 1    
   138   70   72 1    
   139   70  191 1    
   140   71  192 1    
   141   71  193 1    
   142   71  194 1    
   143   72   73 2    
   144   72   74 am   BACKBONE|DICT|INTERRES
   145   74   75 1    
   146   74  195 1    
   147   75   76 1    
   148   75   77 1    
   149   75  196 1    
   150   76  197 1    
   151   76  198 1    
   152   76  199 1    
   153   77   78 2    
   154   77   79 am   BACKBONE|DICT|INTERRES
   155   79   80 1    
   156   79  200 1    
   157   80   81 1    
   158   80   82 1    
   159   80  201 1    
   160   81  202 1    
   161   81  203 1    
   162   81  204 1    
   163   82   83 2    
   164   82   84 am   BACKBONE|DICT|INTERRES
   165   84   85 1    
   166   84  205 1    
   167   85   86 1    
   168   85   87 1    
   169   85  206 1    
   170   86  207 1    
   171   86  208 1    
   172   86  209 1    
   173   87   88 2    
   174   87   89 am   BACKBONE|DICT|INTERRES
   175   89   90 1    
   176   89  210 1    
   177   90   91 1    
   178   90   92 1    
   179   90  211 1    
   180   91  212 1    
   181   91  213 1    
   182   91  214 1    
   183   92   93 2    
   184   92   94 am   BACKBONE|DICT|INTERRES
   185   94   95 1    
   186   94  215 1    
   187   95   96 1    
   188   95   97 1    
   189   95  216 1    
   190   96  217 1    
   191   96  218 1    
   192   96  219 1    
   193   97   98 2    
   194   97   99 am   BACKBONE|DICT|INTERRES
   195   99  100 1    
   196   99  220 1    
   197  100  101 1    
   198  100  102 1    
   199  100  221 1    
   200  101  222 1    
   201  101  223 1    
   202  101  224 1    
   203  102  103 2    
   204  102  104 am   BACKBONE|DICT|INTERRES
   205  104  105 1    
   206  104  225 1    
   207  105  106 1    
   208  105  107 1    
   209  105  226 1    
   210  106  227 1    
   211  106  228 1    
   212  106  229 1    
   213  107  108 2    
   214  107  109 am   BACKBONE|DICT|INTERRES
   215  109  110 1    
   216  109  230 1    
   217  110  111 1    
   218  110  112 1    
   219  110  231 1    
   220  111  232 1    
   221  111  233 1    
   222  111  234 1    
   223  112  113 2    
   224  112  114 am   BACKBONE|DICT|INTERRES
   225  114  115 1    
   226  114  235 1    
   227  115  116 1    
   228  115  117 1    
   229  115  236 1    
   230  116  237 1    
   231  116  238 1    
   232  116  239 1    
   233  117  118 2    
   234  117  119 am   BACKBONE|DICT|INTERRES
   235  119  120 1    
   236  119  240 1    
   237  120  121 1    
   238  120  124 1    
   239  120  241 1    
   240  121  122 am   BACKBONE|DICT|INTERRES
   241  121  123 2    
   242  122  242 1    
   243  122  243 1    
   244  124  125 1    
   245  124  244 1    
   246  124  245 1    
   247  125  126 1    
   248  126  246 1    
   249  126  247 1    
@<TRIPOS>SUBSTRUCTURE
     1 UNK         1 GROUP             0       ****    0 ROOT    
