@<TRIPOS>MOLECULE
3R540
247   249    1
SMALL
USER_CHARGES


@<TRIPOS>ATOM
      1 CA         -7.8612  -13.6895  -51.5822 C.3       0 UNK        -0.1800 
      2 C          -6.3576  -13.8731  -51.4351 C.2       0 UNK         0.5000 
      3 O          -5.5918  -13.2077  -52.1310 O.2       0 UNK        -0.5000 
      4 N          -5.9401  -14.7803  -50.5426 N.am      1 UNK        -0.5000 
      5 CA         -4.5399  -15.1035  -50.2467 C.3       1 UNK         0.1400 
      6 C6         -4.4475  -16.4030  -49.4008 C.3       23 UNK        -0.0398 
      7 S7         -2.7939  -16.8603  -48.7770 S.3       23 UNK        -0.2404 
      8 C8         -2.0783  -17.6815  -50.2311 C.3       23 UNK        -0.0205 
      9 C9         -0.6306  -18.0552  -49.9676 C.ar      23 UNK        -0.0193 
     10 C10         0.3721  -17.1017  -50.1495 C.ar      23 UNK        -0.1150 
     11 C11         1.7123  -17.4273  -49.9284 C.ar      23 UNK        -0.0193 
     12 C12         2.0430  -18.7117  -49.4883 C.ar      23 UNK        -0.1150 
     13 C13         1.0484  -19.6764  -49.2995 C.ar      23 UNK        -0.0193 
     14 C14        -0.2878  -19.3447  -49.5505 C.ar      23 UNK        -0.1150 
     15 C15         1.4338  -21.0797  -48.8553 C.3       23 UNK        -0.0205 
     16 S16         1.3721  -21.2638  -47.0459 S.3       23 UNK        -0.2404 
     17 C17        -0.3721  -21.7277  -46.7775 C.3       23 UNK        -0.0398 
     18 CA         -0.5424  -23.2290  -46.4392 C.3       11 UNK         0.1400 
     19 N           0.2453  -23.6560  -45.2795 N.am      11 UNK        -0.5000 
     20 C           0.4925  -24.9345  -44.9578 C.2       10 UNK         0.5000 
     21 O           0.0881  -25.8898  -45.6181 O.2       10 UNK        -0.5000 
     22 CA          1.2789  -25.1977  -43.6584 C.3       10 UNK         0.1400 
     23 CB          2.7881  -25.2137  -43.9409 C.3       10 UNK        -0.1800 
     24 N           0.9980  -24.2181  -42.6091 N.am      10 UNK        -0.5000 
     25 C          -0.2063  -24.0002  -42.0620 C.2       9 UNK         0.5000 
     26 O          -1.2017  -24.6781  -42.3180 O.2       9 UNK        -0.5000 
     27 CA         -0.3341  -22.7774  -41.1294 C.3       9 UNK         0.1400 
     28 CB         -0.1861  -23.2048  -39.6620 C.3       9 UNK        -0.1800 
     29 N           0.6248  -21.7015  -41.4199 N.am      9 UNK        -0.5000 
     30 C           0.7259  -21.0577  -42.5915 C.2       8 UNK         0.5000 
     31 O           0.0058  -21.3031  -43.5621 O.2       8 UNK        -0.5000 
     32 CA          1.8450  -20.0130  -42.7147 C.3       8 UNK         0.1400 
     33 CB          3.2347  -20.6584  -42.5623 C.3       8 UNK        -0.1800 
     34 N           1.7631  -19.3717  -44.0242 N.am      8 UNK        -0.5000 
     35 C           2.0486  -18.0934  -44.2799 C.2       7 UNK         0.5000 
     36 O           2.4216  -17.2927  -43.4167 O.2       7 UNK        -0.5000 
     37 CA          1.8688  -17.6392  -45.7418 C.3       7 UNK         0.1400 
     38 CB          0.3793  -17.5030  -46.0960 C.3       7 UNK        -0.1800 
     39 N           2.5259  -16.3523  -45.9521 N.am      7 UNK        -0.5000 
     40 C           3.8248  -16.1983  -46.2399 C.2       6 UNK         0.5000 
     41 O           4.5702  -17.1228  -46.5661 O.2       6 UNK        -0.5000 
     42 CA          4.4021  -14.7811  -46.0838 C.3       6 UNK         0.1400 
     43 CB          4.0952  -13.9079  -47.3101 C.3       6 UNK        -0.1800 
     44 N           3.8667  -14.1458  -44.8788 N.am      6 UNK        -0.5000 
     45 C           4.5096  -14.0640  -43.7064 C.2       5 UNK         0.5000 
     46 O           5.6775  -14.4256  -43.5517 O.2       5 UNK        -0.5000 
     47 CA          3.7274  -13.5238  -42.4861 C.3       5 UNK         0.1400 
     48 CB          4.5485  -12.5023  -41.6712 C.3       5 UNK        -0.1800 
     49 N           2.3852  -13.0080  -42.7888 N.am      5 UNK        -0.5000 
     50 C           2.0575  -11.9120  -43.4874 C.2       4 UNK         0.5000 
     51 O           2.8696  -11.1241  -43.9756 O.2       4 UNK        -0.5000 
     52 CA          0.5494  -11.7006  -43.7299 C.3       4 UNK         0.1400 
     53 CB          0.1032  -10.2994  -43.2823 C.3       4 UNK        -0.1800 
     54 N           0.1850  -11.8946  -45.1350 N.am      4 UNK        -0.5000 
     55 C           0.4255  -12.9967  -45.8588 C.2       3 UNK         0.5000 
     56 O           0.9838  -14.0011  -45.4103 O.2       3 UNK        -0.5000 
     57 CA         -0.0225  -12.9544  -47.3331 C.3       3 UNK         0.1400 
     58 CB          0.0622  -14.3310  -48.0222 C.3       3 UNK        -0.1800 
     59 N          -1.3578  -12.3831  -47.5413 N.am      3 UNK        -0.5000 
     60 C          -2.5142  -12.8311  -47.0279 C.2       2 UNK         0.5000 
     61 O          -2.5987  -13.6694  -46.1294 O.2       2 UNK        -0.5000 
     62 CA         -3.8152  -12.3054  -47.6712 C.3       2 UNK         0.1400 
     63 CB         -3.6639  -10.9545  -48.4064 C.3       2 UNK        -0.1800 
     64 N          -4.3940  -13.3270  -48.5534 N.am      2 UNK        -0.5000 
     65 C          -3.8010  -13.9046  -49.6133 C.2       1 UNK         0.5000 
     66 O          -2.7334  -13.5303  -50.1000 O.2       1 UNK        -0.5000 
     67 C          -2.0331  -23.5588  -46.2495 C.2       11 UNK         0.5000 
     68 O          -2.6979  -23.9238  -47.2183 O.2       11 UNK        -0.5000 
     69 N          -2.5304  -23.4416  -45.0107 N.am      12 UNK        -0.5000 
     70 CA         -3.8915  -23.8241  -44.6392 C.3       12 UNK         0.1400 
     71 CB         -4.2477  -23.2263  -43.2699 C.3       12 UNK        -0.1800 
     72 C          -4.0735  -25.3513  -44.6525 C.2       12 UNK         0.5000 
     73 O          -5.0783  -25.8344  -45.1737 O.2       12 UNK        -0.5000 
     74 N          -3.0782  -26.0810  -44.1275 N.am      13 UNK        -0.5000 
     75 CA         -3.0327  -27.5450  -44.1100 C.3       13 UNK         0.1400 
     76 CB         -1.8449  -28.0081  -43.2532 C.3       13 UNK        -0.1800 
     77 C          -2.9647  -28.1652  -45.5194 C.2       13 UNK         0.5000 
     78 O          -3.6533  -29.1514  -45.7833 O.2       13 UNK        -0.5000 
     79 N          -2.1605  -27.5615  -46.4054 N.am      14 UNK        -0.5000 
     80 CA         -2.0177  -27.9563  -47.8096 C.3       14 UNK         0.1400 
     81 CB         -0.7008  -27.3772  -48.3520 C.3       14 UNK        -0.1800 
     82 C          -3.1933  -27.5093  -48.7023 C.2       14 UNK         0.5000 
     83 O          -3.2838  -27.9664  -49.8420 O.2       14 UNK        -0.5000 
     84 N          -4.0385  -26.6013  -48.1907 N.am      15 UNK        -0.5000 
     85 CA         -5.1384  -25.9079  -48.8738 C.3       15 UNK         0.1400 
     86 CB         -6.2155  -26.8959  -49.3663 C.3       15 UNK        -0.1800 
     87 C          -4.6634  -24.9384  -49.9792 C.2       15 UNK         0.5000 
     88 O          -5.4599  -24.5239  -50.8216 O.2       15 UNK        -0.5000 
     89 N          -3.3844  -24.5437  -49.9252 N.am      16 UNK        -0.5000 
     90 CA         -2.7714  -23.5167  -50.7667 C.3       16 UNK         0.1400 
     91 CB         -1.2458  -23.5943  -50.6164 C.3       16 UNK        -0.1800 
     92 C          -3.2802  -22.1055  -50.4210 C.2       16 UNK         0.5000 
     93 O          -3.3143  -21.2421  -51.2945 O.2       16 UNK        -0.5000 
     94 N          -3.7255  -21.9124  -49.1703 N.am      17 UNK        -0.5000 
     95 CA         -4.3654  -20.6939  -48.6649 C.3       17 UNK         0.1400 
     96 CB         -4.5556  -20.8296  -47.1468 C.3       17 UNK        -0.1800 
     97 C          -5.7039  -20.3367  -49.3519 C.2       17 UNK         0.5000 
     98 O          -6.2042  -19.2308  -49.1505 O.2       17 UNK        -0.5000 
     99 N          -6.2688  -21.2610  -50.1420 N.am      18 UNK        -0.5000 
    100 CA        -7.4392  -21.0204  -50.9850 C.3       18 UNK         0.1400 
    101 CB        -8.1014  -22.3673  -51.3132 C.3       18 UNK        -0.1800 
    102 C         -7.0986  -20.2588  -52.2835 C.2       18 UNK         0.5000 
    103 O         -7.9966  -19.6522  -52.8695 O.2       18 UNK        -0.5000 
    104 N         -5.8332  -20.3082  -52.7248 N.am      19 UNK        -0.5000 
    105 CA        -5.3465  -19.6128  -53.9156 C.3       19 UNK         0.1400 
    106 CB        -4.1748  -20.4068  -54.5147 C.3       19 UNK        -0.1800 
    107 C         -4.8985  -18.1846  -53.5665 C.2       19 UNK         0.5000 
    108 O         -4.4847  -17.9278  -52.4359 O.2       19 UNK        -0.5000 
    109 N         -4.9640  -17.2811  -54.5518 N.am      20 UNK        -0.5000 
    110 CA        -4.4944  -15.9006  -54.4135 C.3       20 UNK         0.1400 
    111 CB        -5.1640  -15.0269  -55.4850 C.3       20 UNK        -0.1800 
    112 C         -2.9598  -15.7868  -54.4977 C.2       20 UNK         0.5000 
    113 O         -2.3759  -14.9265  -53.8390 O.2       20 UNK        -0.5000 
    114 N         -2.3397  -16.6488  -55.3134 N.am      21 UNK        -0.5000 
    115 CA        -0.8923  -16.7307  -55.4981 C.3       21 UNK         0.1400 
    116 CB        -0.6086  -17.2409  -56.9200 C.3       21 UNK        -0.1800 
    117 C         -0.2553  -17.6673  -54.4579 C.2       21 UNK         0.5000 
    118 O         -0.9111  -18.6002  -53.9883 O.2       21 UNK        -0.5000 
    119 N          1.0227  -17.4202  -54.1494 N.am      22 UNK        -0.5000 
    120 CA         1.8399  -18.2598  -53.2610 C.3       22 UNK         0.1400 
    121 C          2.1813  -19.6388  -53.8890 C.2       22 UNK         0.5000 
    122 N          2.2179  -20.6975  -53.0909 N.am      22 UNK        -0.7600 
    123 O          2.4585  -19.7493  -55.0815 O.2       22 UNK        -0.5000 
    124 C124        3.1380  -17.5402  -52.8026 C.3       23 UNK        -0.0398 
    125 S125        2.8366  -15.9348  -51.9804 S.3       23 UNK        -0.2404 
    126 C126        2.8017  -16.4063  -50.2176 C.3       23 UNK        -0.0205 
    127 H127       -8.1666  -13.9078  -52.6056 H         1 UNK         0.0600 
    128 H128       -8.1373  -12.6597  -51.3552 H         1 UNK         0.0600 
    129 H129       -8.4186  -14.3463  -50.9140 H         1 UNK         0.0600 
    130 H130       -6.6296  -15.2976  -50.0163 H         1 UNK         0.3000 
    131 H131       -4.0450  -15.3063  -51.1985 H         1 UNK         0.0600 
    132 H132       -5.0994  -16.3263  -48.5295 H         1 UNK         0.0800 
    133 H133       -4.8351  -17.2373  -49.9826 H         1 UNK         0.0800 
    134 H134       -2.6609  -18.5660  -50.4911 H         1 UNK         0.0800 
    135 H135       -2.1346  -17.0151  -51.0936 H         1 UNK         0.0800 
    136 H136        0.1111  -16.1114  -50.4944 H         1 UNK         0.1150 
    137 H137        3.0780  -18.9678  -49.3099 H         1 UNK         0.1150 
    138 H138       -1.0644  -20.0843  -49.4266 H         1 UNK         0.1150 
    139 H139        0.7953  -21.8215  -49.3340 H         1 UNK         0.0800 
    140 H140        2.4487  -21.3038  -49.1873 H         1 UNK         0.0800 
    141 H141       -0.9544  -21.4783  -47.6641 H         1 UNK         0.0800 
    142 H142       -0.7720  -21.0982  -45.9820 H         1 UNK         0.0800 
    143 H143       -0.1937  -23.8045  -47.2991 H         1 UNK         0.0600 
    144 H144        0.5464  -22.9162  -44.6562 H         1 UNK         0.3000 
    145 H145        0.9881  -26.1813  -43.2851 H         1 UNK         0.0600 
    146 H146        3.3547  -25.4735  -43.0465 H         1 UNK         0.0600 
    147 H147        3.0338  -25.9517  -44.7057 H         1 UNK         0.0600 
    148 H148        3.1423  -24.2442  -44.2942 H         1 UNK         0.0600 
    149 H149        1.7602  -23.6168  -42.3349 H         1 UNK         0.3000 
    150 H150       -1.3379  -22.3706  -41.2680 H         1 UNK         0.0600 
    151 H151        0.8117  -23.5932  -39.4545 H         1 UNK         0.0600 
    152 H152       -0.9026  -23.9876  -39.4089 H         1 UNK         0.0600 
    153 H153       -0.3694  -22.3688  -38.9867 H         1 UNK         0.0600 
    154 H154        1.2517  -21.4494  -40.6693 H         1 UNK         0.3000 
    155 H155        1.6934  -19.2749  -41.9244 H         1 UNK         0.0600 
    156 H156        3.4025  -21.4311  -43.3138 H         1 UNK         0.0600 
    157 H157        3.3582  -21.1180  -41.5813 H         1 UNK         0.0600 
    158 H158        4.0256  -19.9155  -42.6681 H         1 UNK         0.0600 
    159 H159        1.3841  -19.9588  -44.7571 H         1 UNK         0.3000 
    160 H160        2.3145  -18.3901  -46.3972 H         1 UNK         0.0600 
    161 H161       -0.1124  -16.7383  -45.4934 H         1 UNK         0.0600 
    162 H162       -0.1537  -18.4417  -45.9411 H         1 UNK         0.0600 
    163 H163        0.2525  -17.2373  -47.1448 H         1 UNK         0.0600 
    164 H164        1.9859  -15.5378  -45.6732 H         1 UNK         0.3000 
    165 H165        5.4877  -14.8746  -46.0127 H         1 UNK         0.0600 
    166 H166        4.5871  -12.9384  -47.2299 H         1 UNK         0.0600 
    167 H167        4.4540  -14.3795  -48.2256 H         1 UNK         0.0600 
    168 H168        3.0285  -13.7270  -47.4262 H         1 UNK         0.0600 
    169 H169        2.8897  -13.8754  -44.9085 H         1 UNK         0.3000 
    170 H170        3.5642  -14.3904  -41.8438 H         1 UNK         0.0600 
    171 H171        5.4685  -12.9512  -41.2953 H         1 UNK         0.0600 
    172 H172        4.8330  -11.6373  -42.2707 H         1 UNK         0.0600 
    173 H173        3.9887  -12.1442  -40.8073 H         1 UNK         0.0600 
    174 H174        1.6303  -13.6073  -42.4840 H         1 UNK         0.3000 
    175 H175       -0.0088  -12.4330  -43.1430 H         1 UNK         0.0600 
    176 H176        0.3566  -10.1257  -42.2357 H         1 UNK         0.0600 
    177 H177        0.5826   -9.5159  -43.8705 H         1 UNK         0.0600 
    178 H178       -0.9760  -10.1789  -43.3789 H         1 UNK         0.0600 
    179 H179       -0.2692  -11.1175  -45.5914 H         1 UNK         0.3000 
    180 H180        0.6806  -12.2923  -47.8400 H         1 UNK         0.0600 
    181 H181       -0.6345  -15.0426  -47.5801 H         1 UNK         0.0600 
    182 H182        1.0573  -14.7656  -47.9478 H         1 UNK         0.0600 
    183 H183       -0.1766  -14.2492  -49.0820 H         1 UNK         0.0600 
    184 H184       -1.4223  -11.7017  -48.2842 H         1 UNK         0.3000 
    185 H185       -4.5244  -12.1565  -46.8556 H         1 UNK         0.0600 
    186 H186       -3.2528  -10.1927  -47.7429 H         1 UNK         0.0600 
    187 H187       -3.0147  -11.0194  -49.2795 H         1 UNK         0.0600 
    188 H188       -4.6332  -10.5918  -48.7488 H         1 UNK         0.0600 
    189 H189       -5.2752  -13.7107  -48.2437 H         1 UNK         0.3000 
    190 H190       -1.9150  -23.1493  -44.2647 H         1 UNK         0.3000 
    191 H191       -4.5787  -23.4038  -45.3756 H         1 UNK         0.0600 
    192 H192       -4.1523  -22.1404  -43.2783 H         1 UNK         0.0600 
    193 H193       -5.2787  -23.4600  -43.0018 H         1 UNK         0.0600 
    194 H194       -3.6092  -23.6126  -42.4759 H         1 UNK         0.0600 
    195 H195       -2.3111  -25.5959  -43.6718 H         1 UNK         0.3000 
    196 H196       -3.9506  -27.8985  -43.6359 H         1 UNK         0.0600 
    197 H197       -1.8214  -29.0957  -43.1746 H         1 UNK         0.0600 
    198 H198       -1.9086  -27.6091  -42.2406 H         1 UNK         0.0600 
    199 H199       -0.8935  -27.6898  -43.6791 H         1 UNK         0.0600 
    200 H200       -1.5629  -26.8029  -46.0886 H         1 UNK         0.3000 
    201 H201       -1.9600  -29.0454  -47.8628 H         1 UNK         0.0600 
    202 H202       -0.5348  -27.6767  -49.3876 H         1 UNK         0.0600 
    203 H203        0.1528  -27.7300  -47.7729 H         1 UNK         0.0600 
    204 H204       -0.6989  -26.2868  -48.3209 H         1 UNK         0.0600 
    205 H205       -3.8664  -26.2949  -47.2424 H         1 UNK         0.3000 
    206 H206       -5.6011  -25.2785  -48.1123 H         1 UNK         0.0600 
    207 H207       -6.5283  -27.5681  -48.5672 H         1 UNK         0.0600 
    208 H208       -7.1043  -26.3645  -49.7083 H         1 UNK         0.0600 
    209 H209       -5.8616  -27.5036  -50.1992 H         1 UNK         0.0600 
    210 H210       -2.8400  -24.8590  -49.1328 H         1 UNK         0.3000 
    211 H211       -3.0299  -23.7201  -51.8079 H         1 UNK         0.0600 
    212 H212       -0.9390  -23.4422  -49.5823 H         1 UNK         0.0600 
    213 H213       -0.7529  -22.8346  -51.2247 H         1 UNK         0.0600 
    214 H214       -0.8678  -24.5651  -50.9377 H         1 UNK         0.0600 
    215 H215       -3.6311  -22.6802  -48.5141 H         1 UNK         0.3000 
    216 H216       -3.6826  -19.8631  -48.8442 H         1 UNK         0.0600 
    217 H217       -4.9989  -19.9265  -46.7251 H         1 UNK         0.0600 
    218 H218       -3.6036  -20.9845  -46.6398 H         1 UNK         0.0600 
    219 H219       -5.2130  -21.6637  -46.9006 H         1 UNK         0.0600 
    220 H220       -5.8120  -22.1559  -50.2507 H         1 UNK         0.3000 
    221 H221       -8.1586  -20.4183  -50.4260 H         1 UNK         0.0600 
    222 H222       -7.4460  -23.0026  -51.9100 H         1 UNK         0.0600 
    223 H223       -8.3627  -22.9125  -50.4061 H         1 UNK         0.0600 
    224 H224       -9.0210  -22.2214  -51.8814 H         1 UNK         0.0600 
    225 H225       -5.1196  -20.7373  -52.1458 H         1 UNK         0.3000 
    226 H226       -6.1439  -19.5634  -54.6602 H         1 UNK         0.0600 
    227 H227       -3.8395  -19.9620  -55.4522 H         1 UNK         0.0600 
    228 H228       -3.3163  -20.4279  -53.8421 H         1 UNK         0.0600 
    229 H229       -4.4610  -21.4370  -54.7268 H         1 UNK         0.0600 
    230 H230       -5.3257  -17.5528  -55.4547 H         1 UNK         0.3000 
    231 H231       -4.8022  -15.5235  -53.4376 H         1 UNK         0.0600 
    232 H232       -4.9067  -15.3536  -56.4933 H         1 UNK         0.0600 
    233 H233       -4.8528  -13.9860  -55.3864 H         1 UNK         0.0600 
    234 H234       -6.2497  -15.0493  -55.3892 H         1 UNK         0.0600 
    235 H235       -2.8891  -17.3633  -55.7655 H         1 UNK         0.3000 
    236 H236       -0.4545  -15.7354  -55.3933 H         1 UNK         0.0600 
    237 H237       -1.0367  -16.5762  -57.6706 H         1 UNK         0.0600 
    238 H238        0.4642  -17.2962  -57.1095 H         1 UNK         0.0600 
    239 H239       -1.0207  -18.2383  -57.0797 H         1 UNK         0.0600 
    240 H240        1.5007  -16.6483  -54.5896 H         1 UNK         0.3000 
    241 H241        1.2321  -18.4617  -52.3800 H         1 UNK         0.0600 
    242 H242        1.9951  -20.6254  -52.1112 H         1 UNK         0.3800 
    243 H243        2.4548  -21.5959  -53.4819 H         1 UNK         0.3800 
    244 H244        3.7092  -18.1769  -52.1246 H         1 UNK         0.0800 
    245 H245        3.7883  -17.3574  -53.6597 H         1 UNK         0.0800 
    246 H246        3.7821  -16.7847  -49.9241 H         1 UNK         0.0800 
    247 H247        2.6233  -15.5143  -49.6172 H         1 UNK         0.0800 
@<TRIPOS>BOND
     1    1    2 1    
     2    1  127 1    
     3    1  128 1    
     4    1  129 1    
     5    2    3 2    
     6    2    4 am   BACKBONE|DICT|INTERRES
     7    4    5 1    
     8    4  130 1    
     9    5    6 1    
    10    5   65 1    
    11    5  131 1    
    12    6    7 1    
    13    6  132 1    
    14    6  133 1    
    15    7    8 1    
    16    8    9 1    
    17    8  134 1    
    18    8  135 1    
    19    9   10 ar   
    20    9   14 ar   
    21   10   11 ar   
    22   10  136 1    
    23   11   12 ar   
    24   11  126 1    
    25   12   13 ar   
    26   12  137 1    
    27   13   14 ar   
    28   13   15 1    
    29   14  138 1    
    30   15   16 1    
    31   15  139 1    
    32   15  140 1    
    33   16   17 1    
    34   17   18 1    
    35   17  141 1    
    36   17  142 1    
    37   18   19 1    
    38   18   67 1    
    39   18  143 1    
    40   19   20 am   BACKBONE|DICT|INTERRES
    41   19  144 1    
    42   20   21 2    
    43   20   22 1    
    44   22   23 1    
    45   22   24 1    
    46   22  145 1    
    47   23  146 1    
    48   23  147 1    
    49   23  148 1    
    50   24   25 am   BACKBONE|DICT|INTERRES
    51   24  149 1    
    52   25   26 2    
    53   25   27 1    
    54   27   28 1    
    55   27   29 1    
    56   27  150 1    
    57   28  151 1    
    58   28  152 1    
    59   28  153 1    
    60   29   30 am   BACKBONE|DICT|INTERRES
    61   29  154 1    
    62   30   31 2    
    63   30   32 1    
    64   32   33 1    
    65   32   34 1    
    66   32  155 1    
    67   33  156 1    
    68   33  157 1    
    69   33  158 1    
    70   34   35 am   BACKBONE|DICT|INTERRES
    71   34  159 1    
    72   35   36 2    
    73   35   37 1    
    74   37   38 1    
    75   37   39 1    
    76   37  160 1    
    77   38  161 1    
    78   38  162 1    
    79   38  163 1    
    80   39   40 am   BACKBONE|DICT|INTERRES
    81   39  164 1    
    82   40   41 2    
    83   40   42 1    
    84   42   43 1    
    85   42   44 1    
    86   42  165 1    
    87   43  166 1    
    88   43  167 1    
    89   43  168 1    
    90   44   45 am   BACKBONE|DICT|INTERRES
    91   44  169 1    
    92   45   46 2    
    93   45   47 1    
    94   47   48 1    
    95   47   49 1    
    96   47  170 1    
    97   48  171 1    
    98   48  172 1    
    99   48  173 1    
   100   49   50 am   BACKBONE|DICT|INTERRES
   101   49  174 1    
   102   50   51 2    
   103   50   52 1    
   104   52   53 1    
   105   52   54 1    
   106   52  175 1    
   107   53  176 1    
   108   53  177 1    
   109   53  178 1    
   110   54   55 am   BACKBONE|DICT|INTERRES
   111   54  179 1    
   112   55   56 2    
   113   55   57 1    
   114   57   58 1    
   115   57   59 1    
   116   57  180 1    
   117   58  181 1    
   118   58  182 1    
   119   58  183 1    
   120   59   60 am   BACKBONE|DICT|INTERRES
   121   59  184 1    
   122   60   61 2    
   123   60   62 1    
   124   62   63 1    
   125   62   64 1    
   126   62  185 1    
   127   63  186 1    
   128   63  187 1    
   129   63  188 1    
   130   64   65 am   BACKBONE|DICT|INTERRES
   131   64  189 1    
   132   65   66 2    
   133   67   68 2    
   134   67   69 am   BACKBONE|DICT|INTERRES
   135   69   70 1    
   136   69  190 1    
   137   70   71 1    
   138   70   72 1    
   139   70  191 1    
   140   71  192 1    
   141   71  193 1    
   142   71  194 1    
   143   72   73 2    
   144   72   74 am   BACKBONE|DICT|INTERRES
   145   74   75 1    
   146   74  195 1    
   147   75   76 1    
   148   75   77 1    
   149   75  196 1    
   150   76  197 1    
   151   76  198 1    
   152   76  199 1    
   153   77   78 2    
   154   77   79 am   BACKBONE|DICT|INTERRES
   155   79   80 1    
   156   79  200 1    
   157   80   81 1    
   158   80   82 1    
   159   80  201 1    
   160   81  202 1    
   161   81  203 1    
   162   81  204 1    
   163   82   83 2    
   164   82   84 am   BACKBONE|DICT|INTERRES
   165   84   85 1    
   166   84  205 1    
   167   85   86 1    
   168   85   87 1    
   169   85  206 1    
   170   86  207 1    
   171   86  208 1    
   172   86  209 1    
   173   87   88 2    
   174   87   89 am   BACKBONE|DICT|INTERRES
   175   89   90 1    
   176   89  210 1    
   177   90   91 1    
   178   90   92 1    
   179   90  211 1    
   180   91  212 1    
   181   91  213 1    
   182   91  214 1    
   183   92   93 2    
   184   92   94 am   BACKBONE|DICT|INTERRES
   185   94   95 1    
   186   94  215 1    
   187   95   96 1    
   188   95   97 1    
   189   95  216 1    
   190   96  217 1    
   191   96  218 1    
   192   96  219 1    
   193   97   98 2    
   194   97   99 am   BACKBONE|DICT|INTERRES
   195   99  100 1    
   196   99  220 1    
   197  100  101 1    
   198  100  102 1    
   199  100  221 1    
   200  101  222 1    
   201  101  223 1    
   202  101  224 1    
   203  102  103 2    
   204  102  104 am   BACKBONE|DICT|INTERRES
   205  104  105 1    
   206  104  225 1    
   207  105  106 1    
   208  105  107 1    
   209  105  226 1    
   210  106  227 1    
   211  106  228 1    
   212  106  229 1    
   213  107  108 2    
   214  107  109 am   BACKBONE|DICT|INTERRES
   215  109  110 1    
   216  109  230 1    
   217  110  111 1    
   218  110  112 1    
   219  110  231 1    
   220  111  232 1    
   221  111  233 1    
   222  111  234 1    
   223  112  113 2    
   224  112  114 am   BACKBONE|DICT|INTERRES
   225  114  115 1    
   226  114  235 1    
   227  115  116 1    
   228  115  117 1    
   229  115  236 1    
   230  116  237 1    
   231  116  238 1    
   232  116  239 1    
   233  117  118 2    
   234  117  119 am   BACKBONE|DICT|INTERRES
   235  119  120 1    
   236  119  240 1    
   237  120  121 1    
   238  120  124 1    
   239  120  241 1    
   240  121  122 am   BACKBONE|DICT|INTERRES
   241  121  123 2    
   242  122  242 1    
   243  122  243 1    
   244  124  125 1    
   245  124  244 1    
   246  124  245 1    
   247  125  126 1    
   248  126  246 1    
   249  126  247 1    
@<TRIPOS>SUBSTRUCTURE
     1 UNK         1 GROUP             0       ****    0 ROOT    
