@<TRIPOS>MOLECULE
3R540
247   249    1
SMALL
USER_CHARGES


@<TRIPOS>ATOM
      1 CA          0.3879  -14.8757  -50.2391 C.3       0 UNK        -0.1800 
      2 C          -0.8069  -14.1776  -49.6062 C.2       0 UNK         0.5000 
      3 O          -0.9019  -12.9522  -49.6709 O.2       0 UNK        -0.5000 
      4 N          -1.6955  -14.9479  -48.9658 N.am      1 UNK        -0.5000 
      5 CA         -2.9329  -14.5496  -48.2692 C.3       1 UNK         0.1400 
      6 C6         -3.9319  -13.7293  -49.1307 C.3       23 UNK        -0.0398 
      7 S7         -4.2944  -14.4582  -50.7646 S.3       23 UNK        -0.2404 
      8 C8         -6.0715  -14.8441  -50.6631 C.3       23 UNK        -0.0205 
      9 C9         -6.3265  -16.3027  -50.3149 C.ar      23 UNK        -0.0193 
     10 C10        -5.9607  -17.3012  -51.2200 C.ar      23 UNK        -0.1150 
     11 C11        -6.2397  -18.6427  -50.9526 C.ar      23 UNK        -0.0193 
     12 C12        -6.9056  -18.9863  -49.7740 C.ar      23 UNK        -0.1150 
     13 C13        -7.2725  -17.9983  -48.8544 C.ar      23 UNK        -0.0193 
     14 C14        -6.9711  -16.6581  -49.1262 C.ar      23 UNK        -0.1150 
     15 C15        -8.0318  -18.3683  -47.5881 C.3       23 UNK        -0.0205 
     16 S16        -6.9345  -18.9890  -46.2739 S.3       23 UNK        -0.2404 
     17 C17        -6.8331  -20.7741  -46.6553 C.3       23 UNK        -0.0398 
     18 CA         -5.3775  -21.2670  -46.8494 C.3       11 UNK         0.1400 
     19 N          -4.5778  -21.0347  -45.6390 N.am      11 UNK        -0.5000 
     20 C          -3.2441  -21.0853  -45.5625 C.2       10 UNK         0.5000 
     21 O          -2.5194  -21.3697  -46.5147 O.2       10 UNK        -0.5000 
     22 CA         -2.6332  -20.8084  -44.1770 C.3       10 UNK         0.1400 
     23 CB         -1.6344  -21.9018  -43.7720 C.3       10 UNK        -0.1800 
     24 N          -1.9670  -19.5111  -44.1251 N.am      10 UNK        -0.5000 
     25 C          -2.5938  -18.3281  -44.0933 C.2       9 UNK         0.5000 
     26 O          -3.8188  -18.2040  -44.0946 O.2       9 UNK        -0.5000 
     27 CA         -1.7048  -17.0734  -44.0081 C.3       9 UNK         0.1400 
     28 CB         -1.3080  -16.8039  -42.5490 C.3       9 UNK        -0.1800 
     29 N          -0.4915  -17.1686  -44.8160 N.am      9 UNK        -0.5000 
     30 C          -0.4673  -17.1801  -46.1548 C.2       8 UNK         0.5000 
     31 O          -1.4708  -17.1299  -46.8627 O.2       8 UNK        -0.5000 
     32 CA          0.9155  -17.2903  -46.8177 C.3       8 UNK         0.1400 
     33 CB          1.6142  -15.9232  -46.8835 C.3       8 UNK        -0.1800 
     34 N           1.7705  -18.2514  -46.1240 N.am      8 UNK        -0.5000 
     35 C           1.5958  -19.5796  -46.1750 C.2       7 UNK         0.5000 
     36 O           0.7512  -20.1300  -46.8760 O.2       7 UNK        -0.5000 
     37 CA          2.5089  -20.4367  -45.2802 C.3       7 UNK         0.1400 
     38 CB          3.7938  -20.8163  -46.0309 C.3       7 UNK        -0.1800 
     39 N           2.8545  -19.7764  -44.0206 N.am      7 UNK        -0.5000 
     40 C           1.9790  -19.5264  -43.0361 C.2       6 UNK         0.5000 
     41 O           0.7915  -19.8436  -43.0781 O.2       6 UNK        -0.5000 
     42 CA          2.5124  -18.7411  -41.8245 C.3       6 UNK         0.1400 
     43 CB          3.1796  -19.6869  -40.8149 C.3       6 UNK        -0.1800 
     44 N           3.4545  -17.6836  -42.2024 N.am      6 UNK        -0.5000 
     45 C           3.1303  -16.6250  -42.9547 C.2       5 UNK         0.5000 
     46 O           2.0051  -16.4381  -43.4233 O.2       5 UNK        -0.5000 
     47 CA          4.2558  -15.6372  -43.2761 C.3       5 UNK         0.1400 
     48 CB          4.9967  -16.0467  -44.5604 C.3       5 UNK        -0.1800 
     49 N           3.6677  -14.3149  -43.4438 N.am      5 UNK        -0.5000 
     50 C           4.2665  -13.1586  -43.1400 C.2       4 UNK         0.5000 
     51 O           5.4390  -13.0747  -42.7709 O.2       4 UNK        -0.5000 
     52 CA          3.4204  -11.8735  -43.2522 C.3       4 UNK         0.1400 
     53 CB          3.7074  -11.1593  -44.5822 C.3       4 UNK        -0.1800 
     54 N           1.9752  -12.0855  -43.1403 N.am      4 UNK        -0.5000 
     55 C           1.3219  -12.5602  -42.0701 C.2       3 UNK         0.5000 
     56 O           1.8857  -12.8844  -41.0241 O.2       3 UNK        -0.5000 
     57 CA         -0.2166  -12.6796  -42.1685 C.3       3 UNK         0.1400 
     58 CB         -0.9018  -11.9363  -41.0095 C.3       3 UNK        -0.1800 
     59 N          -0.7840  -12.1906  -43.4298 N.am      3 UNK        -0.5000 
     60 C          -0.7155  -12.8120  -44.6136 C.2       2 UNK         0.5000 
     61 O          -0.1322  -13.8809  -44.7939 O.2       2 UNK        -0.5000 
     62 CA         -1.3298  -12.0453  -45.7978 C.3       2 UNK         0.1400 
     63 CB         -0.3390  -10.9874  -46.3108 C.3       2 UNK        -0.1800 
     64 N          -1.6995  -12.9052  -46.9180 N.am      2 UNK        -0.5000 
     65 C          -2.6779  -13.8178  -46.9310 C.2       1 UNK         0.5000 
     66 O          -3.3938  -14.0616  -45.9587 O.2       1 UNK        -0.5000 
     67 C          -5.3749  -22.7429  -47.3175 C.2       11 UNK         0.5000 
     68 O          -5.8267  -23.0181  -48.4295 O.2       11 UNK        -0.5000 
     69 N          -4.9055  -23.6636  -46.4639 N.am      12 UNK        -0.5000 
     70 CA         -4.8502  -25.1048  -46.7023 C.3       12 UNK         0.1400 
     71 CB         -4.4567  -25.7998  -45.3894 C.3       12 UNK        -0.1800 
     72 C          -3.8628  -25.5010  -47.8149 C.2       12 UNK         0.5000 
     73 O          -2.8121  -24.8728  -47.9703 O.2       12 UNK        -0.5000 
     74 N          -4.1804  -26.5960  -48.5187 N.am      13 UNK        -0.5000 
     75 CA         -3.3542  -27.1951  -49.5735 C.3       13 UNK         0.1400 
     76 CB         -4.1350  -28.3388  -50.2367 C.3       13 UNK        -0.1800 
     77 C          -1.9804  -27.6936  -49.0807 C.2       13 UNK         0.5000 
     78 O          -1.0293  -27.7166  -49.8614 O.2       13 UNK        -0.5000 
     79 N          -1.8826  -28.0244  -47.7846 N.am      14 UNK        -0.5000 
     80 CA         -0.6402  -28.3728  -47.0879 C.3       14 UNK         0.1400 
     81 CB         -0.9864  -28.8596  -45.6726 C.3       14 UNK        -0.1800 
     82 C           0.3776  -27.2134  -47.0234 C.2       14 UNK         0.5000 
     83 O           1.5778  -27.4674  -46.9220 O.2       14 UNK        -0.5000 
     84 N          -0.1158  -25.9713  -47.1146 N.am      15 UNK        -0.5000 
     85 CA          0.6678  -24.7388  -47.2020 C.3       15 UNK         0.1400 
     86 CB          0.0756  -23.7282  -46.2126 C.3       15 UNK        -0.1800 
     87 C           0.6848  -24.1890  -48.6443 C.2       15 UNK         0.5000 
     88 O           0.8881  -22.9909  -48.8494 O.2       15 UNK        -0.5000 
     89 N           0.4435  -25.0759  -49.6221 N.am      16 UNK        -0.5000 
     90 CA          0.3549  -24.8195  -51.0610 C.3       16 UNK         0.1400 
     91 CB          1.7104  -24.3364  -51.6210 C.3       16 UNK        -0.1800 
     92 C          -0.8122  -23.8895  -51.4470 C.2       16 UNK         0.5000 
     93 O          -0.7428  -23.2530  -52.4956 O.2       16 UNK        -0.5000 
     94 N          -1.8573  -23.8280  -50.6066 N.am      17 UNK        -0.5000 
     95 CA         -3.0400  -22.9744  -50.7308 C.3       17 UNK         0.1400 
     96 CB         -3.8799  -23.3669  -51.9637 C.3       17 UNK        -0.1800 
     97 C          -2.6542  -21.4848  -50.7015 C.2       17 UNK         0.5000 
     98 O          -2.6350  -20.8280  -51.7459 O.2       17 UNK        -0.5000 
     99 N          -2.3102  -21.0025  -49.4973 N.am      18 UNK        -0.5000 
    100 CA        -1.8790  -19.6351  -49.1913 C.3       18 UNK         0.1400 
    101 CB        -3.0533  -18.6488  -49.3585 C.3       18 UNK        -0.1800 
    102 C         -0.6219  -19.2271  -49.9812 C.2       18 UNK         0.5000 
    103 O         -0.5920  -18.1508  -50.5772 O.2       18 UNK        -0.5000 
    104 N          0.3831  -20.1167  -49.9949 N.am      19 UNK        -0.5000 
    105 CA         1.6602  -19.9824  -50.7013 C.3       19 UNK         0.1400 
    106 CB         2.5289  -18.8846  -50.0512 C.3       19 UNK        -0.1800 
    107 C          1.4826  -19.7970  -52.2247 C.2       19 UNK         0.5000 
    108 O          2.1271  -18.9357  -52.8257 O.2       19 UNK        -0.5000 
    109 N          0.5996  -20.6170  -52.8126 N.am      20 UNK        -0.5000 
    110 CA         0.2400  -20.6792  -54.2319 C.3       20 UNK         0.1400 
    111 CB         1.4643  -21.0126  -55.1107 C.3       20 UNK        -0.1800 
    112 C         -0.5584  -19.4652  -54.7448 C.2       20 UNK         0.5000 
    113 O         -0.6468  -19.2762  -55.9596 O.2       20 UNK        -0.5000 
    114 N         -1.1863  -18.6950  -53.8429 N.am      21 UNK        -0.5000 
    115 CA        -2.0573  -17.5658  -54.1912 C.3       21 UNK         0.1400 
    116 CB        -2.4228  -16.7824  -52.9246 C.3       21 UNK        -0.1800 
    117 C         -3.3293  -17.9858  -54.9570 C.2       21 UNK         0.5000 
    118 O         -3.8323  -17.2062  -55.7669 O.2       21 UNK        -0.5000 
    119 N         -3.7952  -19.2178  -54.7169 N.am      22 UNK        -0.5000 
    120 CA        -4.8722  -19.8800  -55.4725 C.3       22 UNK         0.1400 
    121 C         -4.3563  -20.6951  -56.6983 C.2       22 UNK         0.5000 
    122 N         -3.0759  -20.6580  -57.0512 N.am      22 UNK        -0.7600 
    123 O         -5.1392  -21.3673  -57.3640 O.2       22 UNK        -0.5000 
    124 C124       -5.7740  -20.7379  -54.5440 C.3       23 UNK        -0.0398 
    125 S125       -6.8019  -19.7114  -53.4392 S.3       23 UNK        -0.2404 
    126 C126       -5.7914  -19.7121  -51.9314 C.3       23 UNK        -0.0205 
    127 H127        1.3026  -14.3181  -50.0378 H         1 UNK         0.0600 
    128 H128        0.2566  -14.9427  -51.3188 H         1 UNK         0.0600 
    129 H129        0.5181  -15.8833  -49.8461 H         1 UNK         0.0600 
    130 H130       -1.5130  -15.9416  -48.9140 H         1 UNK         0.3000 
    131 H131       -3.4274  -15.4882  -48.0133 H         1 UNK         0.0600 
    132 H132       -4.8645  -13.5932  -48.5814 H         1 UNK         0.0800 
    133 H133       -3.5470  -12.7237  -49.3078 H         1 UNK         0.0800 
    134 H134       -6.5743  -14.1752  -49.9637 H         1 UNK         0.0800 
    135 H135       -6.5187  -14.6427  -51.6375 H         1 UNK         0.0800 
    136 H136       -5.4599  -17.0328  -52.1398 H         1 UNK         0.1150 
    137 H137       -7.1357  -20.0226  -49.5763 H         1 UNK         0.1150 
    138 H138       -7.2632  -15.8896  -48.4244 H         1 UNK         0.1150 
    139 H139       -8.5581  -17.4925  -47.2055 H         1 UNK         0.0800 
    140 H140       -8.8073  -19.1016  -47.8138 H         1 UNK         0.0800 
    141 H141       -7.4342  -20.9891  -47.5393 H         1 UNK         0.0800 
    142 H142       -7.3105  -21.3178  -45.8381 H         1 UNK         0.0800 
    143 H143       -4.9304  -20.6887  -47.6595 H         1 UNK         0.0600 
    144 H144       -5.0973  -20.7435  -44.8230 H         1 UNK         0.3000 
    145 H145       -3.4358  -20.8118  -43.4364 H         1 UNK         0.0600 
    146 H146       -1.3442  -21.7996  -42.7263 H         1 UNK         0.0600 
    147 H147       -2.0598  -22.8981  -43.8991 H         1 UNK         0.0600 
    148 H148       -0.7262  -21.8462  -44.3713 H         1 UNK         0.0600 
    149 H149       -0.9538  -19.5276  -44.0769 H         1 UNK         0.3000 
    150 H150       -2.2818  -16.2205  -44.3719 H         1 UNK         0.0600 
    151 H151       -0.6530  -15.9379  -42.4749 H         1 UNK         0.0600 
    152 H152       -2.1871  -16.6079  -41.9341 H         1 UNK         0.0600 
    153 H153       -0.7805  -17.6525  -42.1120 H         1 UNK         0.0600 
    154 H154        0.3906  -17.1337  -44.3152 H         1 UNK         0.3000 
    155 H155        0.7644  -17.6364  -47.8419 H         1 UNK         0.0600 
    156 H156        1.8681  -15.5477  -45.8929 H         1 UNK         0.0600 
    157 H157        0.9700  -15.1769  -47.3479 H         1 UNK         0.0600 
    158 H158        2.5313  -15.9761  -47.4701 H         1 UNK         0.0600 
    159 H159        2.4551  -17.8754  -45.4862 H         1 UNK         0.3000 
    160 H160        1.9716  -21.3550  -45.0376 H         1 UNK         0.0600 
    161 H161        4.3894  -19.9376  -46.2818 H         1 UNK         0.0600 
    162 H162        3.5599  -21.3319  -46.9638 H         1 UNK         0.0600 
    163 H163        4.4150  -21.4868  -45.4369 H         1 UNK         0.0600 
    164 H164        3.8124  -19.4811  -43.9038 H         1 UNK         0.3000 
    165 H165        1.6574  -18.2692  -41.3355 H         1 UNK         0.0600 
    166 H166        3.4842  -19.1519  -39.9152 H         1 UNK         0.0600 
    167 H167        2.4914  -20.4747  -40.5055 H         1 UNK         0.0600 
    168 H168        4.0631  -20.1690  -41.2351 H         1 UNK         0.0600 
    169 H169        4.3994  -17.7752  -41.8577 H         1 UNK         0.3000 
    170 H170        4.9546  -15.6269  -42.4369 H         1 UNK         0.0600 
    171 H171        5.4319  -17.0419  -44.4633 H         1 UNK         0.0600 
    172 H172        4.3308  -16.0601  -45.4237 H         1 UNK         0.0600 
    173 H173        5.8119  -15.3571  -44.7804 H         1 UNK         0.0600 
    174 H174        2.6864  -14.3185  -43.6953 H         1 UNK         0.3000 
    175 H175        3.7220  -11.2143  -42.4358 H         1 UNK         0.0600 
    176 H176        3.3974  -11.7625  -45.4366 H         1 UNK         0.0600 
    177 H177        3.1862  -10.2034  -44.6386 H         1 UNK         0.0600 
    178 H178        4.7728  -10.9538  -44.6945 H         1 UNK         0.0600 
    179 H179        1.4266  -11.8621  -43.9562 H         1 UNK         0.3000 
    180 H180       -0.4574  -13.7382  -42.0745 H         1 UNK         0.0600 
    181 H181       -0.6899  -10.8668  -41.0374 H         1 UNK         0.0600 
    182 H182       -0.5633  -12.3130  -40.0434 H         1 UNK         0.0600 
    183 H183       -1.9838  -12.0662  -41.0420 H         1 UNK         0.0600 
    184 H184       -1.2520  -11.2969  -43.3801 H         1 UNK         0.3000 
    185 H185       -2.2347  -11.5422  -45.4511 H         1 UNK         0.0600 
    186 H186       -0.0635  -10.2852  -45.5229 H         1 UNK         0.0600 
    187 H187        0.5801  -11.4448  -46.6802 H         1 UNK         0.0600 
    188 H188       -0.7713  -10.4042  -47.1242 H         1 UNK         0.0600 
    189 H189       -1.1855  -12.7725  -47.7833 H         1 UNK         0.3000 
    190 H190       -4.5244  -23.3400  -45.5885 H         1 UNK         0.3000 
    191 H191       -5.8509  -25.4348  -46.9889 H         1 UNK         0.0600 
    192 H192       -5.1660  -25.5716  -44.5935 H         1 UNK         0.0600 
    193 H193       -4.4420  -26.8843  -45.5056 H         1 UNK         0.0600 
    194 H194       -3.4651  -25.4924  -45.0534 H         1 UNK         0.0600 
    195 H195       -5.0527  -27.0653  -48.3204 H         1 UNK         0.3000 
    196 H196       -3.1703  -26.4275  -50.3278 H         1 UNK         0.0600 
    197 H197       -3.5572  -28.7895  -51.0449 H         1 UNK         0.0600 
    198 H198       -5.0692  -27.9801  -50.6691 H         1 UNK         0.0600 
    199 H199       -4.3748  -29.1291  -49.5242 H         1 UNK         0.0600 
    200 H200       -2.7186  -27.9859  -47.2210 H         1 UNK         0.3000 
    201 H201       -0.1688  -29.1948  -47.6306 H         1 UNK         0.0600 
    202 H202       -1.6439  -29.7287  -45.7035 H         1 UNK         0.0600 
    203 H203       -1.4826  -28.0823  -45.0899 H         1 UNK         0.0600 
    204 H204       -0.0873  -29.1537  -45.1293 H         1 UNK         0.0600 
    205 H205       -1.1156  -25.8503  -47.2307 H         1 UNK         0.3000 
    206 H206        1.7061  -24.9222  -46.9195 H         1 UNK         0.0600 
    207 H207        0.1311  -24.1000  -45.1897 H         1 UNK         0.0600 
    208 H208        0.6132  -22.7821  -46.2464 H         1 UNK         0.0600 
    209 H209       -0.9697  -23.5173  -46.4377 H         1 UNK         0.0600 
    210 H210        0.2528  -26.0337  -49.3538 H         1 UNK         0.3000 
    211 H211        0.1342  -25.7814  -51.5252 H         1 UNK         0.0600 
    212 H212        1.9638  -23.3369  -51.2681 H         1 UNK         0.0600 
    213 H213        1.6939  -24.3002  -52.7109 H         1 UNK         0.0600 
    214 H214        2.5183  -25.0090  -51.3333 H         1 UNK         0.0600 
    215 H215       -1.8064  -24.3505  -49.7398 H         1 UNK         0.3000 
    216 H216       -3.6521  -23.1639  -49.8512 H         1 UNK         0.0600 
    217 H217       -4.8238  -22.8231  -51.9737 H         1 UNK         0.0600 
    218 H218       -4.1213  -24.4297  -51.9513 H         1 UNK         0.0600 
    219 H219       -3.3665  -23.1508  -52.9010 H         1 UNK         0.0600 
    220 H220       -2.3179  -21.6196  -48.6927 H         1 UNK         0.3000 
    221 H221       -1.5864  -19.6169  -48.1421 H         1 UNK         0.0600 
    222 H222       -3.4390  -18.6530  -50.3745 H         1 UNK         0.0600 
    223 H223       -3.8750  -18.8898  -48.6859 H         1 UNK         0.0600 
    224 H224       -2.7507  -17.6272  -49.1362 H         1 UNK         0.0600 
    225 H225        0.2782  -20.9689  -49.4532 H         1 UNK         0.3000 
    226 H226        2.1808  -20.9314  -50.5679 H         1 UNK         0.0600 
    227 H227        2.6695  -19.0729  -48.9874 H         1 UNK         0.0600 
    228 H228        3.5197  -18.8502  -50.5053 H         1 UNK         0.0600 
    229 H229        2.0845  -17.8952  -50.1617 H         1 UNK         0.0600 
    230 H230        0.0961  -21.2815  -52.2361 H         1 UNK         0.3000 
    231 H231       -0.4497  -21.5173  -54.3258 H         1 UNK         0.0600 
    232 H232        2.1696  -20.1830  -55.1596 H         1 UNK         0.0600 
    233 H233        1.1611  -21.2404  -56.1332 H         1 UNK         0.0600 
    234 H234        1.9950  -21.8857  -54.7309 H         1 UNK         0.0600 
    235 H235       -1.0856  -18.9108  -52.8587 H         1 UNK         0.3000 
    236 H236       -1.4901  -16.8999  -54.8447 H         1 UNK         0.0600 
    237 H237       -1.5343  -16.3923  -52.4288 H         1 UNK         0.0600 
    238 H238       -3.0603  -15.9306  -53.1633 H         1 UNK         0.0600 
    239 H239       -2.9599  -17.4043  -52.2104 H         1 UNK         0.0600 
    240 H240       -3.3121  -19.7855  -54.0336 H         1 UNK         0.3000 
    241 H241       -5.5105  -19.1108  -55.9110 H         1 UNK         0.0600 
    242 H242       -2.7777  -21.1889  -57.8540 H         1 UNK         0.3800 
    243 H243       -2.4027  -20.0776  -56.5650 H         1 UNK         0.3800 
    244 H244       -6.4675  -21.3464  -55.1267 H         1 UNK         0.0800 
    245 H245       -5.1751  -21.4396  -53.9626 H         1 UNK         0.0800 
    246 H246       -5.8187  -20.6995  -51.4695 H         1 UNK         0.0800 
    247 H247       -4.7547  -19.5166  -52.1969 H         1 UNK         0.0800 
@<TRIPOS>BOND
     1    1    2 1    
     2    1  127 1    
     3    1  128 1    
     4    1  129 1    
     5    2    3 2    
     6    2    4 am   BACKBONE|DICT|INTERRES
     7    4    5 1    
     8    4  130 1    
     9    5    6 1    
    10    5   65 1    
    11    5  131 1    
    12    6    7 1    
    13    6  132 1    
    14    6  133 1    
    15    7    8 1    
    16    8    9 1    
    17    8  134 1    
    18    8  135 1    
    19    9   10 ar   
    20    9   14 ar   
    21   10   11 ar   
    22   10  136 1    
    23   11   12 ar   
    24   11  126 1    
    25   12   13 ar   
    26   12  137 1    
    27   13   14 ar   
    28   13   15 1    
    29   14  138 1    
    30   15   16 1    
    31   15  139 1    
    32   15  140 1    
    33   16   17 1    
    34   17   18 1    
    35   17  141 1    
    36   17  142 1    
    37   18   19 1    
    38   18   67 1    
    39   18  143 1    
    40   19   20 am   BACKBONE|DICT|INTERRES
    41   19  144 1    
    42   20   21 2    
    43   20   22 1    
    44   22   23 1    
    45   22   24 1    
    46   22  145 1    
    47   23  146 1    
    48   23  147 1    
    49   23  148 1    
    50   24   25 am   BACKBONE|DICT|INTERRES
    51   24  149 1    
    52   25   26 2    
    53   25   27 1    
    54   27   28 1    
    55   27   29 1    
    56   27  150 1    
    57   28  151 1    
    58   28  152 1    
    59   28  153 1    
    60   29   30 am   BACKBONE|DICT|INTERRES
    61   29  154 1    
    62   30   31 2    
    63   30   32 1    
    64   32   33 1    
    65   32   34 1    
    66   32  155 1    
    67   33  156 1    
    68   33  157 1    
    69   33  158 1    
    70   34   35 am   BACKBONE|DICT|INTERRES
    71   34  159 1    
    72   35   36 2    
    73   35   37 1    
    74   37   38 1    
    75   37   39 1    
    76   37  160 1    
    77   38  161 1    
    78   38  162 1    
    79   38  163 1    
    80   39   40 am   BACKBONE|DICT|INTERRES
    81   39  164 1    
    82   40   41 2    
    83   40   42 1    
    84   42   43 1    
    85   42   44 1    
    86   42  165 1    
    87   43  166 1    
    88   43  167 1    
    89   43  168 1    
    90   44   45 am   BACKBONE|DICT|INTERRES
    91   44  169 1    
    92   45   46 2    
    93   45   47 1    
    94   47   48 1    
    95   47   49 1    
    96   47  170 1    
    97   48  171 1    
    98   48  172 1    
    99   48  173 1    
   100   49   50 am   BACKBONE|DICT|INTERRES
   101   49  174 1    
   102   50   51 2    
   103   50   52 1    
   104   52   53 1    
   105   52   54 1    
   106   52  175 1    
   107   53  176 1    
   108   53  177 1    
   109   53  178 1    
   110   54   55 am   BACKBONE|DICT|INTERRES
   111   54  179 1    
   112   55   56 2    
   113   55   57 1    
   114   57   58 1    
   115   57   59 1    
   116   57  180 1    
   117   58  181 1    
   118   58  182 1    
   119   58  183 1    
   120   59   60 am   BACKBONE|DICT|INTERRES
   121   59  184 1    
   122   60   61 2    
   123   60   62 1    
   124   62   63 1    
   125   62   64 1    
   126   62  185 1    
   127   63  186 1    
   128   63  187 1    
   129   63  188 1    
   130   64   65 am   BACKBONE|DICT|INTERRES
   131   64  189 1    
   132   65   66 2    
   133   67   68 2    
   134   67   69 am   BACKBONE|DICT|INTERRES
   135   69   70 1    
   136   69  190 1    
   137   70   71 1    
   138   70   72 1    
   139   70  191 1    
   140   71  192 1    
   141   71  193 1    
   142   71  194 1    
   143   72   73 2    
   144   72   74 am   BACKBONE|DICT|INTERRES
   145   74   75 1    
   146   74  195 1    
   147   75   76 1    
   148   75   77 1    
   149   75  196 1    
   150   76  197 1    
   151   76  198 1    
   152   76  199 1    
   153   77   78 2    
   154   77   79 am   BACKBONE|DICT|INTERRES
   155   79   80 1    
   156   79  200 1    
   157   80   81 1    
   158   80   82 1    
   159   80  201 1    
   160   81  202 1    
   161   81  203 1    
   162   81  204 1    
   163   82   83 2    
   164   82   84 am   BACKBONE|DICT|INTERRES
   165   84   85 1    
   166   84  205 1    
   167   85   86 1    
   168   85   87 1    
   169   85  206 1    
   170   86  207 1    
   171   86  208 1    
   172   86  209 1    
   173   87   88 2    
   174   87   89 am   BACKBONE|DICT|INTERRES
   175   89   90 1    
   176   89  210 1    
   177   90   91 1    
   178   90   92 1    
   179   90  211 1    
   180   91  212 1    
   181   91  213 1    
   182   91  214 1    
   183   92   93 2    
   184   92   94 am   BACKBONE|DICT|INTERRES
   185   94   95 1    
   186   94  215 1    
   187   95   96 1    
   188   95   97 1    
   189   95  216 1    
   190   96  217 1    
   191   96  218 1    
   192   96  219 1    
   193   97   98 2    
   194   97   99 am   BACKBONE|DICT|INTERRES
   195   99  100 1    
   196   99  220 1    
   197  100  101 1    
   198  100  102 1    
   199  100  221 1    
   200  101  222 1    
   201  101  223 1    
   202  101  224 1    
   203  102  103 2    
   204  102  104 am   BACKBONE|DICT|INTERRES
   205  104  105 1    
   206  104  225 1    
   207  105  106 1    
   208  105  107 1    
   209  105  226 1    
   210  106  227 1    
   211  106  228 1    
   212  106  229 1    
   213  107  108 2    
   214  107  109 am   BACKBONE|DICT|INTERRES
   215  109  110 1    
   216  109  230 1    
   217  110  111 1    
   218  110  112 1    
   219  110  231 1    
   220  111  232 1    
   221  111  233 1    
   222  111  234 1    
   223  112  113 2    
   224  112  114 am   BACKBONE|DICT|INTERRES
   225  114  115 1    
   226  114  235 1    
   227  115  116 1    
   228  115  117 1    
   229  115  236 1    
   230  116  237 1    
   231  116  238 1    
   232  116  239 1    
   233  117  118 2    
   234  117  119 am   BACKBONE|DICT|INTERRES
   235  119  120 1    
   236  119  240 1    
   237  120  121 1    
   238  120  124 1    
   239  120  241 1    
   240  121  122 am   BACKBONE|DICT|INTERRES
   241  121  123 2    
   242  122  242 1    
   243  122  243 1    
   244  124  125 1    
   245  124  244 1    
   246  124  245 1    
   247  125  126 1    
   248  126  246 1    
   249  126  247 1    
@<TRIPOS>SUBSTRUCTURE
     1 UNK         1 GROUP             0       ****    0 ROOT    
