@<TRIPOS>MOLECULE
3R540
247   249    1
SMALL
USER_CHARGES


@<TRIPOS>ATOM
      1 CA         -1.5201  -12.1118  -44.7109 C.3       0 UNK        -0.1800 
      2 C          -1.5743  -11.3396  -46.0206 C.2       0 UNK         0.5000 
      3 O          -0.9033  -10.3172  -46.1597 O.2       0 UNK        -0.5000 
      4 N          -2.3747  -11.8225  -46.9791 N.am      1 UNK        -0.5000 
      5 CA         -2.5581  -11.2214  -48.3066 C.3       1 UNK         0.1400 
      6 C6         -3.8785  -11.6838  -48.9711 C.3       23 UNK        -0.0398 
      7 S7         -4.0139  -13.4934  -49.1798 S.3       23 UNK        -0.2404 
      8 C8         -5.4419  -13.8843  -48.1235 C.3       23 UNK        -0.0205 
      9 C9         -5.8235  -15.3493  -48.2582 C.ar      23 UNK        -0.0193 
     10 C10        -6.4564  -15.7941  -49.4230 C.ar      23 UNK        -0.1150 
     11 C11        -6.7729  -17.1439  -49.5872 C.ar      23 UNK        -0.0193 
     12 C12        -6.4955  -18.0429  -48.5558 C.ar      23 UNK        -0.1150 
     13 C13        -5.8770  -17.6109  -47.3806 C.ar      23 UNK        -0.0193 
     14 C14        -5.5365  -16.2617  -47.2367 C.ar      23 UNK        -0.1150 
     15 C15        -5.5803  -18.6117  -46.2771 C.3       23 UNK        -0.0205 
     16 S16        -3.8775  -19.2368  -46.4027 S.3       23 UNK        -0.2404 
     17 C17        -3.9364  -20.6630  -45.2648 C.3       23 UNK        -0.0398 
     18 CA         -3.0907  -21.8330  -45.8156 C.3       11 UNK         0.1400 
     19 N          -1.6661  -21.5136  -45.8421 N.am      11 UNK        -0.5000 
     20 C          -0.8046  -21.9947  -46.7431 C.2       10 UNK         0.5000 
     21 O          -1.1357  -22.7166  -47.6806 O.2       10 UNK        -0.5000 
     22 CA          0.6790  -21.6399  -46.5428 C.3       10 UNK         0.1400 
     23 CB          1.0602  -20.4093  -47.3776 C.3       10 UNK        -0.1800 
     24 N           1.0163  -21.4390  -45.1302 N.am      10 UNK        -0.5000 
     25 C           1.0599  -22.4506  -44.2497 C.2       9 UNK         0.5000 
     26 O           0.8085  -23.6185  -44.5537 O.2       9 UNK        -0.5000 
     27 CA          1.3970  -22.1209  -42.7830 C.3       9 UNK         0.1400 
     28 CB          2.9149  -22.1875  -42.5606 C.3       9 UNK        -0.1800 
     29 N           0.8916  -20.8373  -42.2859 N.am      9 UNK        -0.5000 
     30 C          -0.3838  -20.4277  -42.3136 C.2       8 UNK         0.5000 
     31 O          -1.2830  -21.0486  -42.8844 O.2       8 UNK        -0.5000 
     32 CA         -0.7290  -19.1112  -41.5964 C.3       8 UNK         0.1400 
     33 CB          0.4903  -18.2539  -41.1985 C.3       8 UNK        -0.1800 
     34 N          -1.6025  -18.3446  -42.4724 N.am      8 UNK        -0.5000 
     35 C          -2.6583  -17.6099  -42.1041 C.2       7 UNK         0.5000 
     36 O          -3.0151  -17.4709  -40.9330 O.2       7 UNK        -0.5000 
     37 CA         -3.4668  -16.9394  -43.2409 C.3       7 UNK         0.1400 
     38 CB         -4.0580  -15.5725  -42.8375 C.3       7 UNK        -0.1800 
     39 N          -2.7275  -16.8472  -44.5074 N.am      7 UNK        -0.5000 
     40 C          -1.6082  -16.1477  -44.7329 C.2       6 UNK         0.5000 
     41 O          -1.1007  -15.3649  -43.9275 O.2       6 UNK        -0.5000 
     42 CA         -0.9131  -16.4057  -46.0799 C.3       6 UNK         0.1400 
     43 CB         -1.2226  -15.2799  -47.0723 C.3       6 UNK        -0.1800 
     44 N           0.5350  -16.5192  -45.9027 N.am      6 UNK        -0.5000 
     45 C           1.1308  -17.5060  -45.2167 C.2       5 UNK         0.5000 
     46 O           0.5245  -18.4810  -44.7642 O.2       5 UNK        -0.5000 
     47 CA          2.6552  -17.4006  -45.0493 C.3       5 UNK         0.1400 
     48 CB          3.2965  -18.7023  -44.5195 C.3       5 UNK        -0.1800 
     49 N           3.2583  -16.9888  -46.3166 N.am      5 UNK        -0.5000 
     50 C           4.4972  -16.5071  -46.4665 C.2       4 UNK         0.5000 
     51 O           5.3015  -16.3901  -45.5412 O.2       4 UNK        -0.5000 
     52 CA          4.9015  -16.0734  -47.8908 C.3       4 UNK         0.1400 
     53 CB          4.3643  -17.0242  -48.9785 C.3       4 UNK        -0.1800 
     54 N           4.4623  -14.7095  -48.1891 N.am      4 UNK        -0.5000 
     55 C           4.9107  -13.5954  -47.5922 C.2       3 UNK         0.5000 
     56 O           5.8018  -13.5869  -46.7425 O.2       3 UNK        -0.5000 
     57 CA          4.2925  -12.2499  -48.0270 C.3       3 UNK         0.1400 
     58 CB          5.3463  -11.3712  -48.7218 C.3       3 UNK        -0.1800 
     59 N           3.1279  -12.3576  -48.9107 N.am      3 UNK        -0.5000 
     60 C           1.9018  -12.7355  -48.5321 C.2       2 UNK         0.5000 
     61 O           1.6272  -13.1689  -47.4097 O.2       2 UNK        -0.5000 
     62 CA          0.8066  -12.6199  -49.6005 C.3       2 UNK         0.1400 
     63 CB          0.7139  -13.9079  -50.4338 C.3       2 UNK        -0.1800 
     64 N          -0.4653  -12.3726  -48.9313 N.am      2 UNK        -0.5000 
     65 C          -1.3407  -11.4096  -49.2440 C.2       1 UNK         0.5000 
     66 O          -1.2137  -10.6638  -50.2167 O.2       1 UNK        -0.5000 
     67 C          -3.3325  -23.1374  -45.0363 C.2       11 UNK         0.5000 
     68 O          -4.0702  -23.9997  -45.5138 O.2       11 UNK        -0.5000 
     69 N          -2.7045  -23.2580  -43.8598 N.am      12 UNK        -0.5000 
     70 CA         -2.9032  -24.3567  -42.9184 C.3       12 UNK         0.1400 
     71 CB         -2.3066  -23.9694  -41.5563 C.3       12 UNK        -0.1800 
     72 C          -2.3318  -25.7018  -43.3976 C.2       12 UNK         0.5000 
     73 O          -3.0215  -26.7163  -43.2852 O.2       12 UNK        -0.5000 
     74 N          -1.0879  -25.6967  -43.8954 N.am      13 UNK        -0.5000 
     75 CA         -0.3578  -26.9093  -44.2674 C.3       13 UNK         0.1400 
     76 CB          1.0539  -26.8680  -43.6590 C.3       13 UNK        -0.1800 
     77 C          -0.2863  -27.0887  -45.7894 C.2       13 UNK         0.5000 
     78 O          -0.5090  -28.1993  -46.2726 O.2       13 UNK        -0.5000 
     79 N           0.0219  -26.0085  -46.5222 N.am      14 UNK        -0.5000 
     80 CA          0.2461  -26.0531  -47.9739 C.3       14 UNK         0.1400 
     81 CB          1.3158  -25.0205  -48.3619 C.3       14 UNK        -0.1800 
     82 C          -1.0436  -25.9092  -48.8139 C.2       14 UNK         0.5000 
     83 O          -0.9645  -25.9474  -50.0415 O.2       14 UNK        -0.5000 
     84 N          -2.2010  -25.7903  -48.1471 N.am      15 UNK        -0.5000 
     85 CA         -3.5579  -25.8136  -48.7044 C.3       15 UNK         0.1400 
     86 CB         -3.8650  -27.1757  -49.3630 C.3       15 UNK        -0.1800 
     87 C          -3.9151  -24.6036  -49.5945 C.2       15 UNK         0.5000 
     88 O          -4.6536  -24.7489  -50.5714 O.2       15 UNK        -0.5000 
     89 N          -3.4336  -23.4189  -49.1973 N.am      16 UNK        -0.5000 
     90 CA         -3.8265  -22.0872  -49.6620 C.3       16 UNK         0.1400 
     91 CB         -5.2671  -21.7561  -49.2127 C.3       16 UNK        -0.1800 
     92 C          -3.6010  -21.8826  -51.1689 C.2       16 UNK         0.5000 
     93 O          -2.4651  -21.6517  -51.5847 O.2       16 UNK        -0.5000 
     94 N          -4.6764  -21.9733  -51.9628 N.am      17 UNK        -0.5000 
     95 CA         -4.6818  -21.8171  -53.4176 C.3       17 UNK         0.1400 
     96 CB         -6.1272  -21.9073  -53.9274 C.3       17 UNK        -0.1800 
     97 C          -3.7830  -22.8298  -54.1514 C.2       17 UNK         0.5000 
     98 O          -3.2476  -22.4986  -55.2087 O.2       17 UNK        -0.5000 
     99 N          -3.5766  -24.0129  -53.5539 N.am      18 UNK        -0.5000 
    100 CA        -2.6433  -25.0361  -54.0331 C.3       18 UNK         0.1400 
    101 CB        -2.8610  -26.3247  -53.2288 C.3       18 UNK        -0.1800 
    102 C         -1.1642  -24.5984  -53.9626 C.2       18 UNK         0.5000 
    103 O         -0.3533  -25.0840  -54.7519 O.2       18 UNK        -0.5000 
    104 N         -0.8487  -23.6761  -53.0442 N.am      19 UNK        -0.5000 
    105 CA         0.4647  -23.0531  -52.8751 C.3       19 UNK         0.1400 
    106 CB         0.7884  -23.0274  -51.3737 C.3       19 UNK        -0.1800 
    107 C          0.5080  -21.6273  -53.4596 C.2       19 UNK         0.5000 
    108 O          1.5404  -20.9650  -53.3494 O.2       19 UNK        -0.5000 
    109 N         -0.6125  -21.1717  -54.0421 N.am      20 UNK        -0.5000 
    110 CA        -0.8791  -19.8198  -54.5416 C.3       20 UNK         0.1400 
    111 CB         0.0166  -19.4917  -55.7541 C.3       20 UNK        -0.1800 
    112 C         -0.8234  -18.7388  -53.4385 C.2       20 UNK         0.5000 
    113 O         -0.5041  -17.5834  -53.7275 O.2       20 UNK        -0.5000 
    114 N         -1.1664  -19.1170  -52.1954 N.am      21 UNK        -0.5000 
    115 CA        -1.1497  -18.2419  -51.0159 C.3       21 UNK         0.1400 
    116 CB        -1.4411  -19.0692  -49.7553 C.3       21 UNK        -0.1800 
    117 C         -2.1461  -17.0723  -51.1064 C.2       21 UNK         0.5000 
    118 O         -1.9282  -16.0454  -50.4680 O.2       21 UNK        -0.5000 
    119 N         -3.2020  -17.2493  -51.9099 N.am      22 UNK        -0.5000 
    120 CA        -4.2162  -16.2314  -52.2115 C.3       22 UNK         0.1400 
    121 C         -3.7049  -15.0453  -53.0852 C.2       22 UNK         0.5000 
    122 N         -2.5169  -15.1095  -53.6784 N.am      22 UNK        -0.7600 
    123 O         -4.4070  -14.0495  -53.2369 O.2       22 UNK        -0.5000 
    124 C124       -5.4956  -16.8495  -52.8401 C.3       23 UNK        -0.0398 
    125 S125       -6.1358  -18.3395  -51.9929 S.3       23 UNK        -0.2404 
    126 C126       -7.3978  -17.6436  -50.8791 C.3       23 UNK        -0.0205 
    127 H127       -2.2726  -12.9000  -44.6743 H         1 UNK         0.0600 
    128 H128       -1.6928  -11.4413  -43.8692 H         1 UNK         0.0600 
    129 H129       -0.5394  -12.5715  -44.5876 H         1 UNK         0.0600 
    130 H130       -2.9025  -12.6669  -46.8137 H         1 UNK         0.3000 
    131 H131       -2.6485  -10.1431  -48.1576 H         1 UNK         0.0600 
    132 H132       -4.7216  -11.3253  -48.3791 H         1 UNK         0.0800 
    133 H133       -3.9970  -11.2174  -49.9508 H         1 UNK         0.0800 
    134 H134       -6.2915  -13.2631  -48.4112 H         1 UNK         0.0800 
    135 H135       -5.2093  -13.6380  -47.0865 H         1 UNK         0.0800 
    136 H136       -6.6694  -15.0916  -50.2166 H         1 UNK         0.1150 
    137 H137       -6.7546  -19.0845  -48.6735 H         1 UNK         0.1150 
    138 H138       -5.0462  -15.9255  -46.3340 H         1 UNK         0.1150 
    139 H139       -6.2832  -19.4439  -46.3398 H         1 UNK         0.0800 
    140 H140       -5.7357  -18.1506  -45.3013 H         1 UNK         0.0800 
    141 H141       -3.5842  -20.3498  -44.2805 H         1 UNK         0.0800 
    142 H142       -4.9742  -20.9755  -45.1366 H         1 UNK         0.0800 
    143 H143       -3.4289  -22.0192  -46.8330 H         1 UNK         0.0600 
    144 H144       -1.3068  -20.9761  -45.0640 H         1 UNK         0.3000 
    145 H145        1.2787  -22.4759  -46.9035 H         1 UNK         0.0600 
    146 H146        0.9864  -20.6353  -48.4415 H         1 UNK         0.0600 
    147 H147        2.0867  -20.0974  -47.1910 H         1 UNK         0.0600 
    148 H148        0.4013  -19.5647  -47.1791 H         1 UNK         0.0600 
    149 H149        1.1337  -20.4840  -44.8111 H         1 UNK         0.3000 
    150 H150        0.9381  -22.8993  -42.1712 H         1 UNK         0.0600 
    151 H151        3.4395  -21.4132  -43.1209 H         1 UNK         0.0600 
    152 H152        3.3145  -23.1507  -42.8812 H         1 UNK         0.0600 
    153 H153        3.1662  -22.0694  -41.5065 H         1 UNK         0.0600 
    154 H154        1.5637  -20.2507  -41.8145 H         1 UNK         0.3000 
    155 H155       -1.2707  -19.3894  -40.6904 H         1 UNK         0.0600 
    156 H156        0.1724  -17.3310  -40.7131 H         1 UNK         0.0600 
    157 H157        1.0911  -17.9763  -42.0647 H         1 UNK         0.0600 
    158 H158        1.1343  -18.7776  -40.4914 H         1 UNK         0.0600 
    159 H159       -1.3758  -18.4158  -43.4559 H         1 UNK         0.3000 
    160 H160       -4.3050  -17.6094  -43.4332 H         1 UNK         0.0600 
    161 H161       -3.2842  -14.8663  -42.5357 H         1 UNK         0.0600 
    162 H162       -4.7459  -15.6773  -41.9979 H         1 UNK         0.0600 
    163 H163       -4.6176  -15.1269  -43.6599 H         1 UNK         0.0600 
    164 H164       -3.0532  -17.4716  -45.2357 H         1 UNK         0.3000 
    165 H165       -1.2785  -17.3459  -46.4991 H         1 UNK         0.0600 
    166 H166       -0.7758  -15.4828  -48.0441 H         1 UNK         0.0600 
    167 H167       -2.2975  -15.1792  -47.2271 H         1 UNK         0.0600 
    168 H168       -0.8428  -14.3229  -46.7168 H         1 UNK         0.0600 
    169 H169        1.0847  -15.7224  -46.1919 H         1 UNK         0.3000 
    170 H170        2.8263  -16.6124  -44.3133 H         1 UNK         0.0600 
    171 H171        4.3552  -18.5674  -44.3008 H         1 UNK         0.0600 
    172 H172        3.2103  -19.5178  -45.2359 H         1 UNK         0.0600 
    173 H173        2.8250  -19.0227  -43.5908 H         1 UNK         0.0600 
    174 H174        2.6613  -17.0608  -47.1284 H         1 UNK         0.3000 
    175 H175        5.9923  -16.0974  -47.9381 H         1 UNK         0.0600 
    176 H176        4.6179  -18.0611  -48.7532 H         1 UNK         0.0600 
    177 H177        3.2807  -16.9627  -49.0851 H         1 UNK         0.0600 
    178 H178        4.8029  -16.7906  -49.9488 H         1 UNK         0.0600 
    179 H179        3.7308  -14.6082  -48.8758 H         1 UNK         0.3000 
    180 H180        3.9761  -11.7393  -47.1149 H         1 UNK         0.0600 
    181 H181        5.6994  -11.8248  -49.6487 H         1 UNK         0.0600 
    182 H182        6.2153  -11.2163  -48.0809 H         1 UNK         0.0600 
    183 H183        4.9446  -10.3862  -48.9604 H         1 UNK         0.0600 
    184 H184        3.2675  -12.0435  -49.8606 H         1 UNK         0.3000 
    185 H185        1.0552  -11.7860  -50.2603 H         1 UNK         0.0600 
    186 H186       -0.1086  -13.8568  -51.1480 H         1 UNK         0.0600 
    187 H187        1.6292  -14.0727  -51.0031 H         1 UNK         0.0600 
    188 H188        0.5555  -14.7865  -49.8089 H         1 UNK         0.0600 
    189 H189       -0.6043  -12.8932  -48.0769 H         1 UNK         0.3000 
    190 H190       -2.1234  -22.4871  -43.5351 H         1 UNK         0.3000 
    191 H191       -3.9793  -24.4867  -42.7842 H         1 UNK         0.0600 
    192 H192       -2.7677  -23.0608  -41.1683 H         1 UNK         0.0600 
    193 H193       -2.4688  -24.7571  -40.8195 H         1 UNK         0.0600 
    194 H194       -1.2325  -23.7962  -41.6212 H         1 UNK         0.0600 
    195 H195       -0.5839  -24.8202  -43.9915 H         1 UNK         0.3000 
    196 H196       -0.8545  -27.7918  -43.8586 H         1 UNK         0.0600 
    197 H197        1.5951  -27.7905  -43.8728 H         1 UNK         0.0600 
    198 H198        1.0118  -26.7602  -42.5751 H         1 UNK         0.0600 
    199 H199        1.6487  -26.0444  -44.0538 H         1 UNK         0.0600 
    200 H200        0.2011  -25.1292  -46.0525 H         1 UNK         0.3000 
    201 H201        0.6623  -27.0321  -48.2214 H         1 UNK         0.0600 
    202 H202        1.7871  -25.3011  -49.3038 H         1 UNK         0.0600 
    203 H203        2.1083  -24.9558  -47.6160 H         1 UNK         0.0600 
    204 H204        0.8939  -24.0278  -48.4997 H         1 UNK         0.0600 
    205 H205       -2.1445  -25.7345  -47.1405 H         1 UNK         0.3000 
    206 H206       -4.2211  -25.7292  -47.8424 H         1 UNK         0.0600 
    207 H207       -3.6843  -27.9959  -48.6682 H         1 UNK         0.0600 
    208 H208       -4.9099  -27.2381  -49.6691 H         1 UNK         0.0600 
    209 H209       -3.2552  -27.3499  -50.2484 H         1 UNK         0.0600 
    210 H210       -2.7068  -23.4170  -48.4859 H         1 UNK         0.3000 
    211 H211       -3.1602  -21.3903  -49.1560 H         1 UNK         0.0600 
    212 H212       -5.9942  -22.4840  -49.5736 H         1 UNK         0.0600 
    213 H213       -5.5684  -20.7763  -49.5829 H         1 UNK         0.0600 
    214 H214       -5.3479  -21.7258  -48.1268 H         1 UNK         0.0600 
    215 H215       -5.5618  -22.1998  -51.5342 H         1 UNK         0.3000 
    216 H216       -4.3012  -20.8184  -53.6413 H         1 UNK         0.0600 
    217 H217       -6.1700  -21.7671  -55.0083 H         1 UNK         0.0600 
    218 H218       -6.5726  -22.8774  -53.7032 H         1 UNK         0.0600 
    219 H219       -6.7534  -21.1371  -53.4766 H         1 UNK         0.0600 
    220 H220       -4.0405  -24.1979  -52.6716 H         1 UNK         0.3000 
    221 H221       -2.8773  -25.2420  -55.0797 H         1 UNK         0.0600 
    222 H222       -2.6372  -26.1714  -52.1736 H         1 UNK         0.0600 
    223 H223       -3.8906  -26.6740  -53.3070 H         1 UNK         0.0600 
    224 H224       -2.2146  -27.1262  -53.5885 H         1 UNK         0.0600 
    225 H225       -1.5801  -23.3103  -52.4449 H         1 UNK         0.3000 
    226 H226        1.2336  -23.6389  -53.3824 H         1 UNK         0.0600 
    227 H227        1.7802  -22.6148  -51.1856 H         1 UNK         0.0600 
    228 H228        0.0687  -22.4319  -50.8102 H         1 UNK         0.0600 
    229 H229        0.7741  -24.0372  -50.9697 H         1 UNK         0.0600 
    230 H230       -1.3923  -21.8126  -54.1027 H         1 UNK         0.3000 
    231 H231       -1.9114  -19.8310  -54.8939 H         1 UNK         0.0600 
    232 H232        1.0638  -19.3871  -55.4693 H         1 UNK         0.0600 
    233 H233       -0.2881  -18.5557  -56.2235 H         1 UNK         0.0600 
    234 H234       -0.0491  -20.2701  -56.5143 H         1 UNK         0.0600 
    235 H235       -1.4548  -20.0792  -52.0395 H         1 UNK         0.3000 
    236 H236       -0.1444  -17.8241  -50.9313 H         1 UNK         0.0600 
    237 H237       -2.4998  -19.3171  -49.6852 H         1 UNK         0.0600 
    238 H238       -0.8731  -19.9989  -49.7399 H         1 UNK         0.0600 
    239 H239       -1.1851  -18.5074  -48.8565 H         1 UNK         0.0600 
    240 H240       -3.3071  -18.1361  -52.3771 H         1 UNK         0.3000 
    241 H241       -4.4966  -15.7871  -51.2575 H         1 UNK         0.0600 
    242 H242       -1.9190  -15.9183  -53.5647 H         1 UNK         0.3800 
    243 H243       -2.2039  -14.3339  -54.2399 H         1 UNK         0.3800 
    244 H244       -5.2952  -17.1385  -53.8733 H         1 UNK         0.0800 
    245 H245       -6.2885  -16.1017  -52.8926 H         1 UNK         0.0800 
    246 H246       -7.9520  -16.8482  -51.3791 H         1 UNK         0.0800 
    247 H247       -8.1275  -18.4216  -50.6500 H         1 UNK         0.0800 
@<TRIPOS>BOND
     1    1    2 1    
     2    1  127 1    
     3    1  128 1    
     4    1  129 1    
     5    2    3 2    
     6    2    4 am   BACKBONE|DICT|INTERRES
     7    4    5 1    
     8    4  130 1    
     9    5    6 1    
    10    5   65 1    
    11    5  131 1    
    12    6    7 1    
    13    6  132 1    
    14    6  133 1    
    15    7    8 1    
    16    8    9 1    
    17    8  134 1    
    18    8  135 1    
    19    9   10 ar   
    20    9   14 ar   
    21   10   11 ar   
    22   10  136 1    
    23   11   12 ar   
    24   11  126 1    
    25   12   13 ar   
    26   12  137 1    
    27   13   14 ar   
    28   13   15 1    
    29   14  138 1    
    30   15   16 1    
    31   15  139 1    
    32   15  140 1    
    33   16   17 1    
    34   17   18 1    
    35   17  141 1    
    36   17  142 1    
    37   18   19 1    
    38   18   67 1    
    39   18  143 1    
    40   19   20 am   BACKBONE|DICT|INTERRES
    41   19  144 1    
    42   20   21 2    
    43   20   22 1    
    44   22   23 1    
    45   22   24 1    
    46   22  145 1    
    47   23  146 1    
    48   23  147 1    
    49   23  148 1    
    50   24   25 am   BACKBONE|DICT|INTERRES
    51   24  149 1    
    52   25   26 2    
    53   25   27 1    
    54   27   28 1    
    55   27   29 1    
    56   27  150 1    
    57   28  151 1    
    58   28  152 1    
    59   28  153 1    
    60   29   30 am   BACKBONE|DICT|INTERRES
    61   29  154 1    
    62   30   31 2    
    63   30   32 1    
    64   32   33 1    
    65   32   34 1    
    66   32  155 1    
    67   33  156 1    
    68   33  157 1    
    69   33  158 1    
    70   34   35 am   BACKBONE|DICT|INTERRES
    71   34  159 1    
    72   35   36 2    
    73   35   37 1    
    74   37   38 1    
    75   37   39 1    
    76   37  160 1    
    77   38  161 1    
    78   38  162 1    
    79   38  163 1    
    80   39   40 am   BACKBONE|DICT|INTERRES
    81   39  164 1    
    82   40   41 2    
    83   40   42 1    
    84   42   43 1    
    85   42   44 1    
    86   42  165 1    
    87   43  166 1    
    88   43  167 1    
    89   43  168 1    
    90   44   45 am   BACKBONE|DICT|INTERRES
    91   44  169 1    
    92   45   46 2    
    93   45   47 1    
    94   47   48 1    
    95   47   49 1    
    96   47  170 1    
    97   48  171 1    
    98   48  172 1    
    99   48  173 1    
   100   49   50 am   BACKBONE|DICT|INTERRES
   101   49  174 1    
   102   50   51 2    
   103   50   52 1    
   104   52   53 1    
   105   52   54 1    
   106   52  175 1    
   107   53  176 1    
   108   53  177 1    
   109   53  178 1    
   110   54   55 am   BACKBONE|DICT|INTERRES
   111   54  179 1    
   112   55   56 2    
   113   55   57 1    
   114   57   58 1    
   115   57   59 1    
   116   57  180 1    
   117   58  181 1    
   118   58  182 1    
   119   58  183 1    
   120   59   60 am   BACKBONE|DICT|INTERRES
   121   59  184 1    
   122   60   61 2    
   123   60   62 1    
   124   62   63 1    
   125   62   64 1    
   126   62  185 1    
   127   63  186 1    
   128   63  187 1    
   129   63  188 1    
   130   64   65 am   BACKBONE|DICT|INTERRES
   131   64  189 1    
   132   65   66 2    
   133   67   68 2    
   134   67   69 am   BACKBONE|DICT|INTERRES
   135   69   70 1    
   136   69  190 1    
   137   70   71 1    
   138   70   72 1    
   139   70  191 1    
   140   71  192 1    
   141   71  193 1    
   142   71  194 1    
   143   72   73 2    
   144   72   74 am   BACKBONE|DICT|INTERRES
   145   74   75 1    
   146   74  195 1    
   147   75   76 1    
   148   75   77 1    
   149   75  196 1    
   150   76  197 1    
   151   76  198 1    
   152   76  199 1    
   153   77   78 2    
   154   77   79 am   BACKBONE|DICT|INTERRES
   155   79   80 1    
   156   79  200 1    
   157   80   81 1    
   158   80   82 1    
   159   80  201 1    
   160   81  202 1    
   161   81  203 1    
   162   81  204 1    
   163   82   83 2    
   164   82   84 am   BACKBONE|DICT|INTERRES
   165   84   85 1    
   166   84  205 1    
   167   85   86 1    
   168   85   87 1    
   169   85  206 1    
   170   86  207 1    
   171   86  208 1    
   172   86  209 1    
   173   87   88 2    
   174   87   89 am   BACKBONE|DICT|INTERRES
   175   89   90 1    
   176   89  210 1    
   177   90   91 1    
   178   90   92 1    
   179   90  211 1    
   180   91  212 1    
   181   91  213 1    
   182   91  214 1    
   183   92   93 2    
   184   92   94 am   BACKBONE|DICT|INTERRES
   185   94   95 1    
   186   94  215 1    
   187   95   96 1    
   188   95   97 1    
   189   95  216 1    
   190   96  217 1    
   191   96  218 1    
   192   96  219 1    
   193   97   98 2    
   194   97   99 am   BACKBONE|DICT|INTERRES
   195   99  100 1    
   196   99  220 1    
   197  100  101 1    
   198  100  102 1    
   199  100  221 1    
   200  101  222 1    
   201  101  223 1    
   202  101  224 1    
   203  102  103 2    
   204  102  104 am   BACKBONE|DICT|INTERRES
   205  104  105 1    
   206  104  225 1    
   207  105  106 1    
   208  105  107 1    
   209  105  226 1    
   210  106  227 1    
   211  106  228 1    
   212  106  229 1    
   213  107  108 2    
   214  107  109 am   BACKBONE|DICT|INTERRES
   215  109  110 1    
   216  109  230 1    
   217  110  111 1    
   218  110  112 1    
   219  110  231 1    
   220  111  232 1    
   221  111  233 1    
   222  111  234 1    
   223  112  113 2    
   224  112  114 am   BACKBONE|DICT|INTERRES
   225  114  115 1    
   226  114  235 1    
   227  115  116 1    
   228  115  117 1    
   229  115  236 1    
   230  116  237 1    
   231  116  238 1    
   232  116  239 1    
   233  117  118 2    
   234  117  119 am   BACKBONE|DICT|INTERRES
   235  119  120 1    
   236  119  240 1    
   237  120  121 1    
   238  120  124 1    
   239  120  241 1    
   240  121  122 am   BACKBONE|DICT|INTERRES
   241  121  123 2    
   242  122  242 1    
   243  122  243 1    
   244  124  125 1    
   245  124  244 1    
   246  124  245 1    
   247  125  126 1    
   248  126  246 1    
   249  126  247 1    
@<TRIPOS>SUBSTRUCTURE
     1 UNK         1 GROUP             0       ****    0 ROOT    
