@<TRIPOS>MOLECULE
3R540
247   249    1
SMALL
USER_CHARGES


@<TRIPOS>ATOM
      1 CA          3.7388  -14.4405  -44.2044 C.3       0 UNK        -0.1800 
      2 C           2.4404  -14.1968  -44.9574 C.2       0 UNK         0.5000 
      3 O           1.3770  -14.6356  -44.5193 O.2       0 UNK        -0.5000 
      4 N           2.5431  -13.4927  -46.0887 N.am      1 UNK        -0.5000 
      5 CA          1.4162  -13.0526  -46.9226 C.3       1 UNK         0.1400 
      6 C6          1.6267  -13.4466  -48.4078 C.3       23 UNK        -0.0398 
      7 S7          1.5282  -15.2563  -48.6466 S.3       23 UNK        -0.2404 
      8 C8          0.3485  -15.3752  -50.0321 C.3       23 UNK        -0.0205 
      9 C9         -0.2485  -16.7700  -50.1734 C.ar      23 UNK        -0.0193 
     10 C10        -1.6349  -16.9462  -50.1081 C.ar      23 UNK        -0.1150 
     11 C11        -2.2080  -18.2130  -50.2559 C.ar      23 UNK        -0.0193 
     12 C12        -1.3649  -19.3176  -50.4276 C.ar      23 UNK        -0.1150 
     13 C13         0.0198  -19.1582  -50.5182 C.ar      23 UNK        -0.0193 
     14 C14         0.5722  -17.8794  -50.4013 C.ar      23 UNK        -0.1150 
     15 C15         0.9053  -20.3762  -50.7516 C.3       23 UNK        -0.0205 
     16 S16         2.1187  -20.6641  -49.4202 S.3       23 UNK        -0.2404 
     17 C17         1.0972  -20.5973  -47.9108 C.3       23 UNK        -0.0398 
     18 CA          0.6009  -21.9788  -47.4250 C.3       11 UNK         0.1400 
     19 N           0.3792  -21.9760  -45.9788 N.am      11 UNK        -0.5000 
     20 C           0.0485  -23.0391  -45.2350 C.2       10 UNK         0.5000 
     21 O          -0.0415  -24.1851  -45.6743 O.2       10 UNK        -0.5000 
     22 CA         -0.2893  -22.7557  -43.7612 C.3       10 UNK         0.1400 
     23 CB          0.9844  -22.7051  -42.9041 C.3       10 UNK        -0.1800 
     24 N          -1.0349  -21.5044  -43.6097 N.am      10 UNK        -0.5000 
     25 C          -2.3077  -21.3357  -43.9942 C.2       9 UNK         0.5000 
     26 O          -3.0012  -22.2370  -44.4665 O.2       9 UNK        -0.5000 
     27 CA         -2.8852  -19.9128  -43.8674 C.3       9 UNK         0.1400 
     28 CB         -3.3157  -19.6260  -42.4214 C.3       9 UNK        -0.1800 
     29 N          -1.9448  -18.8805  -44.3091 N.am      9 UNK        -0.5000 
     30 C          -1.5430  -18.7252  -45.5804 C.2       8 UNK         0.5000 
     31 O          -1.9547  -19.4156  -46.5082 O.2       8 UNK        -0.5000 
     32 CA         -0.4742  -17.6536  -45.8708 C.3       8 UNK         0.1400 
     33 CB         -1.1623  -16.3175  -46.1784 C.3       8 UNK        -0.1800 
     34 N           0.4898  -17.4646  -44.7854 N.am      8 UNK        -0.5000 
     35 C           1.1978  -18.4316  -44.1821 C.2       7 UNK         0.5000 
     36 O           1.2151  -19.6009  -44.5662 O.2       7 UNK        -0.5000 
     37 CA          1.9606  -18.0580  -42.8952 C.3       7 UNK         0.1400 
     38 CB          3.4687  -17.9730  -43.1696 C.3       7 UNK        -0.1800 
     39 N           1.5007  -16.8172  -42.2594 N.am      7 UNK        -0.5000 
     40 C           0.2649  -16.5910  -41.7875 C.2       6 UNK         0.5000 
     41 O          -0.6389  -17.4287  -41.8336 O.2       6 UNK        -0.5000 
     42 CA          0.0016  -15.1979  -41.1832 C.3       6 UNK         0.1400 
     43 CB         -1.1677  -15.2066  -40.1816 C.3       6 UNK        -0.1800 
     44 N           1.1978  -14.6805  -40.5131 N.am      6 UNK        -0.5000 
     45 C           1.8710  -13.5798  -40.8667 C.2       5 UNK         0.5000 
     46 O           1.5761  -12.8692  -41.8302 O.2       5 UNK        -0.5000 
     47 CA          3.1035  -13.2436  -40.0040 C.3       5 UNK         0.1400 
     48 CB          4.2875  -14.1598  -40.3548 C.3       5 UNK        -0.1800 
     49 N           3.5299  -11.8562  -40.1688 N.am      5 UNK        -0.5000 
     50 C           2.8708  -10.7774  -39.7357 C.2       4 UNK         0.5000 
     51 O           1.8504  -10.8353  -39.0475 O.2       4 UNK        -0.5000 
     52 CA          3.4365   -9.3976  -40.1307 C.3       4 UNK         0.1400 
     53 CB          4.5306   -8.9486  -39.1436 C.3       4 UNK        -0.1800 
     54 N           3.8960   -9.2740  -41.5233 N.am      4 UNK        -0.5000 
     55 C           4.9210   -9.8684  -42.1484 C.2       3 UNK         0.5000 
     56 O           5.6325  -10.7299  -41.6280 O.2       3 UNK        -0.5000 
     57 CA          5.1859   -9.4213  -43.6040 C.3       3 UNK         0.1400 
     58 CB          6.4571  -10.0608  -44.1926 C.3       3 UNK        -0.1800 
     59 N           4.0709   -9.6915  -44.5164 N.am      3 UNK        -0.5000 
     60 C           2.9091   -9.0224  -44.5674 C.2       2 UNK         0.5000 
     61 O           2.6040   -8.1244  -43.7813 O.2       2 UNK        -0.5000 
     62 CA          1.9311   -9.4106  -45.6877 C.3       2 UNK         0.1400 
     63 CB          2.2198   -8.5667  -46.9462 C.3       2 UNK        -0.1800 
     64 N           2.0070  -10.8443  -45.9803 N.am      2 UNK        -0.5000 
     65 C           1.1704  -11.5338  -46.7697 C.2       1 UNK         0.5000 
     66 O           0.2195  -11.0197  -47.3602 O.2       1 UNK        -0.5000 
     67 C          -0.6593  -22.4417  -48.1878 C.2       11 UNK         0.5000 
     68 O          -0.5633  -23.3263  -49.0378 O.2       11 UNK        -0.5000 
     69 N          -1.8247  -21.8829  -47.8271 N.am      12 UNK        -0.5000 
     70 CA         -3.1366  -22.2646  -48.3469 C.3       12 UNK         0.1400 
     71 CB         -4.2204  -21.3344  -47.7847 C.3       12 UNK        -0.1800 
     72 C          -3.4905  -23.7256  -48.0407 C.2       12 UNK         0.5000 
     73 O          -3.9762  -24.4176  -48.9320 O.2       12 UNK        -0.5000 
     74 N          -3.2160  -24.1796  -46.8094 N.am      13 UNK        -0.5000 
     75 CA         -3.4202  -25.5644  -46.3814 C.3       13 UNK         0.1400 
     76 CB         -3.1713  -25.6875  -44.8708 C.3       13 UNK        -0.1800 
     77 C          -2.5544  -26.5636  -47.1717 C.2       13 UNK         0.5000 
     78 O          -3.0679  -27.5950  -47.6058 O.2       13 UNK        -0.5000 
     79 N          -1.2771  -26.2188  -47.3890 N.am      14 UNK        -0.5000 
     80 CA         -0.3319  -26.9890  -48.2013 C.3       14 UNK         0.1400 
     81 CB          1.0804  -26.4109  -48.0244 C.3       14 UNK        -0.1800 
     82 C          -0.7208  -27.0376  -49.6923 C.2       14 UNK         0.5000 
     83 O          -0.5840  -28.0853  -50.3246 O.2       14 UNK        -0.5000 
     84 N          -1.2249  -25.9132  -50.2163 N.am      15 UNK        -0.5000 
     85 CA         -1.7224  -25.7635  -51.5855 C.3       15 UNK         0.1400 
     86 CB         -1.7401  -24.2646  -51.9264 C.3       15 UNK        -0.1800 
     87 C          -3.1224  -26.3714  -51.8144 C.2       15 UNK         0.5000 
     88 O          -3.5795  -26.4050  -52.9589 O.2       15 UNK        -0.5000 
     89 N          -3.8019  -26.7771  -50.7294 N.am      16 UNK        -0.5000 
     90 CA         -5.2056  -27.2044  -50.6631 C.3       16 UNK         0.1400 
     91 CB         -5.3872  -28.5736  -51.3490 C.3       16 UNK        -0.1800 
     92 C          -6.1715  -26.1261  -51.2050 C.2       16 UNK         0.5000 
     93 O          -7.1675  -26.4511  -51.8544 O.2       16 UNK        -0.5000 
     94 N          -5.8092  -24.8551  -50.9750 N.am      17 UNK        -0.5000 
     95 CA         -6.3500  -23.5968  -51.4997 C.3       17 UNK         0.1400 
     96 CB         -7.7929  -23.3645  -51.0180 C.3       17 UNK        -0.1800 
     97 C          -6.2458  -23.4365  -53.0302 C.2       17 UNK         0.5000 
     98 O          -5.8757  -22.3605  -53.4999 O.2       17 UNK        -0.5000 
     99 N          -6.5855  -24.4920  -53.7766 N.am      18 UNK        -0.5000 
    100 CA        -6.7240  -24.5227  -55.2289 C.3       18 UNK         0.1400 
    101 CB        -7.3080  -25.8808  -55.6459 C.3       18 UNK        -0.1800 
    102 C         -5.4276  -24.2349  -56.0025 C.2       18 UNK         0.5000 
    103 O         -5.4772  -23.4972  -56.9870 O.2       18 UNK        -0.5000 
    104 N         -4.2945  -24.8016  -55.5591 N.am      19 UNK        -0.5000 
    105 CA        -3.0145  -24.6911  -56.2716 C.3       19 UNK         0.1400 
    106 CB        -2.0344  -25.7563  -55.7575 C.3       19 UNK        -0.1800 
    107 C         -2.3855  -23.2865  -56.1955 C.2       19 UNK         0.5000 
    108 O         -1.6216  -22.9183  -57.0885 O.2       19 UNK        -0.5000 
    109 N         -2.7270  -22.5305  -55.1451 N.am      20 UNK        -0.5000 
    110 CA        -2.2909  -21.1503  -54.9258 C.3       20 UNK         0.1400 
    111 CB        -1.8336  -21.0138  -53.4664 C.3       20 UNK        -0.1800 
    112 C         -3.3897  -20.1240  -55.2724 C.2       20 UNK         0.5000 
    113 O         -3.1197  -18.9232  -55.2328 O.2       20 UNK        -0.5000 
    114 N         -4.5926  -20.6091  -55.6188 N.am      21 UNK        -0.5000 
    115 CA        -5.8046  -19.8569  -55.9561 C.3       21 UNK         0.1400 
    116 CB        -5.6252  -19.1044  -57.2911 C.3       21 UNK        -0.1800 
    117 C         -6.2884  -18.9514  -54.8029 C.2       21 UNK         0.5000 
    118 O         -6.6126  -17.7824  -55.0231 O.2       21 UNK        -0.5000 
    119 N         -6.3224  -19.5126  -53.5875 N.am      22 UNK        -0.5000 
    120 CA        -6.7263  -18.8148  -52.3524 C.3       22 UNK         0.1400 
    121 C         -8.2578  -18.5669  -52.2161 C.2       22 UNK         0.5000 
    122 N         -9.1088  -19.1719  -53.0361 N.am      22 UNK        -0.7600 
    123 O         -8.6819  -17.8059  -51.3507 O.2       22 UNK        -0.5000 
    124 C124       -6.1787  -19.5040  -51.0750 C.3       23 UNK        -0.0398 
    125 S125       -4.3816  -19.7943  -51.1311 S.3       23 UNK        -0.2404 
    126 C126       -3.7324  -18.3449  -50.2264 C.3       23 UNK        -0.0205 
    127 H127        3.5478  -14.9546  -43.2644 H         1 UNK         0.0600 
    128 H128        4.2307  -13.4951  -43.9745 H         1 UNK         0.0600 
    129 H129        4.4182  -15.0508  -44.7993 H         1 UNK         0.0600 
    130 H130        3.4594  -13.2271  -46.4211 H         1 UNK         0.3000 
    131 H131        0.4918  -13.5186  -46.5802 H         1 UNK         0.0600 
    132 H132        0.8821  -12.9655  -49.0439 H         1 UNK         0.0800 
    133 H133        2.5962  -13.0980  -48.7672 H         1 UNK         0.0800 
    134 H134        0.8547  -15.1043  -50.9596 H         1 UNK         0.0800 
    135 H135       -0.4490  -14.6448  -49.8882 H         1 UNK         0.0800 
    136 H136       -2.2758  -16.0893  -49.9550 H         1 UNK         0.1150 
    137 H137       -1.7828  -20.3094  -50.5133 H         1 UNK         0.1150 
    138 H138        1.6433  -17.7500  -50.4689 H         1 UNK         0.1150 
    139 H139        0.3010  -21.2768  -50.8720 H         1 UNK         0.0800 
    140 H140        1.4412  -20.2457  -51.6924 H         1 UNK         0.0800 
    141 H141        0.2723  -19.8957  -48.0242 H         1 UNK         0.0800 
    142 H142        1.7423  -20.1540  -47.1513 H         1 UNK         0.0800 
    143 H143        1.3864  -22.7141  -47.6121 H         1 UNK         0.0600 
    144 H144        0.4859  -21.0824  -45.5064 H         1 UNK         0.3000 
    145 H145       -0.9121  -23.5747  -43.3957 H         1 UNK         0.0600 
    146 H146        1.5387  -23.6416  -42.9773 H         1 UNK         0.0600 
    147 H147        1.6541  -21.9035  -43.2168 H         1 UNK         0.0600 
    148 H148        0.7452  -22.5507  -41.8518 H         1 UNK         0.0600 
    149 H149       -0.5144  -20.7008  -43.2887 H         1 UNK         0.3000 
    150 H150       -3.7715  -19.8569  -44.5031 H         1 UNK         0.0600 
    151 H151       -3.7900  -18.6480  -42.3384 H         1 UNK         0.0600 
    152 H152       -2.4669  -19.6441  -41.7364 H         1 UNK         0.0600 
    153 H153       -4.0356  -20.3680  -42.0736 H         1 UNK         0.0600 
    154 H154       -1.5432  -18.2896  -43.5894 H         1 UNK         0.3000 
    155 H155        0.0846  -17.9598  -46.7560 H         1 UNK         0.0600 
    156 H156       -1.7080  -15.9355  -45.3148 H         1 UNK         0.0600 
    157 H157       -1.8706  -16.4215  -47.0016 H         1 UNK         0.0600 
    158 H158       -0.4357  -15.5653  -46.4736 H         1 UNK         0.0600 
    159 H159        0.5994  -16.5139  -44.4470 H         1 UNK         0.3000 
    160 H160        1.7933  -18.8652  -42.1793 H         1 UNK         0.0600 
    161 H161        3.8567  -18.9415  -43.4879 H         1 UNK         0.0600 
    162 H162        3.6945  -17.2615  -43.9627 H         1 UNK         0.0600 
    163 H163        4.0230  -17.6792  -42.2780 H         1 UNK         0.0600 
    164 H164        2.1623  -16.0575  -42.2170 H         1 UNK         0.3000 
    165 H165       -0.2783  -14.5530  -42.0187 H         1 UNK         0.0600 
    166 H166       -1.3435  -14.2106  -39.7749 H         1 UNK         0.0600 
    167 H167       -2.0943  -15.5270  -40.6598 H         1 UNK         0.0600 
    168 H168       -0.9766  -15.8814  -39.3464 H         1 UNK         0.0600 
    169 H169        1.5279  -15.2236  -39.7270 H         1 UNK         0.3000 
    170 H170        2.8382  -13.3989  -38.9562 H         1 UNK         0.0600 
    171 H171        5.1220  -13.9960  -39.6728 H         1 UNK         0.0600 
    172 H172        4.0153  -15.2135  -40.2831 H         1 UNK         0.0600 
    173 H173        4.6498  -13.9786  -41.3668 H         1 UNK         0.0600 
    174 H174        4.3580  -11.6910  -40.7353 H         1 UNK         0.3000 
    175 H175        2.6098   -8.6914  -40.0390 H         1 UNK         0.0600 
    176 H176        5.3981   -9.6086  -39.1679 H         1 UNK         0.0600 
    177 H177        4.8716   -7.9375  -39.3662 H         1 UNK         0.0600 
    178 H178        4.1534   -8.9461  -38.1202 H         1 UNK         0.0600 
    179 H179        3.3397   -8.6472  -42.0994 H         1 UNK         0.3000 
    180 H180        5.3481   -8.3416  -43.5759 H         1 UNK         0.0600 
    181 H181        7.3269   -9.8503  -43.5689 H         1 UNK         0.0600 
    182 H182        6.6729   -9.6684  -45.1866 H         1 UNK         0.0600 
    183 H183        6.3638  -11.1447  -44.2720 H         1 UNK         0.0600 
    184 H184        4.2584  -10.3765  -45.2316 H         1 UNK         0.3000 
    185 H185        0.9228   -9.1861  -45.3340 H         1 UNK         0.0600 
    186 H186        2.2384   -7.5024  -46.7075 H         1 UNK         0.0600 
    187 H187        3.1844   -8.8211  -47.3867 H         1 UNK         0.0600 
    188 H188        1.4562   -8.7052  -47.7110 H         1 UNK         0.0600 
    189 H189        2.6843  -11.3688  -45.4474 H         1 UNK         0.3000 
    190 H190       -1.8193  -21.1094  -47.1655 H         1 UNK         0.3000 
    191 H191       -3.1104  -22.1439  -49.4314 H         1 UNK         0.0600 
    192 H192       -4.3163  -21.4287  -46.7030 H         1 UNK         0.0600 
    193 H193       -5.1931  -21.5581  -48.2245 H         1 UNK         0.0600 
    194 H194       -3.9970  -20.2933  -48.0045 H         1 UNK         0.0600 
    195 H195       -2.8588  -23.5318  -46.1158 H         1 UNK         0.3000 
    196 H196       -4.4664  -25.8143  -46.5699 H         1 UNK         0.0600 
    197 H197       -3.3686  -26.7030  -44.5255 H         1 UNK         0.0600 
    198 H198       -3.8239  -25.0197  -44.3081 H         1 UNK         0.0600 
    199 H199       -2.1415  -25.4474  -44.6081 H         1 UNK         0.0600 
    200 H200       -0.9218  -25.3683  -46.9607 H         1 UNK         0.3000 
    201 H201       -0.3279  -28.0146  -47.8265 H         1 UNK         0.0600 
    202 H202        1.3906  -26.4429  -46.9798 H         1 UNK         0.0600 
    203 H203        1.1362  -25.3737  -48.3564 H         1 UNK         0.0600 
    204 H204        1.8113  -26.9806  -48.5994 H         1 UNK         0.0600 
    205 H205       -1.2338  -25.0744  -49.6425 H         1 UNK         0.3000 
    206 H206       -1.0323  -26.2646  -52.2671 H         1 UNK         0.0600 
    207 H207       -2.0838  -24.0941  -52.9449 H         1 UNK         0.0600 
    208 H208       -2.4041  -23.7097  -51.2630 H         1 UNK         0.0600 
    209 H209       -0.7444  -23.8287  -51.8435 H         1 UNK         0.0600 
    210 H210       -3.3459  -26.6625  -49.8337 H         1 UNK         0.3000 
    211 H211       -5.4407  -27.3246  -49.6047 H         1 UNK         0.0600 
    212 H212       -5.2212  -28.5127  -52.4251 H         1 UNK         0.0600 
    213 H213       -6.3960  -28.9578  -51.1947 H         1 UNK         0.0600 
    214 H214       -4.6942  -29.3110  -50.9439 H         1 UNK         0.0600 
    215 H215       -4.9974  -24.7338  -50.3704 H         1 UNK         0.3000 
    216 H216       -5.7277  -22.8126  -51.0656 H         1 UNK         0.0600 
    217 H217       -8.1703  -22.4010  -51.3626 H         1 UNK         0.0600 
    218 H218       -7.8475  -23.3653  -49.9294 H         1 UNK         0.0600 
    219 H219       -8.4749  -24.1302  -51.3886 H         1 UNK         0.0600 
    220 H220       -6.8655  -25.3315  -53.2748 H         1 UNK         0.3000 
    221 H221       -7.4438  -23.7479  -55.5009 H         1 UNK         0.0600 
    222 H222       -6.6562  -26.7049  -55.3524 H         1 UNK         0.0600 
    223 H223       -8.2834  -26.0474  -55.1884 H         1 UNK         0.0600 
    224 H224       -7.4428  -25.9353  -56.7271 H         1 UNK         0.0600 
    225 H225       -4.3110  -25.3816  -54.7265 H         1 UNK         0.3000 
    226 H226       -3.2026  -24.9025  -57.3266 H         1 UNK         0.0600 
    227 H227       -2.4709  -26.7539  -55.8066 H         1 UNK         0.0600 
    228 H228       -1.1254  -25.7691  -56.3600 H         1 UNK         0.0600 
    229 H229       -1.7357  -25.5708  -54.7272 H         1 UNK         0.0600 
    230 H230       -3.3769  -22.9113  -54.4720 H         1 UNK         0.3000 
    231 H231       -1.4357  -20.9157  -55.5625 H         1 UNK         0.0600 
    232 H232       -2.6042  -21.3491  -52.7735 H         1 UNK         0.0600 
    233 H233       -0.9387  -21.6071  -53.2801 H         1 UNK         0.0600 
    234 H234       -1.5915  -19.9788  -53.2223 H         1 UNK         0.0600 
    235 H235       -4.7060  -21.6130  -55.6123 H         1 UNK         0.3000 
    236 H236       -6.5884  -20.6013  -56.1041 H         1 UNK         0.0600 
    237 H237       -4.8804  -18.3118  -57.2143 H         1 UNK         0.0600 
    238 H238       -5.3130  -19.7825  -58.0854 H         1 UNK         0.0600 
    239 H239       -6.5613  -18.6436  -57.6083 H         1 UNK         0.0600 
    240 H240       -6.0429  -20.4858  -53.4903 H         1 UNK         0.3000 
    241 H241       -6.2740  -17.8219  -52.3901 H         1 UNK         0.0600 
    242 H242      -10.0975  -18.9998  -52.9417 H         1 UNK         0.3800 
    243 H243       -8.7737  -19.7955  -53.7522 H         1 UNK         0.3800 
    244 H244       -6.4117  -18.9148  -50.1862 H         1 UNK         0.0800 
    245 H245       -6.6653  -20.4689  -50.9318 H         1 UNK         0.0800 
    246 H246       -4.0651  -18.3750  -49.1894 H         1 UNK         0.0800 
    247 H247       -4.1762  -17.4511  -50.6675 H         1 UNK         0.0800 
@<TRIPOS>BOND
     1    1    2 1    
     2    1  127 1    
     3    1  128 1    
     4    1  129 1    
     5    2    3 2    
     6    2    4 am   BACKBONE|DICT|INTERRES
     7    4    5 1    
     8    4  130 1    
     9    5    6 1    
    10    5   65 1    
    11    5  131 1    
    12    6    7 1    
    13    6  132 1    
    14    6  133 1    
    15    7    8 1    
    16    8    9 1    
    17    8  134 1    
    18    8  135 1    
    19    9   10 ar   
    20    9   14 ar   
    21   10   11 ar   
    22   10  136 1    
    23   11   12 ar   
    24   11  126 1    
    25   12   13 ar   
    26   12  137 1    
    27   13   14 ar   
    28   13   15 1    
    29   14  138 1    
    30   15   16 1    
    31   15  139 1    
    32   15  140 1    
    33   16   17 1    
    34   17   18 1    
    35   17  141 1    
    36   17  142 1    
    37   18   19 1    
    38   18   67 1    
    39   18  143 1    
    40   19   20 am   BACKBONE|DICT|INTERRES
    41   19  144 1    
    42   20   21 2    
    43   20   22 1    
    44   22   23 1    
    45   22   24 1    
    46   22  145 1    
    47   23  146 1    
    48   23  147 1    
    49   23  148 1    
    50   24   25 am   BACKBONE|DICT|INTERRES
    51   24  149 1    
    52   25   26 2    
    53   25   27 1    
    54   27   28 1    
    55   27   29 1    
    56   27  150 1    
    57   28  151 1    
    58   28  152 1    
    59   28  153 1    
    60   29   30 am   BACKBONE|DICT|INTERRES
    61   29  154 1    
    62   30   31 2    
    63   30   32 1    
    64   32   33 1    
    65   32   34 1    
    66   32  155 1    
    67   33  156 1    
    68   33  157 1    
    69   33  158 1    
    70   34   35 am   BACKBONE|DICT|INTERRES
    71   34  159 1    
    72   35   36 2    
    73   35   37 1    
    74   37   38 1    
    75   37   39 1    
    76   37  160 1    
    77   38  161 1    
    78   38  162 1    
    79   38  163 1    
    80   39   40 am   BACKBONE|DICT|INTERRES
    81   39  164 1    
    82   40   41 2    
    83   40   42 1    
    84   42   43 1    
    85   42   44 1    
    86   42  165 1    
    87   43  166 1    
    88   43  167 1    
    89   43  168 1    
    90   44   45 am   BACKBONE|DICT|INTERRES
    91   44  169 1    
    92   45   46 2    
    93   45   47 1    
    94   47   48 1    
    95   47   49 1    
    96   47  170 1    
    97   48  171 1    
    98   48  172 1    
    99   48  173 1    
   100   49   50 am   BACKBONE|DICT|INTERRES
   101   49  174 1    
   102   50   51 2    
   103   50   52 1    
   104   52   53 1    
   105   52   54 1    
   106   52  175 1    
   107   53  176 1    
   108   53  177 1    
   109   53  178 1    
   110   54   55 am   BACKBONE|DICT|INTERRES
   111   54  179 1    
   112   55   56 2    
   113   55   57 1    
   114   57   58 1    
   115   57   59 1    
   116   57  180 1    
   117   58  181 1    
   118   58  182 1    
   119   58  183 1    
   120   59   60 am   BACKBONE|DICT|INTERRES
   121   59  184 1    
   122   60   61 2    
   123   60   62 1    
   124   62   63 1    
   125   62   64 1    
   126   62  185 1    
   127   63  186 1    
   128   63  187 1    
   129   63  188 1    
   130   64   65 am   BACKBONE|DICT|INTERRES
   131   64  189 1    
   132   65   66 2    
   133   67   68 2    
   134   67   69 am   BACKBONE|DICT|INTERRES
   135   69   70 1    
   136   69  190 1    
   137   70   71 1    
   138   70   72 1    
   139   70  191 1    
   140   71  192 1    
   141   71  193 1    
   142   71  194 1    
   143   72   73 2    
   144   72   74 am   BACKBONE|DICT|INTERRES
   145   74   75 1    
   146   74  195 1    
   147   75   76 1    
   148   75   77 1    
   149   75  196 1    
   150   76  197 1    
   151   76  198 1    
   152   76  199 1    
   153   77   78 2    
   154   77   79 am   BACKBONE|DICT|INTERRES
   155   79   80 1    
   156   79  200 1    
   157   80   81 1    
   158   80   82 1    
   159   80  201 1    
   160   81  202 1    
   161   81  203 1    
   162   81  204 1    
   163   82   83 2    
   164   82   84 am   BACKBONE|DICT|INTERRES
   165   84   85 1    
   166   84  205 1    
   167   85   86 1    
   168   85   87 1    
   169   85  206 1    
   170   86  207 1    
   171   86  208 1    
   172   86  209 1    
   173   87   88 2    
   174   87   89 am   BACKBONE|DICT|INTERRES
   175   89   90 1    
   176   89  210 1    
   177   90   91 1    
   178   90   92 1    
   179   90  211 1    
   180   91  212 1    
   181   91  213 1    
   182   91  214 1    
   183   92   93 2    
   184   92   94 am   BACKBONE|DICT|INTERRES
   185   94   95 1    
   186   94  215 1    
   187   95   96 1    
   188   95   97 1    
   189   95  216 1    
   190   96  217 1    
   191   96  218 1    
   192   96  219 1    
   193   97   98 2    
   194   97   99 am   BACKBONE|DICT|INTERRES
   195   99  100 1    
   196   99  220 1    
   197  100  101 1    
   198  100  102 1    
   199  100  221 1    
   200  101  222 1    
   201  101  223 1    
   202  101  224 1    
   203  102  103 2    
   204  102  104 am   BACKBONE|DICT|INTERRES
   205  104  105 1    
   206  104  225 1    
   207  105  106 1    
   208  105  107 1    
   209  105  226 1    
   210  106  227 1    
   211  106  228 1    
   212  106  229 1    
   213  107  108 2    
   214  107  109 am   BACKBONE|DICT|INTERRES
   215  109  110 1    
   216  109  230 1    
   217  110  111 1    
   218  110  112 1    
   219  110  231 1    
   220  111  232 1    
   221  111  233 1    
   222  111  234 1    
   223  112  113 2    
   224  112  114 am   BACKBONE|DICT|INTERRES
   225  114  115 1    
   226  114  235 1    
   227  115  116 1    
   228  115  117 1    
   229  115  236 1    
   230  116  237 1    
   231  116  238 1    
   232  116  239 1    
   233  117  118 2    
   234  117  119 am   BACKBONE|DICT|INTERRES
   235  119  120 1    
   236  119  240 1    
   237  120  121 1    
   238  120  124 1    
   239  120  241 1    
   240  121  122 am   BACKBONE|DICT|INTERRES
   241  121  123 2    
   242  122  242 1    
   243  122  243 1    
   244  124  125 1    
   245  124  244 1    
   246  124  245 1    
   247  125  126 1    
   248  126  246 1    
   249  126  247 1    
@<TRIPOS>SUBSTRUCTURE
     1 UNK         1 GROUP             0       ****    0 ROOT    
