@<TRIPOS>MOLECULE
3R540
247   249    1
SMALL
USER_CHARGES


@<TRIPOS>ATOM
      1 CA         -0.7674   -8.6235  -47.6785 C.3       0 UNK        -0.1800 
      2 C          -0.1894   -9.8801  -47.0432 C.2       0 UNK         0.5000 
      3 O          -0.3631  -10.0913  -45.8443 O.2       0 UNK        -0.5000 
      4 N           0.5080  -10.7003  -47.8421 N.am      1 UNK        -0.5000 
      5 CA          1.1220  -11.9910  -47.4803 C.3       1 UNK         0.1400 
      6 C6          0.1189  -13.0338  -46.9090 C.3       23 UNK        -0.0398 
      7 S7         -1.3459  -13.3231  -47.9594 S.3       23 UNK        -0.2404 
      8 C8         -1.4072  -15.1410  -48.0377 C.3       23 UNK        -0.0205 
      9 C9         -0.7049  -15.6759  -49.2754 C.ar      23 UNK        -0.0193 
     10 C10        -1.4228  -15.8297  -50.4658 C.ar      23 UNK        -0.1150 
     11 C11        -0.8149  -16.3723  -51.6010 C.ar      23 UNK        -0.0193 
     12 C12         0.5317  -16.7360  -51.5440 C.ar      23 UNK        -0.1150 
     13 C13         1.2656  -16.5808  -50.3645 C.ar      23 UNK        -0.0193 
     14 C14         0.6426  -16.0472  -49.2310 C.ar      23 UNK        -0.1150 
     15 C15         2.7281  -17.0076  -50.3269 C.3       23 UNK        -0.0205 
     16 S16         3.0444  -18.4245  -49.2219 S.3       23 UNK        -0.2404 
     17 C17         1.6046  -19.5087  -49.5294 C.3       23 UNK        -0.0398 
     18 CA          1.8534  -20.9912  -49.1540 C.3       11 UNK         0.1400 
     19 N           2.2488  -21.1351  -47.7480 N.am      11 UNK        -0.5000 
     20 C           2.9588  -22.1508  -47.2433 C.2       10 UNK         0.5000 
     21 O           3.3747  -23.0947  -47.9159 O.2       10 UNK        -0.5000 
     22 CA          3.2316  -22.1172  -45.7274 C.3       10 UNK         0.1400 
     23 CB          4.4079  -21.1814  -45.4117 C.3       10 UNK        -0.1800 
     24 N           2.0694  -21.7223  -44.9261 N.am      10 UNK        -0.5000 
     25 C           0.9317  -22.4253  -44.8235 C.2       9 UNK         0.5000 
     26 O           0.7094  -23.4633  -45.4462 O.2       9 UNK        -0.5000 
     27 CA         -0.1498  -21.8630  -43.8839 C.3       9 UNK         0.1400 
     28 CB          0.2057  -22.1146  -42.4105 C.3       9 UNK        -0.1800 
     29 N          -0.3530  -20.4341  -44.1045 N.am      9 UNK        -0.5000 
     30 C          -1.0499  -19.9326  -45.1322 C.2       8 UNK         0.5000 
     31 O          -1.6700  -20.6266  -45.9378 O.2       8 UNK        -0.5000 
     32 CA         -1.0189  -18.4040  -45.3224 C.3       8 UNK         0.1400 
     33 CB         -2.2197  -17.7394  -44.6368 C.3       8 UNK        -0.1800 
     34 N           0.2293  -17.7867  -44.8665 N.am      8 UNK        -0.5000 
     35 C           1.4138  -18.0403  -45.4412 C.2       7 UNK         0.5000 
     36 O           1.5482  -18.8245  -46.3754 O.2       7 UNK        -0.5000 
     37 CA          2.6632  -17.3644  -44.8610 C.3       7 UNK         0.1400 
     38 CB          2.8310  -15.9546  -45.4349 C.3       7 UNK        -0.1800 
     39 N           2.6805  -17.3118  -43.4019 N.am      7 UNK        -0.5000 
     40 C           2.6893  -18.3829  -42.5963 C.2       6 UNK         0.5000 
     41 O           2.5824  -19.5428  -42.9973 O.2       6 UNK        -0.5000 
     42 CA          2.8326  -18.1061  -41.0927 C.3       6 UNK         0.1400 
     43 CB          4.2872  -17.7541  -40.7437 C.3       6 UNK        -0.1800 
     44 N           1.9596  -17.0073  -40.6881 N.am      6 UNK        -0.5000 
     45 C           0.7261  -17.1662  -40.1919 C.2       5 UNK         0.5000 
     46 O           0.2253  -18.2618  -39.9359 O.2       5 UNK        -0.5000 
     47 CA         -0.0994  -15.8862  -39.9518 C.3       5 UNK         0.1400 
     48 CB          0.0934  -15.3841  -38.5128 C.3       5 UNK        -0.1800 
     49 N           0.2080  -14.7976  -40.8827 N.am      5 UNK        -0.5000 
     50 C           0.0225  -14.8502  -42.2086 C.2       4 UNK         0.5000 
     51 O          -0.4092  -15.8361  -42.8046 O.2       4 UNK        -0.5000 
     52 CA          0.4242  -13.6047  -43.0155 C.3       4 UNK         0.1400 
     53 CB         -0.7223  -12.5835  -43.0218 C.3       4 UNK        -0.1800 
     54 N           1.6561  -12.9377  -42.5845 N.am      4 UNK        -0.5000 
     55 C           2.8489  -13.5041  -42.3548 C.2       3 UNK         0.5000 
     56 O           3.0359  -14.7219  -42.3118 O.2       3 UNK        -0.5000 
     57 CA          4.0339  -12.5299  -42.1876 C.3       3 UNK         0.1400 
     58 CB          5.3261  -13.2457  -41.7550 C.3       3 UNK        -0.1800 
     59 N           4.2902  -11.8105  -43.4374 N.am      3 UNK        -0.5000 
     60 C           3.5699  -10.7836  -43.9081 C.2       2 UNK         0.5000 
     61 O           2.6516  -10.2576  -43.2760 O.2       2 UNK        -0.5000 
     62 CA          3.8868  -10.2773  -45.3322 C.3       2 UNK         0.1400 
     63 CB          5.2608  -10.7304  -45.8765 C.3       2 UNK        -0.1800 
     64 N           2.8104  -10.6277  -46.2670 N.am      2 UNK        -0.5000 
     65 C           2.3607  -11.8594  -46.5584 C.2       1 UNK         0.5000 
     66 O           2.8946  -12.8841  -46.1366 O.2       1 UNK        -0.5000 
     67 C           0.6043  -21.8370  -49.4937 C.2       11 UNK         0.5000 
     68 O           0.2596  -21.9499  -50.6710 O.2       11 UNK        -0.5000 
     69 N          -0.0615  -22.3824  -48.4635 N.am      12 UNK        -0.5000 
     70 CA         -1.3134  -23.1472  -48.4893 C.3       12 UNK         0.1400 
     71 CB         -1.1982  -24.4002  -49.3812 C.3       12 UNK        -0.1800 
     72 C          -2.5569  -22.3018  -48.8311 C.2       12 UNK         0.5000 
     73 O          -3.6259  -22.8650  -49.0557 O.2       12 UNK        -0.5000 
     74 N          -2.4275  -20.9684  -48.8093 N.am      13 UNK        -0.5000 
     75 CA         -3.4956  -19.9998  -49.0672 C.3       13 UNK         0.1400 
     76 CB         -2.8937  -18.5900  -49.0775 C.3       13 UNK        -0.1800 
     77 C          -4.6744  -20.0815  -48.0760 C.2       13 UNK         0.5000 
     78 O          -5.7899  -19.7028  -48.4319 O.2       13 UNK        -0.5000 
     79 N          -4.4113  -20.5866  -46.8631 N.am      14 UNK        -0.5000 
     80 CA         -5.4077  -20.8609  -45.8285 C.3       14 UNK         0.1400 
     81 CB         -4.6813  -21.0878  -44.4925 C.3       14 UNK        -0.1800 
     82 C          -6.3265  -22.0604  -46.1456 C.2       14 UNK         0.5000 
     83 O          -7.3985  -22.1612  -45.5464 O.2       14 UNK        -0.5000 
     84 N          -5.9019  -22.9570  -47.0482 N.am      15 UNK        -0.5000 
     85 CA         -6.6757  -24.1227  -47.4763 C.3       15 UNK         0.1400 
     86 CB         -5.7184  -25.1674  -48.0715 C.3       15 UNK        -0.1800 
     87 C          -7.7588  -23.7432  -48.5026 C.2       15 UNK         0.5000 
     88 O          -7.6986  -22.6696  -49.1091 O.2       15 UNK        -0.5000 
     89 N          -8.7155  -24.6588  -48.7086 N.am      16 UNK        -0.5000 
     90 CA         -9.7758  -24.5575  -49.7138 C.3       16 UNK         0.1400 
     91 CB        -10.6880  -25.7896  -49.6163 C.3       16 UNK        -0.1800 
     92 C          -9.1918  -24.4198  -51.1317 C.2       16 UNK         0.5000 
     93 O          -8.3566  -25.2381  -51.5258 O.2       16 UNK        -0.5000 
     94 N          -9.5925  -23.3509  -51.8353 N.am      17 UNK        -0.5000 
     95 CA         -9.0973  -22.9259  -53.1528 C.3       17 UNK         0.1400 
     96 CB         -9.5648  -23.9113  -54.2447 C.3       17 UNK        -0.1800 
     97 C          -7.5694  -22.6878  -53.1904 C.2       17 UNK         0.5000 
     98 O          -6.9460  -22.8769  -54.2363 O.2       17 UNK        -0.5000 
     99 N          -6.9823  -22.3334  -52.0346 N.am      18 UNK        -0.5000 
    100 CA        -5.5441  -22.1937  -51.7766 C.3       18 UNK         0.1400 
    101 CB        -4.9745  -20.9808  -52.5398 C.3       18 UNK        -0.1800 
    102 C         -4.7462  -23.4880  -52.0530 C.2       18 UNK         0.5000 
    103 O         -3.5815  -23.4157  -52.4509 O.2       18 UNK        -0.5000 
    104 N         -5.4151  -24.6470  -51.9189 N.am      19 UNK        -0.5000 
    105 CA        -4.9566  -25.9911  -52.2940 C.3       19 UNK         0.1400 
    106 CB        -3.7881  -26.4390  -51.3913 C.3       19 UNK        -0.1800 
    107 C         -4.6186  -26.1286  -53.7975 C.2       19 UNK         0.5000 
    108 O         -3.8671  -27.0302  -54.1717 O.2       19 UNK        -0.5000 
    109 N         -5.1497  -25.2115  -54.6242 N.am      20 UNK        -0.5000 
    110 CA        -4.8106  -24.9675  -56.0298 C.3       20 UNK         0.1400 
    111 CB        -5.2286  -26.1597  -56.9155 C.3       20 UNK        -0.1800 
    112 C         -3.3366  -24.5457  -56.2393 C.2       20 UNK         0.5000 
    113 O         -2.8090  -24.7118  -57.3408 O.2       20 UNK        -0.5000 
    114 N         -2.6986  -24.0118  -55.1880 N.am      21 UNK        -0.5000 
    115 CA        -1.2986  -23.6094  -55.1625 C.3       21 UNK         0.1400 
    116 CB        -0.5749  -24.3612  -54.0281 C.3       21 UNK        -0.1800 
    117 C         -1.2015  -22.0848  -55.0132 C.2       21 UNK         0.5000 
    118 O         -0.9560  -21.3993  -56.0066 O.2       21 UNK        -0.5000 
    119 N         -1.3855  -21.5847  -53.7830 N.am      22 UNK        -0.5000 
    120 CA        -1.1028  -20.1977  -53.3725 C.3       22 UNK         0.1400 
    121 C          0.4017  -19.8364  -53.5684 C.2       22 UNK         0.5000 
    122 N          1.3046  -20.6097  -52.9806 N.am      22 UNK        -0.7600 
    123 O          0.7639  -18.8960  -54.2702 O.2       22 UNK        -0.5000 
    124 C124       -2.0940  -19.1628  -53.9879 C.3       23 UNK        -0.0398 
    125 S125       -2.7488  -17.9849  -52.7540 S.3       23 UNK        -0.2404 
    126 C126       -1.6158  -16.5626  -52.8821 C.3       23 UNK        -0.0205 
    127 H127       -0.5255   -8.5562  -48.7395 H         1 UNK         0.0600 
    128 H128       -0.3732   -7.7364  -47.1826 H         1 UNK         0.0600 
    129 H129       -1.8526   -8.6184  -47.5767 H         1 UNK         0.0600 
    130 H130        0.6127  -10.4464  -48.8148 H         1 UNK         0.3000 
    131 H131        1.5065  -12.3993  -48.4162 H         1 UNK         0.0600 
    132 H132       -0.2398  -12.7203  -45.9294 H         1 UNK         0.0800 
    133 H133        0.6258  -13.9863  -46.7511 H         1 UNK         0.0800 
    134 H134       -0.9869  -15.5838  -47.1334 H         1 UNK         0.0800 
    135 H135       -2.4539  -15.4488  -48.0551 H         1 UNK         0.0800 
    136 H136       -2.4660  -15.5491  -50.5034 H         1 UNK         0.1150 
    137 H137        1.0116  -17.1456  -52.4201 H         1 UNK         0.1150 
    138 H138        1.2031  -15.9398  -48.3135 H         1 UNK         0.1150 
    139 H139        3.0761  -17.2684  -51.3276 H         1 UNK         0.0800 
    140 H140        3.3391  -16.1643  -50.0028 H         1 UNK         0.0800 
    141 H141        0.7566  -19.1095  -48.9698 H         1 UNK         0.0800 
    142 H142        1.3388  -19.4239  -50.5824 H         1 UNK         0.0800 
    143 H143        2.6666  -21.3617  -49.7815 H         1 UNK         0.0600 
    144 H144        1.9873  -20.3598  -47.1384 H         1 UNK         0.3000 
    145 H145        3.5129  -23.1268  -45.4209 H         1 UNK         0.0600 
    146 H146        4.6464  -21.1898  -44.3480 H         1 UNK         0.0600 
    147 H147        4.1887  -20.1530  -45.6983 H         1 UNK         0.0600 
    148 H148        5.3057  -21.4873  -45.9502 H         1 UNK         0.0600 
    149 H149        2.1759  -20.8850  -44.3606 H         1 UNK         0.3000 
    150 H150       -1.0844  -22.3881  -44.0944 H         1 UNK         0.0600 
    151 H151        1.1311  -21.6158  -42.1220 H         1 UNK         0.0600 
    152 H152       -0.5847  -21.7588  -41.7496 H         1 UNK         0.0600 
    153 H153        0.3350  -23.1805  -42.2187 H         1 UNK         0.0600 
    154 H154        0.1697  -19.8002  -43.5168 H         1 UNK         0.3000 
    155 H155       -1.0955  -18.2117  -46.3929 H         1 UNK         0.0600 
    156 H156       -3.1587  -18.1369  -45.0234 H         1 UNK         0.0600 
    157 H157       -2.2282  -16.6637  -44.8135 H         1 UNK         0.0600 
    158 H158       -2.2077  -17.9026  -43.5584 H         1 UNK         0.0600 
    159 H159        0.1659  -17.1381  -44.0855 H         1 UNK         0.3000 
    160 H160        3.5286  -17.9512  -45.1728 H         1 UNK         0.0600 
    161 H161        1.9950  -15.3130  -45.1636 H         1 UNK         0.0600 
    162 H162        2.8891  -15.9781  -46.5237 H         1 UNK         0.0600 
    163 H163        3.7445  -15.4834  -45.0719 H         1 UNK         0.0600 
    164 H164        2.7800  -16.3875  -42.9880 H         1 UNK         0.3000 
    165 H165        2.5692  -19.0191  -40.5544 H         1 UNK         0.0600 
    166 H166        4.4082  -17.6079  -39.6703 H         1 UNK         0.0600 
    167 H167        4.9646  -18.5555  -41.0415 H         1 UNK         0.0600 
    168 H168        4.6165  -16.8420  -41.2436 H         1 UNK         0.0600 
    169 H169        2.2708  -16.0728  -40.9270 H         1 UNK         0.3000 
    170 H170       -1.1513  -16.1475  -40.0846 H         1 UNK         0.0600 
    171 H171       -0.1518  -16.1640  -37.7906 H         1 UNK         0.0600 
    172 H172        1.1240  -15.0782  -38.3285 H         1 UNK         0.0600 
    173 H173       -0.5537  -14.5326  -38.3013 H         1 UNK         0.0600 
    174 H174        0.5884  -13.9510  -40.4856 H         1 UNK         0.3000 
    175 H175        0.5881  -13.9292  -44.0424 H         1 UNK         0.0600 
    176 H176       -0.9311  -12.2073  -42.0196 H         1 UNK         0.0600 
    177 H177       -0.4870  -11.7283  -43.6550 H         1 UNK         0.0600 
    178 H178       -1.6414  -13.0284  -43.4058 H         1 UNK         0.0600 
    179 H179        1.6460  -11.9244  -42.6340 H         1 UNK         0.3000 
    180 H180        3.7690  -11.8138  -41.4071 H         1 UNK         0.0600 
    181 H181        5.1790  -13.7855  -40.8186 H         1 UNK         0.0600 
    182 H182        6.1361  -12.5340  -41.5952 H         1 UNK         0.0600 
    183 H183        5.6573  -13.9685  -42.5019 H         1 UNK         0.0600 
    184 H184        4.9796  -12.2202  -44.0508 H         1 UNK         0.3000 
    185 H185        3.9026   -9.1882  -45.2708 H         1 UNK         0.0600 
    186 H186        6.0657  -10.4335  -45.2029 H         1 UNK         0.0600 
    187 H187        5.3236  -11.8102  -46.0129 H         1 UNK         0.0600 
    188 H188        5.4653  -10.2673  -46.8418 H         1 UNK         0.0600 
    189 H189        2.2855   -9.8491  -46.6382 H         1 UNK         0.3000 
    190 H190        0.3268  -22.2398  -47.5406 H         1 UNK         0.3000 
    191 H191       -1.4640  -23.4902  -47.4648 H         1 UNK         0.0600 
    192 H192       -2.0499  -25.0634  -49.2273 H         1 UNK         0.0600 
    193 H193       -0.2980  -24.9699  -49.1516 H         1 UNK         0.0600 
    194 H194       -1.1772  -24.1446  -50.4410 H         1 UNK         0.0600 
    195 H195       -1.5338  -20.5936  -48.5313 H         1 UNK         0.3000 
    196 H196       -3.8884  -20.2049  -50.0616 H         1 UNK         0.0600 
    197 H197       -3.6236  -17.8592  -49.4275 H         1 UNK         0.0600 
    198 H198       -2.0326  -18.5346  -49.7435 H         1 UNK         0.0600 
    199 H199       -2.5734  -18.2802  -48.0846 H         1 UNK         0.0600 
    200 H200       -3.4469  -20.8169  -46.6382 H         1 UNK         0.3000 
    201 H201       -6.0447  -19.9800  -45.7262 H         1 UNK         0.0600 
    202 H202       -5.3897  -21.2977  -43.6901 H         1 UNK         0.0600 
    203 H203       -4.1121  -20.2077  -44.1957 H         1 UNK         0.0600 
    204 H204       -3.9899  -21.9295  -44.5498 H         1 UNK         0.0600 
    205 H205       -5.0486  -22.7749  -47.5646 H         1 UNK         0.3000 
    206 H206       -7.1632  -24.5605  -46.6026 H         1 UNK         0.0600 
    207 H207       -5.2916  -24.8248  -49.0132 H         1 UNK         0.0600 
    208 H208       -4.8964  -25.3899  -47.3910 H         1 UNK         0.0600 
    209 H209       -6.2355  -26.1058  -48.2746 H         1 UNK         0.0600 
    210 H210       -8.6761  -25.5264  -48.1942 H         1 UNK         0.3000 
    211 H211      -10.3696  -23.6708  -49.4823 H         1 UNK         0.0600 
    212 H212      -10.1394  -26.7131  -49.8069 H         1 UNK         0.0600 
    213 H213      -11.4982  -25.7332  -50.3444 H         1 UNK         0.0600 
    214 H214      -11.1440  -25.8670  -48.6291 H         1 UNK         0.0600 
    215 H215      -10.2613  -22.7249  -51.4078 H         1 UNK         0.3000 
    216 H216       -9.5581  -21.9590  -53.3590 H         1 UNK         0.0600 
    217 H217      -10.6435  -24.0619  -54.2044 H         1 UNK         0.0600 
    218 H218       -9.0859  -24.8857  -54.1427 H         1 UNK         0.0600 
    219 H219       -9.3291  -23.5346  -55.2407 H         1 UNK         0.0600 
    220 H220       -7.5651  -22.2515  -51.2082 H         1 UNK         0.3000 
    221 H221       -5.4482  -21.9950  -50.7096 H         1 UNK         0.0600 
    222 H222       -5.5130  -20.0669  -52.2897 H         1 UNK         0.0600 
    223 H223       -3.9275  -20.8189  -52.2861 H         1 UNK         0.0600 
    224 H224       -5.0246  -21.1179  -53.6200 H         1 UNK         0.0600 
    225 H225       -6.3888  -24.6025  -51.6369 H         1 UNK         0.3000 
    226 H226       -5.7976  -26.6605  -52.1087 H         1 UNK         0.0600 
    227 H227       -4.0404  -26.3418  -50.3364 H         1 UNK         0.0600 
    228 H228       -3.5371  -27.4859  -51.5648 H         1 UNK         0.0600 
    229 H229       -2.8872  -25.8538  -51.5769 H         1 UNK         0.0600 
    230 H230       -5.7629  -24.5098  -54.2214 H         1 UNK         0.3000 
    231 H231       -5.4106  -24.1089  -56.3341 H         1 UNK         0.0600 
    232 H232       -5.1339  -25.9127  -57.9734 H         1 UNK         0.0600 
    233 H233       -6.2687  -26.4349  -56.7406 H         1 UNK         0.0600 
    234 H234       -4.6120  -27.0396  -56.7308 H         1 UNK         0.0600 
    235 H235       -3.2042  -23.8787  -54.3169 H         1 UNK         0.3000 
    236 H236       -0.8018  -23.8737  -56.0983 H         1 UNK         0.0600 
    237 H237       -0.5527  -25.4327  -54.2271 H         1 UNK         0.0600 
    238 H238        0.4590  -24.0265  -53.9339 H         1 UNK         0.0600 
    239 H239       -1.0571  -24.2198  -53.0605 H         1 UNK         0.0600 
    240 H240       -1.6271  -22.2237  -53.0363 H         1 UNK         0.3000 
    241 H241       -1.2549  -20.2013  -52.2921 H         1 UNK         0.0600 
    242 H242        1.0048  -21.3442  -52.3468 H         1 UNK         0.3800 
    243 H243        2.2847  -20.4236  -53.1171 H         1 UNK         0.3800 
    244 H244       -2.9648  -19.6816  -54.3900 H         1 UNK         0.0800 
    245 H245       -1.6766  -18.6321  -54.8444 H         1 UNK         0.0800 
    246 H246       -2.2023  -15.6634  -53.0754 H         1 UNK         0.0800 
    247 H247       -0.9493  -16.6782  -53.7378 H         1 UNK         0.0800 
@<TRIPOS>BOND
     1    1    2 1    
     2    1  127 1    
     3    1  128 1    
     4    1  129 1    
     5    2    3 2    
     6    2    4 am   BACKBONE|DICT|INTERRES
     7    4    5 1    
     8    4  130 1    
     9    5    6 1    
    10    5   65 1    
    11    5  131 1    
    12    6    7 1    
    13    6  132 1    
    14    6  133 1    
    15    7    8 1    
    16    8    9 1    
    17    8  134 1    
    18    8  135 1    
    19    9   10 ar   
    20    9   14 ar   
    21   10   11 ar   
    22   10  136 1    
    23   11   12 ar   
    24   11  126 1    
    25   12   13 ar   
    26   12  137 1    
    27   13   14 ar   
    28   13   15 1    
    29   14  138 1    
    30   15   16 1    
    31   15  139 1    
    32   15  140 1    
    33   16   17 1    
    34   17   18 1    
    35   17  141 1    
    36   17  142 1    
    37   18   19 1    
    38   18   67 1    
    39   18  143 1    
    40   19   20 am   BACKBONE|DICT|INTERRES
    41   19  144 1    
    42   20   21 2    
    43   20   22 1    
    44   22   23 1    
    45   22   24 1    
    46   22  145 1    
    47   23  146 1    
    48   23  147 1    
    49   23  148 1    
    50   24   25 am   BACKBONE|DICT|INTERRES
    51   24  149 1    
    52   25   26 2    
    53   25   27 1    
    54   27   28 1    
    55   27   29 1    
    56   27  150 1    
    57   28  151 1    
    58   28  152 1    
    59   28  153 1    
    60   29   30 am   BACKBONE|DICT|INTERRES
    61   29  154 1    
    62   30   31 2    
    63   30   32 1    
    64   32   33 1    
    65   32   34 1    
    66   32  155 1    
    67   33  156 1    
    68   33  157 1    
    69   33  158 1    
    70   34   35 am   BACKBONE|DICT|INTERRES
    71   34  159 1    
    72   35   36 2    
    73   35   37 1    
    74   37   38 1    
    75   37   39 1    
    76   37  160 1    
    77   38  161 1    
    78   38  162 1    
    79   38  163 1    
    80   39   40 am   BACKBONE|DICT|INTERRES
    81   39  164 1    
    82   40   41 2    
    83   40   42 1    
    84   42   43 1    
    85   42   44 1    
    86   42  165 1    
    87   43  166 1    
    88   43  167 1    
    89   43  168 1    
    90   44   45 am   BACKBONE|DICT|INTERRES
    91   44  169 1    
    92   45   46 2    
    93   45   47 1    
    94   47   48 1    
    95   47   49 1    
    96   47  170 1    
    97   48  171 1    
    98   48  172 1    
    99   48  173 1    
   100   49   50 am   BACKBONE|DICT|INTERRES
   101   49  174 1    
   102   50   51 2    
   103   50   52 1    
   104   52   53 1    
   105   52   54 1    
   106   52  175 1    
   107   53  176 1    
   108   53  177 1    
   109   53  178 1    
   110   54   55 am   BACKBONE|DICT|INTERRES
   111   54  179 1    
   112   55   56 2    
   113   55   57 1    
   114   57   58 1    
   115   57   59 1    
   116   57  180 1    
   117   58  181 1    
   118   58  182 1    
   119   58  183 1    
   120   59   60 am   BACKBONE|DICT|INTERRES
   121   59  184 1    
   122   60   61 2    
   123   60   62 1    
   124   62   63 1    
   125   62   64 1    
   126   62  185 1    
   127   63  186 1    
   128   63  187 1    
   129   63  188 1    
   130   64   65 am   BACKBONE|DICT|INTERRES
   131   64  189 1    
   132   65   66 2    
   133   67   68 2    
   134   67   69 am   BACKBONE|DICT|INTERRES
   135   69   70 1    
   136   69  190 1    
   137   70   71 1    
   138   70   72 1    
   139   70  191 1    
   140   71  192 1    
   141   71  193 1    
   142   71  194 1    
   143   72   73 2    
   144   72   74 am   BACKBONE|DICT|INTERRES
   145   74   75 1    
   146   74  195 1    
   147   75   76 1    
   148   75   77 1    
   149   75  196 1    
   150   76  197 1    
   151   76  198 1    
   152   76  199 1    
   153   77   78 2    
   154   77   79 am   BACKBONE|DICT|INTERRES
   155   79   80 1    
   156   79  200 1    
   157   80   81 1    
   158   80   82 1    
   159   80  201 1    
   160   81  202 1    
   161   81  203 1    
   162   81  204 1    
   163   82   83 2    
   164   82   84 am   BACKBONE|DICT|INTERRES
   165   84   85 1    
   166   84  205 1    
   167   85   86 1    
   168   85   87 1    
   169   85  206 1    
   170   86  207 1    
   171   86  208 1    
   172   86  209 1    
   173   87   88 2    
   174   87   89 am   BACKBONE|DICT|INTERRES
   175   89   90 1    
   176   89  210 1    
   177   90   91 1    
   178   90   92 1    
   179   90  211 1    
   180   91  212 1    
   181   91  213 1    
   182   91  214 1    
   183   92   93 2    
   184   92   94 am   BACKBONE|DICT|INTERRES
   185   94   95 1    
   186   94  215 1    
   187   95   96 1    
   188   95   97 1    
   189   95  216 1    
   190   96  217 1    
   191   96  218 1    
   192   96  219 1    
   193   97   98 2    
   194   97   99 am   BACKBONE|DICT|INTERRES
   195   99  100 1    
   196   99  220 1    
   197  100  101 1    
   198  100  102 1    
   199  100  221 1    
   200  101  222 1    
   201  101  223 1    
   202  101  224 1    
   203  102  103 2    
   204  102  104 am   BACKBONE|DICT|INTERRES
   205  104  105 1    
   206  104  225 1    
   207  105  106 1    
   208  105  107 1    
   209  105  226 1    
   210  106  227 1    
   211  106  228 1    
   212  106  229 1    
   213  107  108 2    
   214  107  109 am   BACKBONE|DICT|INTERRES
   215  109  110 1    
   216  109  230 1    
   217  110  111 1    
   218  110  112 1    
   219  110  231 1    
   220  111  232 1    
   221  111  233 1    
   222  111  234 1    
   223  112  113 2    
   224  112  114 am   BACKBONE|DICT|INTERRES
   225  114  115 1    
   226  114  235 1    
   227  115  116 1    
   228  115  117 1    
   229  115  236 1    
   230  116  237 1    
   231  116  238 1    
   232  116  239 1    
   233  117  118 2    
   234  117  119 am   BACKBONE|DICT|INTERRES
   235  119  120 1    
   236  119  240 1    
   237  120  121 1    
   238  120  124 1    
   239  120  241 1    
   240  121  122 am   BACKBONE|DICT|INTERRES
   241  121  123 2    
   242  122  242 1    
   243  122  243 1    
   244  124  125 1    
   245  124  244 1    
   246  124  245 1    
   247  125  126 1    
   248  126  246 1    
   249  126  247 1    
@<TRIPOS>SUBSTRUCTURE
     1 UNK         1 GROUP             0       ****    0 ROOT    
