@<TRIPOS>MOLECULE
3R540
247   249    1
SMALL
USER_CHARGES


@<TRIPOS>ATOM
      1 CA          3.1758  -11.9439  -52.2351 C.3       0 UNK        -0.1800 
      2 C           4.2270  -11.7856  -51.1455 C.2       0 UNK         0.5000 
      3 O           4.9652  -10.7999  -51.1425 O.2       0 UNK        -0.5000 
      4 N           4.3015  -12.7558  -50.2279 N.am      1 UNK        -0.5000 
      5 CA          5.1780  -12.7415  -49.0541 C.3       1 UNK         0.1400 
      6 C6          5.4388  -14.1690  -48.5033 C.3       23 UNK        -0.0398 
      7 S7          3.9409  -15.1744  -48.1931 S.3       23 UNK        -0.2404 
      8 C8          3.9343  -16.2139  -49.6908 C.3       23 UNK        -0.0205 
      9 C9          2.7895  -17.2158  -49.6993 C.ar      23 UNK        -0.0193 
     10 C10         1.4641  -16.7745  -49.7471 C.ar      23 UNK        -0.1150 
     11 C11         0.4092  -17.6909  -49.7856 C.ar      23 UNK        -0.0193 
     12 C12         0.6891  -19.0611  -49.7773 C.ar      23 UNK        -0.1150 
     13 C13         2.0117  -19.5162  -49.7463 C.ar      23 UNK        -0.0193 
     14 C14         3.0559  -18.5880  -49.7039 C.ar      23 UNK        -0.1150 
     15 C15         2.3145  -21.0088  -49.7939 C.3       23 UNK        -0.0205 
     16 S16         3.1727  -21.6204  -48.3030 S.3       23 UNK        -0.2404 
     17 C17         1.9811  -21.2293  -46.9778 C.3       23 UNK        -0.0398 
     18 CA          1.0680  -22.4123  -46.5764 C.3       11 UNK         0.1400 
     19 N           0.3801  -22.1502  -45.3106 N.am      11 UNK        -0.5000 
     20 C          -0.4110  -23.0158  -44.6614 C.2       10 UNK         0.5000 
     21 O          -0.5957  -24.1788  -45.0183 O.2       10 UNK        -0.5000 
     22 CA         -1.1663  -22.4740  -43.4356 C.3       10 UNK         0.1400 
     23 CB         -0.2663  -22.4867  -42.1914 C.3       10 UNK        -0.1800 
     24 N          -1.6944  -21.1260  -43.6547 N.am      10 UNK        -0.5000 
     25 C          -2.6296  -20.8158  -44.5648 C.2       9 UNK         0.5000 
     26 O          -3.1824  -21.6473  -45.2846 O.2       9 UNK        -0.5000 
     27 CA         -2.9688  -19.3233  -44.7374 C.3       9 UNK         0.1400 
     28 CB         -3.8892  -18.8322  -43.6109 C.3       9 UNK        -0.1800 
     29 N          -1.7738  -18.4807  -44.8055 N.am      9 UNK        -0.5000 
     30 C          -0.8541  -18.5563  -45.7781 C.2       8 UNK         0.5000 
     31 O          -0.9464  -19.3114  -46.7448 O.2       8 UNK        -0.5000 
     32 CA          0.4018  -17.6807  -45.6232 C.3       8 UNK         0.1400 
     33 CB          0.1477  -16.2624  -46.1475 C.3       8 UNK        -0.1800 
     34 N           0.8750  -17.6151  -44.2403 N.am      8 UNK        -0.5000 
     35 C           1.3407  -18.6638  -43.5482 C.2       7 UNK         0.5000 
     36 O           1.4583  -19.7955  -44.0169 O.2       7 UNK        -0.5000 
     37 CA          1.6821  -18.4161  -42.0686 C.3       7 UNK         0.1400 
     38 CB          2.9832  -17.6143  -41.9324 C.3       7 UNK        -0.1800 
     39 N           0.6049  -17.7243  -41.3590 N.am      7 UNK        -0.5000 
     40 C          -0.6117  -18.2428  -41.1402 C.2       6 UNK         0.5000 
     41 O          -0.9452  -19.3736  -41.4902 O.2       6 UNK        -0.5000 
     42 CA         -1.6452  -17.3380  -40.4436 C.3       6 UNK         0.1400 
     43 CB         -1.5511  -17.4919  -38.9184 C.3       6 UNK        -0.1800 
     44 N          -1.5353  -15.9191  -40.7930 N.am      6 UNK        -0.5000 
     45 C          -1.6314  -15.4126  -42.0300 C.2       5 UNK         0.5000 
     46 O          -1.7688  -16.1081  -43.0392 O.2       5 UNK        -0.5000 
     47 CA         -1.5496  -13.8832  -42.1751 C.3       5 UNK         0.1400 
     48 CB         -1.0751  -13.1408  -40.9078 C.3       5 UNK        -0.1800 
     49 N          -0.6544  -13.5795  -43.2822 N.am      5 UNK        -0.5000 
     50 C          -0.7639  -12.5617  -44.1365 C.2       4 UNK         0.5000 
     51 O          -1.6470  -11.7045  -44.0663 O.2       4 UNK        -0.5000 
     52 CA          0.3125  -12.4942  -45.2417 C.3       4 UNK         0.1400 
     53 CB          0.1010  -11.3117  -46.2038 C.3       4 UNK        -0.1800 
     54 N           1.6726  -12.4183  -44.7052 N.am      4 UNK        -0.5000 
     55 C           2.3773  -13.3985  -44.1246 C.2       3 UNK         0.5000 
     56 O           1.9260  -14.5290  -43.9219 O.2       3 UNK        -0.5000 
     57 CA          3.8230  -13.0490  -43.7014 C.3       3 UNK         0.1400 
     58 CB          4.6636  -14.2968  -43.3804 C.3       3 UNK        -0.1800 
     59 N           4.5323  -12.2622  -44.7137 N.am      3 UNK        -0.5000 
     60 C           4.4209  -10.9408  -44.9041 C.2       2 UNK         0.5000 
     61 O           3.6786  -10.2208  -44.2359 O.2       2 UNK        -0.5000 
     62 CA          5.2467  -10.3251  -46.0503 C.3       2 UNK         0.1400 
     63 CB          6.5612   -9.7419  -45.5098 C.3       2 UNK        -0.1800 
     64 N           5.5505  -11.2689  -47.1307 N.am      2 UNK        -0.5000 
     65 C           4.6404  -11.7823  -47.9703 C.2       1 UNK         0.5000 
     66 O           3.4348  -11.5296  -47.9053 O.2       1 UNK        -0.5000 
     67 C           0.0675  -22.7697  -47.6939 C.2       11 UNK         0.5000 
     68 O           0.2359  -23.7965  -48.3514 O.2       11 UNK        -0.5000 
     69 N          -0.9750  -21.9426  -47.8620 N.am      12 UNK        -0.5000 
     70 CA         -2.0478  -22.1536  -48.8322 C.3       12 UNK         0.1400 
     71 CB         -2.9914  -20.9436  -48.8391 C.3       12 UNK        -0.1800 
     72 C          -2.8324  -23.4497  -48.5754 C.2       12 UNK         0.5000 
     73 O          -3.1294  -24.1688  -49.5280 O.2       12 UNK        -0.5000 
     74 N          -3.1300  -23.7425  -47.3025 N.am      13 UNK        -0.5000 
     75 CA         -3.7926  -24.9735  -46.8724 C.3       13 UNK         0.1400 
     76 CB         -4.1543  -24.8764  -45.3832 C.3       13 UNK        -0.1800 
     77 C          -2.9502  -26.2298  -47.1588 C.2       13 UNK         0.5000 
     78 O          -3.4849  -27.2055  -47.6857 O.2       13 UNK        -0.5000 
     79 N          -1.6459  -26.1694  -46.8536 N.am      14 UNK        -0.5000 
     80 CA         -0.6749  -27.2329  -47.1241 C.3       14 UNK         0.1400 
     81 CB          0.6561  -26.8998  -46.4333 C.3       14 UNK        -0.1800 
     82 C          -0.4595  -27.4825  -48.6289 C.2       14 UNK         0.5000 
     83 O          -0.3374  -28.6356  -49.0435 O.2       14 UNK        -0.5000 
     84 N          -0.4468  -26.4019  -49.4203 N.am      15 UNK        -0.5000 
     85 CA         -0.3460  -26.4302  -50.8807 C.3       15 UNK         0.1400 
     86 CB          0.0657  -25.0318  -51.3702 C.3       15 UNK        -0.1800 
     87 C          -1.6449  -26.8748  -51.5848 C.2       15 UNK         0.5000 
     88 O          -1.6038  -27.1622  -52.7816 O.2       15 UNK        -0.5000 
     89 N          -2.7680  -26.8884  -50.8490 N.am      16 UNK        -0.5000 
     90 CA         -4.1442  -27.0910  -51.3190 C.3       16 UNK         0.1400 
     91 CB         -4.3429  -28.5158  -51.8757 C.3       16 UNK        -0.1800 
     92 C          -4.5986  -25.9825  -52.2956 C.2       16 UNK         0.5000 
     93 O          -5.3675  -26.2398  -53.2232 O.2       16 UNK        -0.5000 
     94 N          -4.1033  -24.7630  -52.0556 N.am      17 UNK        -0.5000 
     95 CA         -4.3281  -23.5593  -52.8521 C.3       17 UNK         0.1400 
     96 CB         -2.9611  -22.9351  -53.1733 C.3       17 UNK        -0.1800 
     97 C          -5.2257  -22.5450  -52.1197 C.2       17 UNK         0.5000 
     98 O          -5.5166  -21.4869  -52.6789 O.2       17 UNK        -0.5000 
     99 N          -5.6593  -22.8664  -50.8907 N.am      18 UNK        -0.5000 
    100 CA        -6.5268  -22.0361  -50.0481 C.3       18 UNK         0.1400 
    101 CB        -6.6859  -22.6976  -48.6713 C.3       18 UNK        -0.1800 
    102 C         -7.9027  -21.7438  -50.6747 C.2       18 UNK         0.5000 
    103 O         -8.4437  -20.6589  -50.4641 O.2       18 UNK        -0.5000 
    104 N         -8.4095  -22.6806  -51.4888 N.am      19 UNK        -0.5000 
    105 CA        -9.6360  -22.5351  -52.2792 C.3       19 UNK         0.1400 
    106 CB        -9.9881  -23.8941  -52.9028 C.3       19 UNK        -0.1800 
    107 C         -9.5405  -21.4493  -53.3727 C.2       19 UNK         0.5000 
    108 O        -10.5681  -20.8998  -53.7704 O.2       19 UNK        -0.5000 
    109 N         -8.3139  -21.1502  -53.8197 N.am      20 UNK        -0.5000 
    110 CA        -7.9857  -20.0876  -54.7700 C.3       20 UNK         0.1400 
    111 CB        -7.0291  -20.6678  -55.8265 C.3       20 UNK        -0.1800 
    112 C         -7.3485  -18.8707  -54.0674 C.2       20 UNK         0.5000 
    113 O         -6.8796  -17.9610  -54.7537 O.2       20 UNK        -0.5000 
    114 N         -7.2961  -18.8877  -52.7242 N.am      21 UNK        -0.5000 
    115 CA        -6.6517  -17.9078  -51.8408 C.3       21 UNK         0.1400 
    116 CB        -7.4797  -16.6072  -51.7983 C.3       21 UNK        -0.1800 
    117 C         -5.1647  -17.6688  -52.1894 C.2       21 UNK         0.5000 
    118 O         -4.7085  -16.5261  -52.1678 O.2       21 UNK        -0.5000 
    119 N         -4.4721  -18.7574  -52.5566 N.am      22 UNK        -0.5000 
    120 CA        -3.1128  -18.8225  -53.1236 C.3       22 UNK         0.1400 
    121 C         -2.8887  -18.0741  -54.4755 C.2       22 UNK         0.5000 
    122 N         -3.9266  -17.6361  -55.1796 N.am      22 UNK        -0.7600 
    123 O         -1.7557  -17.9335  -54.9279 O.2       22 UNK        -0.5000 
    124 C124       -1.9679  -18.6513  -52.0798 C.3       23 UNK        -0.0398 
    125 S125       -1.6007  -16.9427  -51.5448 S.3       23 UNK        -0.2404 
    126 C126       -1.0279  -17.1916  -49.8358 C.3       23 UNK        -0.0205 
    127 H127        3.6506  -11.9571  -53.2162 H         1 UNK         0.0600 
    128 H128        2.4757  -11.1090  -52.2047 H         1 UNK         0.0600 
    129 H129        2.6082  -12.8678  -52.1198 H         1 UNK         0.0600 
    130 H130        3.6290  -13.5080  -50.2458 H         1 UNK         0.3000 
    131 H131        6.1440  -12.3440  -49.3738 H         1 UNK         0.0600 
    132 H132        6.0148  -14.1251  -47.5776 H         1 UNK         0.0800 
    133 H133        6.0808  -14.7041  -49.2041 H         1 UNK         0.0800 
    134 H134        3.8573  -15.5847  -50.5779 H         1 UNK         0.0800 
    135 H135        4.8911  -16.7333  -49.7647 H         1 UNK         0.0800 
    136 H136        1.2544  -15.7141  -49.7568 H         1 UNK         0.1150 
    137 H137       -0.1235  -19.7723  -49.8059 H         1 UNK         0.1150 
    138 H138        4.0778  -18.9399  -49.6836 H         1 UNK         0.1150 
    139 H139        1.4027  -21.5856  -49.9520 H         1 UNK         0.0800 
    140 H140        2.9456  -21.2078  -50.6610 H         1 UNK         0.0800 
    141 H141        1.3959  -20.3502  -47.2427 H         1 UNK         0.0800 
    142 H142        2.5796  -20.9300  -46.1170 H         1 UNK         0.0800 
    143 H143        1.7005  -23.2871  -46.4119 H         1 UNK         0.0600 
    144 H144        0.5189  -21.2282  -44.9065 H         1 UNK         0.3000 
    145 H145       -2.0129  -23.1372  -43.2477 H         1 UNK         0.0600 
    146 H146       -0.8227  -22.1931  -41.3011 H         1 UNK         0.0600 
    147 H147        0.1358  -23.4841  -42.0094 H         1 UNK         0.0600 
    148 H148        0.5780  -21.8048  -42.2970 H         1 UNK         0.0600 
    149 H149       -1.3159  -20.3910  -43.0630 H         1 UNK         0.3000 
    150 H150       -3.5044  -19.2128  -45.6826 H         1 UNK         0.0600 
    151 H151       -4.8177  -19.4038  -43.5910 H         1 UNK         0.0600 
    152 H152       -4.1538  -17.7832  -43.7456 H         1 UNK         0.0600 
    153 H153       -3.4203  -18.9364  -42.6332 H         1 UNK         0.0600 
    154 H154       -1.6485  -17.7939  -44.0678 H         1 UNK         0.3000 
    155 H155        1.1923  -18.1257  -46.2310 H         1 UNK         0.0600 
    156 H156       -0.5584  -15.7207  -45.5180 H         1 UNK         0.0600 
    157 H157       -0.2629  -16.2854  -47.1552 H         1 UNK         0.0600 
    158 H158        1.0756  -15.6926  -46.1941 H         1 UNK         0.0600 
    159 H159        0.8206  -16.7143  -43.7864 H         1 UNK         0.3000 
    160 H160        1.8302  -19.3884  -41.5938 H         1 UNK         0.0600 
    161 H161        2.8767  -16.6160  -42.3543 H         1 UNK         0.0600 
    162 H162        3.8044  -18.1071  -42.4544 H         1 UNK         0.0600 
    163 H163        3.2765  -17.5092  -40.8878 H         1 UNK         0.0600 
    164 H164        0.7911  -16.7835  -41.0455 H         1 UNK         0.3000 
    165 H165       -2.6358  -17.6734  -40.7556 H         1 UNK         0.0600 
    166 H166       -2.3435  -16.9372  -38.4156 H         1 UNK         0.0600 
    167 H167       -1.6522  -18.5376  -38.6244 H         1 UNK         0.0600 
    168 H168       -0.5944  -17.1342  -38.5356 H         1 UNK         0.0600 
    169 H169       -1.4128  -15.2777  -40.0229 H         1 UNK         0.3000 
    170 H170       -2.5578  -13.5446  -42.4214 H         1 UNK         0.0600 
    171 H171       -1.7616  -13.2933  -40.0743 H         1 UNK         0.0600 
    172 H172       -0.0822  -13.4672  -40.5954 H         1 UNK         0.0600 
    173 H173       -1.0268  -12.0657  -41.0820 H         1 UNK         0.0600 
    174 H174        0.1186  -14.2241  -43.4227 H         1 UNK         0.3000 
    175 H175        0.2288  -13.4091  -45.8289 H         1 UNK         0.0600 
    176 H176        0.1980  -10.3537  -45.6917 H         1 UNK         0.0600 
    177 H177        0.8268  -11.3317  -47.0167 H         1 UNK         0.0600 
    178 H178       -0.8904  -11.3462  -46.6573 H         1 UNK         0.0600 
    179 H179        2.1241  -11.5143  -44.7733 H         1 UNK         0.3000 
    180 H180        3.7515  -12.4559  -42.7875 H         1 UNK         0.0600 
    181 H181        4.6796  -14.9994  -44.2148 H         1 UNK         0.0600 
    182 H182        4.2648  -14.8180  -42.5111 H         1 UNK         0.0600 
    183 H183        5.6941  -14.0310  -43.1442 H         1 UNK         0.0600 
    184 H184        5.1327  -12.7790  -45.3382 H         1 UNK         0.3000 
    185 H185        4.6594   -9.5066  -46.4722 H         1 UNK         0.0600 
    186 H186        6.3702   -9.0136  -44.7204 H         1 UNK         0.0600 
    187 H187        7.2045  -10.5174  -45.0918 H         1 UNK         0.0600 
    188 H188        7.1179   -9.2290  -46.2942 H         1 UNK         0.0600 
    189 H189        6.5239  -11.5116  -47.2491 H         1 UNK         0.3000 
    190 H190       -1.0316  -21.0956  -47.3004 H         1 UNK         0.3000 
    191 H191       -1.5853  -22.2301  -49.8181 H         1 UNK         0.0600 
    192 H192       -2.4393  -20.0128  -48.9468 H         1 UNK         0.0600 
    193 H193       -3.6897  -21.0032  -49.6730 H         1 UNK         0.0600 
    194 H194       -3.5733  -20.8755  -47.9194 H         1 UNK         0.0600 
    195 H195       -2.9027  -23.0671  -46.5777 H         1 UNK         0.3000 
    196 H196       -4.7221  -25.0641  -47.4383 H         1 UNK         0.0600 
    197 H197       -4.6744  -25.7745  -45.0482 H         1 UNK         0.0600 
    198 H198       -4.8126  -24.0285  -45.1934 H         1 UNK         0.0600 
    199 H199       -3.2685  -24.7572  -44.7594 H         1 UNK         0.0600 
    200 H200       -1.2888  -25.3391  -46.3875 H         1 UNK         0.3000 
    201 H201       -1.0616  -28.1562  -46.6880 H         1 UNK         0.0600 
    202 H202        0.5272  -26.8075  -45.3548 H         1 UNK         0.0600 
    203 H203        1.0766  -25.9628  -46.8002 H         1 UNK         0.0600 
    204 H204        1.3947  -27.6832  -46.6072 H         1 UNK         0.0600 
    205 H205       -0.4747  -25.4821  -48.9877 H         1 UNK         0.3000 
    206 H206        0.4383  -27.1364  -51.1607 H         1 UNK         0.0600 
    207 H207        1.0155  -24.7237  -50.9325 H         1 UNK         0.0600 
    208 H208        0.1865  -25.0128  -52.4540 H         1 UNK         0.0600 
    209 H209       -0.6813  -24.2810  -51.1102 H         1 UNK         0.0600 
    210 H210       -2.6830  -26.6198  -49.8772 H         1 UNK         0.3000 
    211 H211       -4.7782  -26.9930  -50.4367 H         1 UNK         0.0600 
    212 H212       -3.7994  -28.6690  -52.8082 H         1 UNK         0.0600 
    213 H213       -5.3965  -28.7117  -52.0776 H         1 UNK         0.0600 
    214 H214       -4.0049  -29.2673  -51.1621 H         1 UNK         0.0600 
    215 H215       -3.5298  -24.6413  -51.2222 H         1 UNK         0.3000 
    216 H216       -4.8213  -23.8134  -53.7922 H         1 UNK         0.0600 
    217 H217       -3.0658  -22.1210  -53.8899 H         1 UNK         0.0600 
    218 H218       -2.2884  -23.6682  -53.6192 H         1 UNK         0.0600 
    219 H219       -2.4767  -22.5373  -52.2805 H         1 UNK         0.0600 
    220 H220       -5.3482  -23.7424  -50.4964 H         1 UNK         0.3000 
    221 H221       -6.0332  -21.0729  -49.9077 H         1 UNK         0.0600 
    222 H222       -7.0963  -23.7048  -48.7518 H         1 UNK         0.0600 
    223 H223       -5.7306  -22.7629  -48.1525 H         1 UNK         0.0600 
    224 H224       -7.3558  -22.1193  -48.0334 H         1 UNK         0.0600 
    225 H225       -7.8942  -23.5405  -51.6071 H         1 UNK         0.3000 
    226 H226      -10.4425  -22.2481  -51.6012 H         1 UNK         0.0600 
    227 H227      -10.1361  -24.6543  -52.1355 H         1 UNK         0.0600 
    228 H228      -10.9121  -23.8323  -53.4792 H         1 UNK         0.0600 
    229 H229       -9.2039  -24.2433  -53.5759 H         1 UNK         0.0600 
    230 H230       -7.5173  -21.6257  -53.4136 H         1 UNK         0.3000 
    231 H231       -8.8856  -19.7353  -55.2778 H         1 UNK         0.0600 
    232 H232       -7.4711  -21.5295  -56.3269 H         1 UNK         0.0600 
    233 H233       -6.0845  -20.9856  -55.3830 H         1 UNK         0.0600 
    234 H234       -6.7984  -19.9309  -56.5968 H         1 UNK         0.0600 
    235 H235       -7.7219  -19.6729  -52.2485 H         1 UNK         0.3000 
    236 H236       -6.6631  -18.3410  -50.8397 H         1 UNK         0.0600 
    237 H237       -7.0805  -15.9118  -51.0591 H         1 UNK         0.0600 
    238 H238       -7.4804  -16.0975  -52.7623 H         1 UNK         0.0600 
    239 H239       -8.5154  -16.8095  -51.5252 H         1 UNK         0.0600 
    240 H240       -4.9706  -19.6430  -52.5707 H         1 UNK         0.3000 
    241 H241       -3.0457  -19.8643  -53.4325 H         1 UNK         0.0600 
    242 H242       -3.7614  -17.1712  -56.0578 H         1 UNK         0.3800 
    243 H243       -4.8787  -17.7470  -54.8479 H         1 UNK         0.3800 
    244 H244       -2.1984  -19.2566  -51.2044 H         1 UNK         0.0800 
    245 H245       -1.0431  -19.0675  -52.4825 H         1 UNK         0.0800 
    246 H246       -1.6937  -17.8699  -49.3028 H         1 UNK         0.0800 
    247 H247       -1.1017  -16.2350  -49.3179 H         1 UNK         0.0800 
@<TRIPOS>BOND
     1    1    2 1    
     2    1  127 1    
     3    1  128 1    
     4    1  129 1    
     5    2    3 2    
     6    2    4 am   BACKBONE|DICT|INTERRES
     7    4    5 1    
     8    4  130 1    
     9    5    6 1    
    10    5   65 1    
    11    5  131 1    
    12    6    7 1    
    13    6  132 1    
    14    6  133 1    
    15    7    8 1    
    16    8    9 1    
    17    8  134 1    
    18    8  135 1    
    19    9   10 ar   
    20    9   14 ar   
    21   10   11 ar   
    22   10  136 1    
    23   11   12 ar   
    24   11  126 1    
    25   12   13 ar   
    26   12  137 1    
    27   13   14 ar   
    28   13   15 1    
    29   14  138 1    
    30   15   16 1    
    31   15  139 1    
    32   15  140 1    
    33   16   17 1    
    34   17   18 1    
    35   17  141 1    
    36   17  142 1    
    37   18   19 1    
    38   18   67 1    
    39   18  143 1    
    40   19   20 am   BACKBONE|DICT|INTERRES
    41   19  144 1    
    42   20   21 2    
    43   20   22 1    
    44   22   23 1    
    45   22   24 1    
    46   22  145 1    
    47   23  146 1    
    48   23  147 1    
    49   23  148 1    
    50   24   25 am   BACKBONE|DICT|INTERRES
    51   24  149 1    
    52   25   26 2    
    53   25   27 1    
    54   27   28 1    
    55   27   29 1    
    56   27  150 1    
    57   28  151 1    
    58   28  152 1    
    59   28  153 1    
    60   29   30 am   BACKBONE|DICT|INTERRES
    61   29  154 1    
    62   30   31 2    
    63   30   32 1    
    64   32   33 1    
    65   32   34 1    
    66   32  155 1    
    67   33  156 1    
    68   33  157 1    
    69   33  158 1    
    70   34   35 am   BACKBONE|DICT|INTERRES
    71   34  159 1    
    72   35   36 2    
    73   35   37 1    
    74   37   38 1    
    75   37   39 1    
    76   37  160 1    
    77   38  161 1    
    78   38  162 1    
    79   38  163 1    
    80   39   40 am   BACKBONE|DICT|INTERRES
    81   39  164 1    
    82   40   41 2    
    83   40   42 1    
    84   42   43 1    
    85   42   44 1    
    86   42  165 1    
    87   43  166 1    
    88   43  167 1    
    89   43  168 1    
    90   44   45 am   BACKBONE|DICT|INTERRES
    91   44  169 1    
    92   45   46 2    
    93   45   47 1    
    94   47   48 1    
    95   47   49 1    
    96   47  170 1    
    97   48  171 1    
    98   48  172 1    
    99   48  173 1    
   100   49   50 am   BACKBONE|DICT|INTERRES
   101   49  174 1    
   102   50   51 2    
   103   50   52 1    
   104   52   53 1    
   105   52   54 1    
   106   52  175 1    
   107   53  176 1    
   108   53  177 1    
   109   53  178 1    
   110   54   55 am   BACKBONE|DICT|INTERRES
   111   54  179 1    
   112   55   56 2    
   113   55   57 1    
   114   57   58 1    
   115   57   59 1    
   116   57  180 1    
   117   58  181 1    
   118   58  182 1    
   119   58  183 1    
   120   59   60 am   BACKBONE|DICT|INTERRES
   121   59  184 1    
   122   60   61 2    
   123   60   62 1    
   124   62   63 1    
   125   62   64 1    
   126   62  185 1    
   127   63  186 1    
   128   63  187 1    
   129   63  188 1    
   130   64   65 am   BACKBONE|DICT|INTERRES
   131   64  189 1    
   132   65   66 2    
   133   67   68 2    
   134   67   69 am   BACKBONE|DICT|INTERRES
   135   69   70 1    
   136   69  190 1    
   137   70   71 1    
   138   70   72 1    
   139   70  191 1    
   140   71  192 1    
   141   71  193 1    
   142   71  194 1    
   143   72   73 2    
   144   72   74 am   BACKBONE|DICT|INTERRES
   145   74   75 1    
   146   74  195 1    
   147   75   76 1    
   148   75   77 1    
   149   75  196 1    
   150   76  197 1    
   151   76  198 1    
   152   76  199 1    
   153   77   78 2    
   154   77   79 am   BACKBONE|DICT|INTERRES
   155   79   80 1    
   156   79  200 1    
   157   80   81 1    
   158   80   82 1    
   159   80  201 1    
   160   81  202 1    
   161   81  203 1    
   162   81  204 1    
   163   82   83 2    
   164   82   84 am   BACKBONE|DICT|INTERRES
   165   84   85 1    
   166   84  205 1    
   167   85   86 1    
   168   85   87 1    
   169   85  206 1    
   170   86  207 1    
   171   86  208 1    
   172   86  209 1    
   173   87   88 2    
   174   87   89 am   BACKBONE|DICT|INTERRES
   175   89   90 1    
   176   89  210 1    
   177   90   91 1    
   178   90   92 1    
   179   90  211 1    
   180   91  212 1    
   181   91  213 1    
   182   91  214 1    
   183   92   93 2    
   184   92   94 am   BACKBONE|DICT|INTERRES
   185   94   95 1    
   186   94  215 1    
   187   95   96 1    
   188   95   97 1    
   189   95  216 1    
   190   96  217 1    
   191   96  218 1    
   192   96  219 1    
   193   97   98 2    
   194   97   99 am   BACKBONE|DICT|INTERRES
   195   99  100 1    
   196   99  220 1    
   197  100  101 1    
   198  100  102 1    
   199  100  221 1    
   200  101  222 1    
   201  101  223 1    
   202  101  224 1    
   203  102  103 2    
   204  102  104 am   BACKBONE|DICT|INTERRES
   205  104  105 1    
   206  104  225 1    
   207  105  106 1    
   208  105  107 1    
   209  105  226 1    
   210  106  227 1    
   211  106  228 1    
   212  106  229 1    
   213  107  108 2    
   214  107  109 am   BACKBONE|DICT|INTERRES
   215  109  110 1    
   216  109  230 1    
   217  110  111 1    
   218  110  112 1    
   219  110  231 1    
   220  111  232 1    
   221  111  233 1    
   222  111  234 1    
   223  112  113 2    
   224  112  114 am   BACKBONE|DICT|INTERRES
   225  114  115 1    
   226  114  235 1    
   227  115  116 1    
   228  115  117 1    
   229  115  236 1    
   230  116  237 1    
   231  116  238 1    
   232  116  239 1    
   233  117  118 2    
   234  117  119 am   BACKBONE|DICT|INTERRES
   235  119  120 1    
   236  119  240 1    
   237  120  121 1    
   238  120  124 1    
   239  120  241 1    
   240  121  122 am   BACKBONE|DICT|INTERRES
   241  121  123 2    
   242  122  242 1    
   243  122  243 1    
   244  124  125 1    
   245  124  244 1    
   246  124  245 1    
   247  125  126 1    
   248  126  246 1    
   249  126  247 1    
@<TRIPOS>SUBSTRUCTURE
     1 UNK         1 GROUP             0       ****    0 ROOT    
