@<TRIPOS>MOLECULE
3R540
247   249    1
SMALL
USER_CHARGES


@<TRIPOS>ATOM
      1 CA         -1.8999  -15.7496  -44.4846 C.3       0 UNK        -0.1800 
      2 C          -2.2987  -14.2933  -44.6630 C.2       0 UNK         0.5000 
      3 O          -2.2827  -13.5295  -43.6972 O.2       0 UNK        -0.5000 
      4 N          -2.6481  -13.9054  -45.8955 N.am      1 UNK        -0.5000 
      5 CA         -2.9358  -12.5199  -46.2845 C.3       1 UNK         0.1400 
      6 C6         -3.5741  -12.4181  -47.6909 C.3       23 UNK        -0.0398 
      7 S7         -5.1687  -13.3010  -47.8005 S.3       23 UNK        -0.2404 
      8 C8         -4.8145  -14.5942  -49.0331 C.3       23 UNK        -0.0205 
      9 C9         -3.8489  -15.6431  -48.5035 C.ar      23 UNK        -0.0193 
     10 C10        -2.4943  -15.5920  -48.8460 C.ar      23 UNK        -0.1150 
     11 C11        -1.6040  -16.5458  -48.3485 C.ar      23 UNK        -0.0193 
     12 C12        -2.0774  -17.5709  -47.5283 C.ar      23 UNK        -0.1150 
     13 C13        -3.4262  -17.6286  -47.1723 C.ar      23 UNK        -0.0193 
     14 C14        -4.3088  -16.6624  -47.6634 C.ar      23 UNK        -0.1150 
     15 C15        -3.9118  -18.7071  -46.2201 C.3       23 UNK        -0.0205 
     16 S16        -4.8261  -20.0125  -47.0901 S.3       23 UNK        -0.2404 
     17 C17        -4.8217  -21.3225  -45.8186 C.3       23 UNK        -0.0398 
     18 CA         -4.0657  -22.5994  -46.2660 C.3       11 UNK         0.1400 
     19 N          -2.7290  -22.3160  -46.7862 N.am      11 UNK        -0.5000 
     20 C          -2.1806  -22.9353  -47.8376 C.2       10 UNK         0.5000 
     21 O          -2.7430  -23.8176  -48.4846 O.2       10 UNK        -0.5000 
     22 CA         -0.7412  -22.5244  -48.1986 C.3       10 UNK         0.1400 
     23 CB         -0.7630  -21.2301  -49.0259 C.3       10 UNK        -0.1800 
     24 N           0.1082  -22.3355  -47.0196 N.am      10 UNK        -0.5000 
     25 C           0.2997  -23.2538  -46.0584 C.2       9 UNK         0.5000 
     26 O          -0.1336  -24.4043  -46.1236 O.2       9 UNK        -0.5000 
     27 CA          1.0310  -22.8149  -44.7743 C.3       9 UNK         0.1400 
     28 CB          2.5060  -23.2366  -44.8329 C.3       9 UNK        -0.1800 
     29 N           0.9597  -21.3798  -44.4935 N.am      9 UNK        -0.5000 
     30 C          -0.1454  -20.6228  -44.4151 C.2       8 UNK         0.5000 
     31 O          -1.2922  -21.0709  -44.4818 O.2       8 UNK        -0.5000 
     32 CA          0.0735  -19.0986  -44.3151 C.3       8 UNK         0.1400 
     33 CB         -0.0250  -18.6570  -42.8484 C.3       8 UNK        -0.1800 
     34 N           1.3487  -18.6257  -44.8759 N.am      8 UNK        -0.5000 
     35 C           1.8096  -18.8593  -46.1166 C.2       7 UNK         0.5000 
     36 O           1.1770  -19.5024  -46.9549 O.2       7 UNK        -0.5000 
     37 CA          3.2232  -18.3418  -46.4581 C.3       7 UNK         0.1400 
     38 CB          3.3794  -17.9632  -47.9412 C.3       7 UNK        -0.1800 
     39 N           3.6194  -17.2023  -45.6296 N.am      7 UNK        -0.5000 
     40 C           4.3337  -17.2787  -44.4974 C.2       6 UNK         0.5000 
     41 O           4.7228  -18.3418  -44.0135 O.2       6 UNK        -0.5000 
     42 CA          4.6618  -15.9582  -43.7684 C.3       6 UNK         0.1400 
     43 CB          6.1072  -15.5294  -44.0637 C.3       6 UNK        -0.1800 
     44 N           3.7637  -14.8563  -44.1165 N.am      6 UNK        -0.5000 
     45 C           2.4660  -14.7904  -43.7899 C.2       5 UNK         0.5000 
     46 O           1.8988  -15.6277  -43.0885 O.2       5 UNK        -0.5000 
     47 CA          1.6584  -13.6138  -44.3734 C.3       5 UNK         0.1400 
     48 CB          1.4983  -12.4978  -43.3317 C.3       5 UNK        -0.1800 
     49 N           2.2042  -13.0424  -45.6113 N.am      5 UNK        -0.5000 
     50 C           2.3602  -13.7130  -46.7614 C.2       4 UNK         0.5000 
     51 O           2.1789  -14.9261  -46.8646 O.2       4 UNK        -0.5000 
     52 CA          2.7741  -12.8820  -47.9862 C.3       4 UNK         0.1400 
     53 CB          2.8234  -13.7042  -49.2918 C.3       4 UNK        -0.1800 
     54 N           1.8732  -11.7394  -48.1349 N.am      4 UNK        -0.5000 
     55 C           2.1628  -10.6198  -48.8123 C.2       3 UNK         0.5000 
     56 O           3.2468  -10.4209  -49.3628 O.2       3 UNK        -0.5000 
     57 CA          1.0709   -9.5323  -48.9053 C.3       3 UNK         0.1400 
     58 CB          0.3000   -9.6641  -50.2279 C.3       3 UNK        -0.1800 
     59 N           0.1126   -9.5498  -47.7997 N.am      3 UNK        -0.5000 
     60 C           0.4059   -9.2760  -46.5222 C.2       2 UNK         0.5000 
     61 O           1.5201   -8.9148  -46.1417 O.2       2 UNK        -0.5000 
     62 CA         -0.7237   -9.4474  -45.4848 C.3       2 UNK         0.1400 
     63 CB         -1.3557   -8.0841  -45.1634 C.3       2 UNK        -0.1800 
     64 N          -1.7967  -10.3935  -45.8259 N.am      2 UNK        -0.5000 
     65 C          -1.6513  -11.6688  -46.2144 C.2       1 UNK         0.5000 
     66 O          -0.5729  -12.1735  -46.5316 O.2       1 UNK        -0.5000 
     67 C          -3.9781  -23.5963  -45.0972 C.2       11 UNK         0.5000 
     68 O          -4.7895  -24.5184  -45.0227 O.2       11 UNK        -0.5000 
     69 N          -3.0148  -23.3727  -44.1917 N.am      12 UNK        -0.5000 
     70 CA         -2.9277  -24.0559  -42.9021 C.3       12 UNK         0.1400 
     71 CB         -2.0831  -23.2020  -41.9431 C.3       12 UNK        -0.1800 
     72 C          -2.3811  -25.4931  -42.9675 C.2       12 UNK         0.5000 
     73 O          -2.7191  -26.2880  -42.0890 O.2       12 UNK        -0.5000 
     74 N          -1.5428  -25.8021  -43.9660 N.am      13 UNK        -0.5000 
     75 CA         -0.8764  -27.0986  -44.1017 C.3       13 UNK         0.1400 
     76 CB          0.6427  -26.9226  -43.9342 C.3       13 UNK        -0.1800 
     77 C          -1.2150  -27.7673  -45.4404 C.2       13 UNK         0.5000 
     78 O          -1.6365  -28.9246  -45.4414 O.2       13 UNK        -0.5000 
     79 N          -1.0217  -27.0450  -46.5532 N.am      14 UNK        -0.5000 
     80 CA         -1.2644  -27.5531  -47.9044 C.3       14 UNK         0.1400 
     81 CB         -0.5559  -26.6625  -48.9365 C.3       14 UNK        -0.1800 
     82 C          -2.7654  -27.6841  -48.2099 C.2       14 UNK         0.5000 
     83 O          -3.2018  -28.7431  -48.6620 O.2       14 UNK        -0.5000 
     84 N          -3.5201  -26.6062  -47.9509 N.am      15 UNK        -0.5000 
     85 CA         -4.9770  -26.4356  -48.0551 C.3       15 UNK         0.1400 
     86 CB         -5.7175  -27.4025  -47.1135 C.3       15 UNK        -0.1800 
     87 C          -5.5507  -26.5042  -49.4851 C.2       15 UNK         0.5000 
     88 O          -6.4578  -25.7381  -49.8086 O.2       15 UNK        -0.5000 
     89 N          -5.0082  -27.3888  -50.3290 N.am      16 UNK        -0.5000 
     90 CA         -5.3929  -27.5892  -51.7279 C.3       16 UNK         0.1400 
     91 CB         -4.7133  -28.8660  -52.2456 C.3       16 UNK        -0.1800 
     92 C          -5.0601  -26.3939  -52.6437 C.2       16 UNK         0.5000 
     93 O          -5.6617  -26.2676  -53.7108 O.2       16 UNK        -0.5000 
     94 N          -4.1201  -25.5440  -52.2123 N.am      17 UNK        -0.5000 
     95 CA         -3.6833  -24.3343  -52.9062 C.3       17 UNK         0.1400 
     96 CB         -2.2563  -24.5462  -53.4399 C.3       17 UNK        -0.1800 
     97 C          -3.8007  -23.1050  -51.9862 C.2       17 UNK         0.5000 
     98 O          -2.9825  -22.1877  -52.0871 O.2       17 UNK        -0.5000 
     99 N          -4.8218  -23.1060  -51.1132 N.am      18 UNK        -0.5000 
    100 CA        -5.1729  -22.0212  -50.1933 C.3       18 UNK         0.1400 
    101 CB        -6.4534  -22.3960  -49.4309 C.3       18 UNK        -0.1800 
    102 C         -5.3478  -20.6819  -50.9277 C.2       18 UNK         0.5000 
    103 O         -6.1726  -20.5965  -51.8402 O.2       18 UNK        -0.5000 
    104 N         -4.5143  -19.6977  -50.5657 N.am      19 UNK        -0.5000 
    105 CA        -4.3289  -18.3733  -51.1738 C.3       19 UNK         0.1400 
    106 CB        -5.6234  -17.5422  -51.1148 C.3       19 UNK        -0.1800 
    107 C         -3.7481  -18.3943  -52.6045 C.2       19 UNK         0.5000 
    108 O         -2.9701  -17.5045  -52.9440 O.2       19 UNK        -0.5000 
    109 N         -4.1040  -19.4031  -53.4103 N.am      20 UNK        -0.5000 
    110 CA        -3.6643  -19.6145  -54.7898 C.3       20 UNK         0.1400 
    111 CB        -4.3775  -20.8480  -55.3636 C.3       20 UNK        -0.1800 
    112 C         -2.1387  -19.7548  -54.9347 C.2       20 UNK         0.5000 
    113 O         -1.5664  -19.1881  -55.8671 O.2       20 UNK        -0.5000 
    114 N         -1.4986  -20.4549  -53.9856 N.am      21 UNK        -0.5000 
    115 CA        -0.0409  -20.6056  -53.9076 C.3       21 UNK         0.1400 
    116 CB         0.3063  -21.6252  -52.8132 C.3       21 UNK        -0.1800 
    117 C          0.7079  -19.2810  -53.6521 C.2       21 UNK         0.5000 
    118 O          1.8904  -19.1818  -53.9822 O.2       21 UNK        -0.5000 
    119 N          0.0071  -18.2947  -53.0821 N.am      22 UNK        -0.5000 
    120 CA         0.5055  -16.9414  -52.8036 C.3       22 UNK         0.1400 
    121 C          0.2688  -15.9424  -53.9749 C.2       22 UNK         0.5000 
    122 N         -0.3252  -16.3434  -55.0942 N.am      22 UNK        -0.7600 
    123 O          0.6512  -14.7797  -53.8769 O.2       22 UNK        -0.5000 
    124 C124       -0.0589  -16.3989  -51.4649 C.3       23 UNK        -0.0398 
    125 S125        0.3539  -17.4888  -50.0615 S.3       23 UNK        -0.2404 
    126 C126       -0.1209  -16.4509  -48.6502 C.3       23 UNK        -0.0205 
    127 H127       -1.4372  -15.8994  -43.5097 H         1 UNK         0.0600 
    128 H128       -1.1801  -16.0482  -45.2468 H         1 UNK         0.0600 
    129 H129       -2.7745  -16.3958  -44.5504 H         1 UNK         0.0600 
    130 H130       -2.6508  -14.5800  -46.6481 H         1 UNK         0.3000 
    131 H131       -3.6471  -12.1179  -45.5596 H         1 UNK         0.0600 
    132 H132       -2.8879  -12.7816  -48.4565 H         1 UNK         0.0800 
    133 H133       -3.7708  -11.3740  -47.9409 H         1 UNK         0.0800 
    134 H134       -4.4287  -14.1374  -49.9458 H         1 UNK         0.0800 
    135 H135       -5.7538  -15.0748  -49.3089 H         1 UNK         0.0800 
    136 H136       -2.1279  -14.8037  -49.4883 H         1 UNK         0.1150 
    137 H137       -1.3844  -18.3082  -47.1486 H         1 UNK         0.1150 
    138 H138       -5.3530  -16.7005  -47.3863 H         1 UNK         0.1150 
    139 H139       -3.0636  -19.1462  -45.6931 H         1 UNK         0.0800 
    140 H140       -4.5534  -18.2640  -45.4572 H         1 UNK         0.0800 
    141 H141       -5.8606  -21.5662  -45.5894 H         1 UNK         0.0800 
    142 H142       -4.3989  -20.9247  -44.8940 H         1 UNK         0.0800 
    143 H143       -4.6647  -23.0686  -47.0479 H         1 UNK         0.0600 
    144 H144       -2.1756  -21.6443  -46.2682 H         1 UNK         0.3000 
    145 H145       -0.3030  -23.3176  -48.8064 H         1 UNK         0.0600 
    146 H146       -1.1422  -20.3875  -48.4470 H         1 UNK         0.0600 
    147 H147        0.2351  -20.9668  -49.3763 H         1 UNK         0.0600 
    148 H148       -1.4036  -21.3364  -49.9022 H         1 UNK         0.0600 
    149 H149        0.5026  -21.4075  -46.8981 H         1 UNK         0.3000 
    150 H150        0.5609  -23.3385  -43.9413 H         1 UNK         0.0600 
    151 H151        2.6020  -24.3063  -45.0234 H         1 UNK         0.0600 
    152 H152        3.0135  -23.0303  -43.8904 H         1 UNK         0.0600 
    153 H153        3.0418  -22.7130  -45.6258 H         1 UNK         0.0600 
    154 H154        1.8457  -20.9013  -44.4284 H         1 UNK         0.3000 
    155 H155       -0.7286  -18.6161  -44.8743 H         1 UNK         0.0600 
    156 H156       -0.9824  -18.9495  -42.4149 H         1 UNK         0.0600 
    157 H157        0.0558  -17.5752  -42.7524 H         1 UNK         0.0600 
    158 H158        0.7626  -19.1042  -42.2406 H         1 UNK         0.0600 
    159 H159        1.9266  -18.0725  -44.2589 H         1 UNK         0.3000 
    160 H160        3.9000  -19.1782  -46.2734 H         1 UNK         0.0600 
    161 H161        2.7533  -17.1148  -48.2117 H         1 UNK         0.0600 
    162 H162        3.1086  -18.7928  -48.5956 H         1 UNK         0.0600 
    163 H163        4.4112  -17.6970  -48.1698 H         1 UNK         0.0600 
    164 H164        3.2749  -16.2982  -45.9399 H         1 UNK         0.3000 
    165 H165        4.5716  -16.1445  -42.6962 H         1 UNK         0.0600 
    166 H166        6.3782  -14.6378  -43.4979 H         1 UNK         0.0600 
    167 H167        6.8124  -16.3144  -43.7873 H         1 UNK         0.0600 
    168 H168        6.2544  -15.3141  -45.1229 H         1 UNK         0.0600 
    169 H169        4.1445  -14.1251  -44.6986 H         1 UNK         0.3000 
    170 H170        0.6658  -14.0002  -44.6097 H         1 UNK         0.0600 
    171 H171        1.0815  -12.8872  -42.4018 H         1 UNK         0.0600 
    172 H172        2.4531  -12.0269  -43.0949 H         1 UNK         0.0600 
    173 H173        0.8182  -11.7257  -43.6887 H         1 UNK         0.0600 
    174 H174        2.3657  -12.0458  -45.6128 H         1 UNK         0.3000 
    175 H175        3.7807  -12.5145  -47.7769 H         1 UNK         0.0600 
    176 H176        1.8293  -14.0232  -49.6019 H         1 UNK         0.0600 
    177 H177        3.2538  -13.1256  -50.1089 H         1 UNK         0.0600 
    178 H178        3.4378  -14.5980  -49.1758 H         1 UNK         0.0600 
    179 H179        0.9716  -11.8268  -47.6695 H         1 UNK         0.3000 
    180 H180        1.5735   -8.5629  -48.8979 H         1 UNK         0.0600 
    181 H181       -0.2435  -10.6083  -50.2836 H         1 UNK         0.0600 
    182 H182        0.9782   -9.6252  -51.0814 H         1 UNK         0.0600 
    183 H183       -0.4190   -8.8536  -50.3492 H         1 UNK         0.0600 
    184 H184       -0.8257   -9.8495  -48.0171 H         1 UNK         0.3000 
    185 H185       -0.2551   -9.8196  -44.5727 H         1 UNK         0.0600 
    186 H186       -2.0602   -8.1593  -44.3347 H         1 UNK         0.0600 
    187 H187       -0.5961   -7.3564  -44.8740 H         1 UNK         0.0600 
    188 H188       -1.8891   -7.6771  -46.0234 H         1 UNK         0.0600 
    189 H189       -2.7304  -10.0674  -45.6213 H         1 UNK         0.3000 
    190 H190       -2.3903  -22.5810  -44.3218 H         1 UNK         0.3000 
    191 H191       -3.9358  -24.1163  -42.4858 H         1 UNK         0.0600 
    192 H192       -2.5059  -22.2037  -41.8276 H         1 UNK         0.0600 
    193 H193       -2.0413  -23.6531  -40.9509 H         1 UNK         0.0600 
    194 H194       -1.0582  -23.0904  -42.2948 H         1 UNK         0.0600 
    195 H195       -1.3294  -25.1095  -44.6742 H         1 UNK         0.3000 
    196 H196       -1.2076  -27.7846  -43.3193 H         1 UNK         0.0600 
    197 H197        1.1539  -27.8840  -43.9966 H         1 UNK         0.0600 
    198 H198        0.8828  -26.4894  -42.9631 H         1 UNK         0.0600 
    199 H199        1.0692  -26.2773  -44.7014 H         1 UNK         0.0600 
    200 H200       -0.6625  -26.0960  -46.4719 H         1 UNK         0.3000 
    201 H201       -0.8255  -28.5507  -47.9766 H         1 UNK         0.0600 
    202 H202        0.5204  -26.6431  -48.7648 H         1 UNK         0.0600 
    203 H203       -0.9150  -25.6361  -48.9021 H         1 UNK         0.0600 
    204 H204       -0.7178  -27.0330  -49.9495 H         1 UNK         0.0600 
    205 H205       -3.0295  -25.7571  -47.6960 H         1 UNK         0.3000 
    206 H206       -5.1733  -25.4236  -47.6992 H         1 UNK         0.0600 
    207 H207       -5.5800  -28.4438  -47.4059 H         1 UNK         0.0600 
    208 H208       -5.3685  -27.2924  -46.0864 H         1 UNK         0.0600 
    209 H209       -6.7895  -27.2019  -47.1154 H         1 UNK         0.0600 
    210 H210       -4.2913  -28.0045  -49.9528 H         1 UNK         0.3000 
    211 H211       -6.4743  -27.7362  -51.7621 H         1 UNK         0.0600 
    212 H212       -4.9970  -29.0705  -53.2788 H         1 UNK         0.0600 
    213 H213       -5.0015  -29.7343  -51.6526 H         1 UNK         0.0600 
    214 H214       -3.6261  -28.7833  -52.2126 H         1 UNK         0.0600 
    215 H215       -3.6976  -25.7173  -51.3110 H         1 UNK         0.3000 
    216 H216       -4.3330  -24.1320  -53.7598 H         1 UNK         0.0600 
    217 H217       -1.9422  -23.7025  -54.0553 H         1 UNK         0.0600 
    218 H218       -2.1977  -25.4374  -54.0647 H         1 UNK         0.0600 
    219 H219       -1.5366  -24.6573  -52.6280 H         1 UNK         0.0600 
    220 H220       -5.4398  -23.9056  -51.1060 H         1 UNK         0.3000 
    221 H221       -4.3613  -21.9202  -49.4735 H         1 UNK         0.0600 
    222 H222       -7.2756  -22.6193  -50.1118 H         1 UNK         0.0600 
    223 H223       -6.2956  -23.2687  -48.7990 H         1 UNK         0.0600 
    224 H224       -6.7788  -21.5825  -48.7818 H         1 UNK         0.0600 
    225 H225       -3.8749  -19.8926  -49.8083 H         1 UNK         0.3000 
    226 H226       -3.5880  -17.8712  -50.5497 H         1 UNK         0.0600 
    227 H227       -6.0144  -17.4959  -50.0984 H         1 UNK         0.0600 
    228 H228       -5.4397  -16.5185  -51.4425 H         1 UNK         0.0600 
    229 H229       -6.4035  -17.9525  -51.7562 H         1 UNK         0.0600 
    230 H230       -4.7776  -20.0655  -53.0393 H         1 UNK         0.3000 
    231 H231       -3.9720  -18.7407  -55.3675 H         1 UNK         0.0600 
    232 H232       -4.1224  -21.7528  -54.8116 H         1 UNK         0.0600 
    233 H233       -4.1000  -21.0100  -56.4059 H         1 UNK         0.0600 
    234 H234       -5.4607  -20.7291  -55.3301 H         1 UNK         0.0600 
    235 H235       -2.0444  -20.9083  -53.2571 H         1 UNK         0.3000 
    236 H236        0.3076  -20.9986  -54.8647 H         1 UNK         0.0600 
    237 H237       -0.1239  -22.6017  -53.0267 H         1 UNK         0.0600 
    238 H238        1.3853  -21.7600  -52.7286 H         1 UNK         0.0600 
    239 H239       -0.0609  -21.3014  -51.8406 H         1 UNK         0.0600 
    240 H240       -0.9748  -18.4406  -52.8886 H         1 UNK         0.3000 
    241 H241        1.5898  -16.9931  -52.6897 H         1 UNK         0.0600 
    242 H242       -0.4635  -15.6843  -55.8436 H         1 UNK         0.3800 
    243 H243       -0.6490  -17.2961  -55.1992 H         1 UNK         0.3800 
    244 H244        0.3476  -15.4078  -51.2571 H         1 UNK         0.0800 
    245 H245       -1.1419  -16.2843  -51.5158 H         1 UNK         0.0800 
    246 H246        0.1689  -15.4148  -48.8218 H         1 UNK         0.0800 
    247 H247        0.4392  -16.7755  -47.7736 H         1 UNK         0.0800 
@<TRIPOS>BOND
     1    1    2 1    
     2    1  127 1    
     3    1  128 1    
     4    1  129 1    
     5    2    3 2    
     6    2    4 am   BACKBONE|DICT|INTERRES
     7    4    5 1    
     8    4  130 1    
     9    5    6 1    
    10    5   65 1    
    11    5  131 1    
    12    6    7 1    
    13    6  132 1    
    14    6  133 1    
    15    7    8 1    
    16    8    9 1    
    17    8  134 1    
    18    8  135 1    
    19    9   10 ar   
    20    9   14 ar   
    21   10   11 ar   
    22   10  136 1    
    23   11   12 ar   
    24   11  126 1    
    25   12   13 ar   
    26   12  137 1    
    27   13   14 ar   
    28   13   15 1    
    29   14  138 1    
    30   15   16 1    
    31   15  139 1    
    32   15  140 1    
    33   16   17 1    
    34   17   18 1    
    35   17  141 1    
    36   17  142 1    
    37   18   19 1    
    38   18   67 1    
    39   18  143 1    
    40   19   20 am   BACKBONE|DICT|INTERRES
    41   19  144 1    
    42   20   21 2    
    43   20   22 1    
    44   22   23 1    
    45   22   24 1    
    46   22  145 1    
    47   23  146 1    
    48   23  147 1    
    49   23  148 1    
    50   24   25 am   BACKBONE|DICT|INTERRES
    51   24  149 1    
    52   25   26 2    
    53   25   27 1    
    54   27   28 1    
    55   27   29 1    
    56   27  150 1    
    57   28  151 1    
    58   28  152 1    
    59   28  153 1    
    60   29   30 am   BACKBONE|DICT|INTERRES
    61   29  154 1    
    62   30   31 2    
    63   30   32 1    
    64   32   33 1    
    65   32   34 1    
    66   32  155 1    
    67   33  156 1    
    68   33  157 1    
    69   33  158 1    
    70   34   35 am   BACKBONE|DICT|INTERRES
    71   34  159 1    
    72   35   36 2    
    73   35   37 1    
    74   37   38 1    
    75   37   39 1    
    76   37  160 1    
    77   38  161 1    
    78   38  162 1    
    79   38  163 1    
    80   39   40 am   BACKBONE|DICT|INTERRES
    81   39  164 1    
    82   40   41 2    
    83   40   42 1    
    84   42   43 1    
    85   42   44 1    
    86   42  165 1    
    87   43  166 1    
    88   43  167 1    
    89   43  168 1    
    90   44   45 am   BACKBONE|DICT|INTERRES
    91   44  169 1    
    92   45   46 2    
    93   45   47 1    
    94   47   48 1    
    95   47   49 1    
    96   47  170 1    
    97   48  171 1    
    98   48  172 1    
    99   48  173 1    
   100   49   50 am   BACKBONE|DICT|INTERRES
   101   49  174 1    
   102   50   51 2    
   103   50   52 1    
   104   52   53 1    
   105   52   54 1    
   106   52  175 1    
   107   53  176 1    
   108   53  177 1    
   109   53  178 1    
   110   54   55 am   BACKBONE|DICT|INTERRES
   111   54  179 1    
   112   55   56 2    
   113   55   57 1    
   114   57   58 1    
   115   57   59 1    
   116   57  180 1    
   117   58  181 1    
   118   58  182 1    
   119   58  183 1    
   120   59   60 am   BACKBONE|DICT|INTERRES
   121   59  184 1    
   122   60   61 2    
   123   60   62 1    
   124   62   63 1    
   125   62   64 1    
   126   62  185 1    
   127   63  186 1    
   128   63  187 1    
   129   63  188 1    
   130   64   65 am   BACKBONE|DICT|INTERRES
   131   64  189 1    
   132   65   66 2    
   133   67   68 2    
   134   67   69 am   BACKBONE|DICT|INTERRES
   135   69   70 1    
   136   69  190 1    
   137   70   71 1    
   138   70   72 1    
   139   70  191 1    
   140   71  192 1    
   141   71  193 1    
   142   71  194 1    
   143   72   73 2    
   144   72   74 am   BACKBONE|DICT|INTERRES
   145   74   75 1    
   146   74  195 1    
   147   75   76 1    
   148   75   77 1    
   149   75  196 1    
   150   76  197 1    
   151   76  198 1    
   152   76  199 1    
   153   77   78 2    
   154   77   79 am   BACKBONE|DICT|INTERRES
   155   79   80 1    
   156   79  200 1    
   157   80   81 1    
   158   80   82 1    
   159   80  201 1    
   160   81  202 1    
   161   81  203 1    
   162   81  204 1    
   163   82   83 2    
   164   82   84 am   BACKBONE|DICT|INTERRES
   165   84   85 1    
   166   84  205 1    
   167   85   86 1    
   168   85   87 1    
   169   85  206 1    
   170   86  207 1    
   171   86  208 1    
   172   86  209 1    
   173   87   88 2    
   174   87   89 am   BACKBONE|DICT|INTERRES
   175   89   90 1    
   176   89  210 1    
   177   90   91 1    
   178   90   92 1    
   179   90  211 1    
   180   91  212 1    
   181   91  213 1    
   182   91  214 1    
   183   92   93 2    
   184   92   94 am   BACKBONE|DICT|INTERRES
   185   94   95 1    
   186   94  215 1    
   187   95   96 1    
   188   95   97 1    
   189   95  216 1    
   190   96  217 1    
   191   96  218 1    
   192   96  219 1    
   193   97   98 2    
   194   97   99 am   BACKBONE|DICT|INTERRES
   195   99  100 1    
   196   99  220 1    
   197  100  101 1    
   198  100  102 1    
   199  100  221 1    
   200  101  222 1    
   201  101  223 1    
   202  101  224 1    
   203  102  103 2    
   204  102  104 am   BACKBONE|DICT|INTERRES
   205  104  105 1    
   206  104  225 1    
   207  105  106 1    
   208  105  107 1    
   209  105  226 1    
   210  106  227 1    
   211  106  228 1    
   212  106  229 1    
   213  107  108 2    
   214  107  109 am   BACKBONE|DICT|INTERRES
   215  109  110 1    
   216  109  230 1    
   217  110  111 1    
   218  110  112 1    
   219  110  231 1    
   220  111  232 1    
   221  111  233 1    
   222  111  234 1    
   223  112  113 2    
   224  112  114 am   BACKBONE|DICT|INTERRES
   225  114  115 1    
   226  114  235 1    
   227  115  116 1    
   228  115  117 1    
   229  115  236 1    
   230  116  237 1    
   231  116  238 1    
   232  116  239 1    
   233  117  118 2    
   234  117  119 am   BACKBONE|DICT|INTERRES
   235  119  120 1    
   236  119  240 1    
   237  120  121 1    
   238  120  124 1    
   239  120  241 1    
   240  121  122 am   BACKBONE|DICT|INTERRES
   241  121  123 2    
   242  122  242 1    
   243  122  243 1    
   244  124  125 1    
   245  124  244 1    
   246  124  245 1    
   247  125  126 1    
   248  126  246 1    
   249  126  247 1    
@<TRIPOS>SUBSTRUCTURE
     1 UNK         1 GROUP             0       ****    0 ROOT    
