@<TRIPOS>MOLECULE
3R540
247   249    1
SMALL
USER_CHARGES


@<TRIPOS>ATOM
      1 CA         -3.7540  -10.8494  -45.7468 C.3       0 UNK        -0.1800 
      2 C          -2.5341  -11.6451  -46.1898 C.2       0 UNK         0.5000 
      3 O          -1.8440  -12.2109  -45.3432 O.2       0 UNK        -0.5000 
      4 N          -2.2885  -11.6925  -47.5079 N.am      1 UNK        -0.5000 
      5 CA         -1.1566  -12.3325  -48.1923 C.3       1 UNK         0.1400 
      6 C6         -0.9349  -13.8104  -47.7698 C.3       23 UNK        -0.0398 
      7 S7          0.0898  -14.7593  -48.9459 S.3       23 UNK        -0.2404 
      8 C8         -0.9279  -16.2429  -49.2088 C.3       23 UNK        -0.0205 
      9 C9         -0.0917  -17.3847  -49.7618 C.ar      23 UNK        -0.0193 
     10 C10        -0.2094  -17.7764  -51.0982 C.ar      23 UNK        -0.1150 
     11 C11         0.5618  -18.8311  -51.5996 C.ar      23 UNK        -0.0193 
     12 C12         1.4494  -19.4967  -50.7494 C.ar      23 UNK        -0.1150 
     13 C13         1.5582  -19.1287  -49.4053 C.ar      23 UNK        -0.0193 
     14 C14         0.7917  -18.0663  -48.9209 C.ar      23 UNK        -0.1150 
     15 C15         2.4899  -19.8834  -48.4667 C.3       23 UNK        -0.0205 
     16 S16         2.1061  -21.6635  -48.3561 S.3       23 UNK        -0.2404 
     17 C17         0.3023  -21.6804  -48.0737 C.3       23 UNK        -0.0398 
     18 CA         -0.1102  -22.8181  -47.1109 C.3       11 UNK         0.1400 
     19 N           0.1262  -22.4743  -45.7055 N.am      11 UNK        -0.5000 
     20 C           0.0762  -23.3469  -44.6904 C.2       10 UNK         0.5000 
     21 O          -0.1912  -24.5390  -44.8308 O.2       10 UNK        -0.5000 
     22 CA          0.3160  -22.7920  -43.2758 C.3       10 UNK         0.1400 
     23 CB          1.7964  -22.4468  -43.0538 C.3       10 UNK        -0.1800 
     24 N          -0.5186  -21.6264  -42.9901 N.am      10 UNK        -0.5000 
     25 C          -1.8570  -21.6584  -42.9146 C.2       9 UNK         0.5000 
     26 O          -2.5268  -22.6848  -43.0396 O.2       9 UNK        -0.5000 
     27 CA         -2.5700  -20.3099  -42.7028 C.3       9 UNK         0.1400 
     28 CB         -2.5583  -19.9163  -41.2183 C.3       9 UNK        -0.1800 
     29 N          -1.9928  -19.2261  -43.4992 N.am      9 UNK        -0.5000 
     30 C          -1.9419  -19.2126  -44.8385 C.2       8 UNK         0.5000 
     31 O          -2.3966  -20.1054  -45.5480 O.2       8 UNK        -0.5000 
     32 CA         -1.1953  -18.0428  -45.4986 C.3       8 UNK         0.1400 
     33 CB         -2.0472  -16.7660  -45.4784 C.3       8 UNK        -0.1800 
     34 N           0.1060  -17.7938  -44.8784 N.am      8 UNK        -0.5000 
     35 C           1.0927  -18.7001  -44.8044 C.2       7 UNK         0.5000 
     36 O           1.0272  -19.8251  -45.2958 O.2       7 UNK        -0.5000 
     37 CA          2.3471  -18.3024  -44.0151 C.3       7 UNK         0.1400 
     38 CB          3.3030  -17.4971  -44.8995 C.3       7 UNK        -0.1800 
     39 N           2.0058  -17.5302  -42.8232 N.am      7 UNK        -0.5000 
     40 C           1.4417  -18.0587  -41.7284 C.2       6 UNK         0.5000 
     41 O           1.2005  -19.2590  -41.5925 O.2       6 UNK        -0.5000 
     42 CA          1.0399  -17.0675  -40.6214 C.3       6 UNK         0.1400 
     43 CB          2.2568  -16.6770  -39.7692 C.3       6 UNK        -0.1800 
     44 N           0.4110  -15.8580  -41.1560 N.am      6 UNK        -0.5000 
     45 C          -0.7684  -15.8409  -41.7920 C.2       5 UNK         0.5000 
     46 O          -1.4615  -16.8419  -41.9693 O.2       5 UNK        -0.5000 
     47 CA         -1.2476  -14.4874  -42.3458 C.3       5 UNK         0.1400 
     48 CB         -2.1151  -13.7607  -41.3078 C.3       5 UNK        -0.1800 
     49 N          -0.1739  -13.5937  -42.7839 N.am      5 UNK        -0.5000 
     50 C           0.7013  -13.8492  -43.7657 C.2       4 UNK         0.5000 
     51 O           0.7917  -14.9409  -44.3352 O.2       4 UNK        -0.5000 
     52 CA          1.5945  -12.6591  -44.1677 C.3       4 UNK         0.1400 
     53 CB          2.5503  -12.2420  -43.0297 C.3       4 UNK        -0.1800 
     54 N           2.3024  -12.8685  -45.4349 N.am      4 UNK        -0.5000 
     55 C           3.3700  -13.6415  -45.6900 C.2       3 UNK         0.5000 
     56 O           4.0044  -14.2469  -44.8260 O.2       3 UNK        -0.5000 
     57 CA          3.8214  -13.7619  -47.1640 C.3       3 UNK         0.1400 
     58 CB          3.7093  -15.2137  -47.6588 C.3       3 UNK        -0.1800 
     59 N           3.0548  -12.9075  -48.0720 N.am      3 UNK        -0.5000 
     60 C           3.2874  -11.6061  -48.2929 C.2       2 UNK         0.5000 
     61 O           4.2336  -10.9872  -47.8060 O.2       2 UNK        -0.5000 
     62 CA          2.2671  -10.8651  -49.1825 C.3       2 UNK         0.1400 
     63 CB          2.7561  -10.8175  -50.6379 C.3       2 UNK        -0.1800 
     64 N           0.9303  -11.4687  -49.1455 N.am      2 UNK        -0.5000 
     65 C           0.1394  -11.5014  -48.0639 C.2       1 UNK         0.5000 
     66 O           0.4380  -10.9575  -46.9992 O.2       1 UNK        -0.5000 
     67 C          -1.5582  -23.2764  -47.3755 C.2       11 UNK         0.5000 
     68 O          -1.7532  -24.1852  -48.1852 O.2       11 UNK        -0.5000 
     69 N          -2.5425  -22.6832  -46.6839 N.am      12 UNK        -0.5000 
     70 CA         -3.9485  -23.0913  -46.7278 C.3       12 UNK         0.1400 
     71 CB         -4.8183  -22.1059  -45.9315 C.3       12 UNK        -0.1800 
     72 C          -4.1634  -24.5249  -46.2121 C.2       12 UNK         0.5000 
     73 O          -4.9265  -25.2777  -46.8164 O.2       12 UNK        -0.5000 
     74 N          -3.4723  -24.8785  -45.1211 N.am      13 UNK        -0.5000 
     75 CA         -3.5061  -26.2128  -44.5292 C.3       13 UNK         0.1400 
     76 CB         -2.9782  -26.1420  -43.0877 C.3       13 UNK        -0.1800 
     77 C          -2.7123  -27.2431  -45.3526 C.2       13 UNK         0.5000 
     78 O          -3.2049  -28.3498  -45.5753 O.2       13 UNK        -0.5000 
     79 N          -1.4921  -26.8737  -45.7637 N.am      14 UNK        -0.5000 
     80 CA         -0.5358  -27.7728  -46.4065 C.3       14 UNK         0.1400 
     81 CB          0.8784  -27.1820  -46.2918 C.3       14 UNK        -0.1800 
     82 C          -0.8629  -28.0852  -47.8753 C.2       14 UNK         0.5000 
     83 O          -0.7628  -29.2467  -48.2741 O.2       14 UNK        -0.5000 
     84 N          -1.2017  -27.0521  -48.6576 N.am      15 UNK        -0.5000 
     85 CA         -1.3102  -27.1395  -50.1171 C.3       15 UNK         0.1400 
     86 CB         -0.1645  -26.3188  -50.7347 C.3       15 UNK        -0.1800 
     87 C          -2.6593  -26.6493  -50.6647 C.2       15 UNK         0.5000 
     88 O          -2.9962  -26.9928  -51.7981 O.2       15 UNK        -0.5000 
     89 N          -3.3801  -25.8281  -49.8863 N.am      16 UNK        -0.5000 
     90 CA         -4.5715  -25.0626  -50.2797 C.3       16 UNK         0.1400 
     91 CB         -5.7448  -25.9898  -50.6604 C.3       16 UNK        -0.1800 
     92 C          -4.2612  -23.9955  -51.3544 C.2       16 UNK         0.5000 
     93 O          -5.1417  -23.6269  -52.1323 O.2       16 UNK        -0.5000 
     94 N          -3.0034  -23.5292  -51.3840 N.am      17 UNK        -0.5000 
     95 CA         -2.4976  -22.5535  -52.3494 C.3       17 UNK         0.1400 
     96 CB         -0.9729  -22.7092  -52.4582 C.3       17 UNK        -0.1800 
     97 C          -2.8773  -21.1129  -51.9680 C.2       17 UNK         0.5000 
     98 O          -3.1290  -20.2911  -52.8518 O.2       17 UNK        -0.5000 
     99 N          -2.9280  -20.8354  -50.6586 N.am      18 UNK        -0.5000 
    100 CA        -3.4446  -19.5868  -50.1035 C.3       18 UNK         0.1400 
    101 CB        -3.0213  -19.4771  -48.6356 C.3       18 UNK        -0.1800 
    102 C         -4.9756  -19.5315  -50.2488 C.2       18 UNK         0.5000 
    103 O         -5.6241  -20.5793  -50.2816 O.2       18 UNK        -0.5000 
    104 N         -5.5168  -18.3144  -50.3921 N.am      19 UNK        -0.5000 
    105 CA        -6.9085  -17.9714  -50.7364 C.3       19 UNK         0.1400 
    106 CB        -7.9251  -18.5775  -49.7491 C.3       19 UNK        -0.1800 
    107 C         -7.2784  -18.2868  -52.2027 C.2       19 UNK         0.5000 
    108 O         -8.0205  -17.5177  -52.8138 O.2       19 UNK        -0.5000 
    109 N         -6.7074  -19.3608  -52.7655 N.am      20 UNK        -0.5000 
    110 CA        -6.7220  -19.6841  -54.1948 C.3       20 UNK         0.1400 
    111 CB        -6.3341  -21.1599  -54.3744 C.3       20 UNK        -0.1800 
    112 C         -5.7939  -18.7713  -55.0276 C.2       20 UNK         0.5000 
    113 O         -5.9370  -18.7263  -56.2496 O.2       20 UNK        -0.5000 
    114 N         -4.8839  -18.0555  -54.3482 N.am      21 UNK        -0.5000 
    115 CA        -3.9168  -17.0884  -54.8754 C.3       21 UNK         0.1400 
    116 CB        -4.6257  -15.9046  -55.5678 C.3       21 UNK        -0.1800 
    117 C         -2.8191  -17.7418  -55.7379 C.2       21 UNK         0.5000 
    118 O         -2.4315  -17.1915  -56.7711 O.2       21 UNK        -0.5000 
    119 N         -2.3132  -18.8868  -55.2627 N.am      22 UNK        -0.5000 
    120 CA        -1.1927  -19.6483  -55.8388 C.3       22 UNK         0.1400 
    121 C         -1.5220  -20.2989  -57.2194 C.2       22 UNK         0.5000 
    122 N         -0.5283  -20.7525  -57.9735 N.am      22 UNK        -0.7600 
    123 O         -2.6798  -20.4539  -57.6015 O.2       22 UNK        -0.5000 
    124 C124        0.1565  -18.8566  -55.8265 C.3       23 UNK        -0.0398 
    125 S125        0.5730  -17.9850  -54.2680 S.3       23 UNK        -0.2404 
    126 C126        0.3851  -19.3083  -53.0334 C.3       23 UNK        -0.0205 
    127 H127       -4.2871  -10.4157  -46.5933 H         1 UNK         0.0600 
    128 H128       -3.4511  -10.0389  -45.0840 H         1 UNK         0.0600 
    129 H129       -4.4450  -11.4945  -45.2040 H         1 UNK         0.0600 
    130 H130       -2.9084  -11.1817  -48.1212 H         1 UNK         0.3000 
    131 H131       -1.4410  -12.3300  -49.2461 H         1 UNK         0.0600 
    132 H132       -1.9035  -14.3023  -47.6738 H         1 UNK         0.0800 
    133 H133       -0.4674  -13.8745  -46.7858 H         1 UNK         0.0800 
    134 H134       -1.3750  -16.5598  -48.2674 H         1 UNK         0.0800 
    135 H135       -1.7534  -16.0009  -49.8798 H         1 UNK         0.0800 
    136 H136       -0.9050  -17.2668  -51.7498 H         1 UNK         0.1150 
    137 H137        2.0363  -20.3245  -51.1218 H         1 UNK         0.1150 
    138 H138        0.8802  -17.7666  -47.8863 H         1 UNK         0.1150 
    139 H139        3.5163  -19.7647  -48.8156 H         1 UNK         0.0800 
    140 H140        2.4587  -19.4563  -47.4652 H         1 UNK         0.0800 
    141 H141       -0.1646  -21.7921  -49.0541 H         1 UNK         0.0800 
    142 H142       -0.0298  -20.7166  -47.6855 H         1 UNK         0.0800 
    143 H143        0.5116  -23.6884  -47.3332 H         1 UNK         0.0600 
    144 H144        0.3726  -21.5047  -45.5120 H         1 UNK         0.3000 
    145 H145        0.0458  -23.5750  -42.5641 H         1 UNK         0.0600 
    146 H146        1.9721  -22.1042  -42.0339 H         1 UNK         0.0600 
    147 H147        2.4276  -23.3210  -43.2176 H         1 UNK         0.0600 
    148 H148        2.1393  -21.6653  -43.7312 H         1 UNK         0.0600 
    149 H149       -0.0432  -20.7413  -42.8677 H         1 UNK         0.3000 
    150 H150       -3.6090  -20.4329  -43.0149 H         1 UNK         0.0600 
    151 H151       -2.9886  -20.7051  -40.6001 H         1 UNK         0.0600 
    152 H152       -3.1431  -19.0124  -41.0466 H         1 UNK         0.0600 
    153 H153       -1.5451  -19.7306  -40.8596 H         1 UNK         0.0600 
    154 H154       -1.6242  -18.4299  -42.9848 H         1 UNK         0.3000 
    155 H155       -1.0103  -18.3126  -46.5389 H         1 UNK         0.0600 
    156 H156       -2.9168  -16.8719  -46.1276 H         1 UNK         0.0600 
    157 H157       -1.4797  -15.9035  -45.8242 H         1 UNK         0.0600 
    158 H158       -2.4177  -16.5425  -44.4792 H         1 UNK         0.0600 
    159 H159        0.2642  -16.8686  -44.4914 H         1 UNK         0.3000 
    160 H160        2.8589  -19.2155  -43.7038 H         1 UNK         0.0600 
    161 H161        2.8166  -16.6005  -45.2810 H         1 UNK         0.0600 
    162 H162        3.6327  -18.0837  -45.7574 H         1 UNK         0.0600 
    163 H163        4.1934  -17.1903  -44.3505 H         1 UNK         0.0600 
    164 H164        2.1165  -16.5278  -42.8847 H         1 UNK         0.3000 
    165 H165        0.3161  -17.5679  -39.9743 H         1 UNK         0.0600 
    166 H166        1.9651  -16.0392  -38.9347 H         1 UNK         0.0600 
    167 H167        2.7377  -17.5612  -39.3486 H         1 UNK         0.0600 
    168 H168        3.0061  -16.1426  -40.3546 H         1 UNK         0.0600 
    169 H169        0.9175  -14.9908  -41.0566 H         1 UNK         0.3000 
    170 H170       -1.8704  -14.6898  -43.2182 H         1 UNK         0.0600 
    171 H171       -2.9419  -14.3918  -40.9786 H         1 UNK         0.0600 
    172 H172       -1.5394  -13.4852  -40.4233 H         1 UNK         0.0600 
    173 H173       -2.5494  -12.8515  -41.7243 H         1 UNK         0.0600 
    174 H174       -0.1827  -12.6686  -42.3803 H         1 UNK         0.3000 
    175 H175        0.9229  -11.8203  -44.3572 H         1 UNK         0.0600 
    176 H176        3.1572  -13.0764  -42.6775 H         1 UNK         0.0600 
    177 H177        3.2240  -11.4475  -43.3509 H         1 UNK         0.0600 
    178 H178        1.9959  -11.8642  -42.1703 H         1 UNK         0.0600 
    179 H179        1.8699  -12.4035  -46.2224 H         1 UNK         0.3000 
    180 H180        4.8729  -13.4709  -47.2078 H         1 UNK         0.0600 
    181 H181        2.6934  -15.5978  -47.5584 H         1 UNK         0.0600 
    182 H182        4.3689  -15.8698  -47.0904 H         1 UNK         0.0600 
    183 H183        3.9978  -15.3000  -48.7066 H         1 UNK         0.0600 
    184 H184        2.2563  -13.3359  -48.5195 H         1 UNK         0.3000 
    185 H185        2.1885   -9.8406  -48.8126 H         1 UNK         0.0600 
    186 H186        3.7398  -10.3507  -50.7041 H         1 UNK         0.0600 
    187 H187        2.8372  -11.8164  -51.0686 H         1 UNK         0.0600 
    188 H188        2.0791  -10.2351  -51.2631 H         1 UNK         0.0600 
    189 H189        0.6329  -11.9458  -49.9851 H         1 UNK         0.3000 
    190 H190       -2.3243  -21.8882  -46.0869 H         1 UNK         0.3000 
    191 H191       -4.2709  -23.0510  -47.7686 H         1 UNK         0.0600 
    192 H192       -4.7839  -21.1047  -46.3588 H         1 UNK         0.0600 
    193 H193       -5.8635  -22.4176  -45.9332 H         1 UNK         0.0600 
    194 H194       -4.4987  -22.0363  -44.8916 H         1 UNK         0.0600 
    195 H195       -2.8813  -24.1912  -44.6682 H         1 UNK         0.3000 
    196 H196       -4.5452  -26.5466  -44.4885 H         1 UNK         0.0600 
    197 H197       -3.0010  -27.1240  -42.6137 H         1 UNK         0.0600 
    198 H198       -3.5862  -25.4720  -42.4795 H         1 UNK         0.0600 
    199 H199       -1.9494  -25.7816  -43.0504 H         1 UNK         0.0600 
    200 H200       -1.1401  -25.9564  -45.4965 H         1 UNK         0.3000 
    201 H201       -0.5419  -28.7186  -45.8600 H         1 UNK         0.0600 
    202 H202        1.1617  -27.0386  -45.2490 H         1 UNK         0.0600 
    203 H203        0.9547  -26.2170  -46.7943 H         1 UNK         0.0600 
    204 H204        1.6183  -27.8458  -46.7410 H         1 UNK         0.0600 
    205 H205       -1.2750  -26.1256  -48.2513 H         1 UNK         0.3000 
    206 H206       -1.2021  -28.1723  -50.4543 H         1 UNK         0.0600 
    207 H207        0.8065  -26.7139  -50.4357 H         1 UNK         0.0600 
    208 H208       -0.2028  -26.3449  -51.8246 H         1 UNK         0.0600 
    209 H209       -0.2073  -25.2727  -50.4284 H         1 UNK         0.0600 
    210 H210       -2.9865  -25.5695  -48.9894 H         1 UNK         0.3000 
    211 H211       -4.8832  -24.5074  -49.3973 H         1 UNK         0.0600 
    212 H212       -5.5661  -26.5134  -51.5995 H         1 UNK         0.0600 
    213 H213       -6.6671  -25.4200  -50.7783 H         1 UNK         0.0600 
    214 H214       -5.9229  -26.7357  -49.8858 H         1 UNK         0.0600 
    215 H215       -2.3469  -23.8922  -50.7080 H         1 UNK         0.3000 
    216 H216       -2.9327  -22.7684  -53.3279 H         1 UNK         0.0600 
    217 H217       -0.5755  -22.0947  -53.2650 H         1 UNK         0.0600 
    218 H218       -0.6972  -23.7403  -52.6807 H         1 UNK         0.0600 
    219 H219       -0.4655  -22.4180  -51.5375 H         1 UNK         0.0600 
    220 H220       -2.7740  -21.5881  -50.0072 H         1 UNK         0.3000 
    221 H221       -3.0064  -18.7529  -50.6558 H         1 UNK         0.0600 
    222 H222       -3.4133  -20.3058  -48.0489 H         1 UNK         0.0600 
    223 H223       -1.9364  -19.4824  -48.5392 H         1 UNK         0.0600 
    224 H224       -3.3841  -18.5528  -48.1850 H         1 UNK         0.0600 
    225 H225       -4.8961  -17.5184  -50.3440 H         1 UNK         0.3000 
    226 H226       -6.9703  -16.8869  -50.6324 H         1 UNK         0.0600 
    227 H227       -7.6578  -18.3503  -48.7172 H         1 UNK         0.0600 
    228 H228       -8.9213  -18.1697  -49.9246 H         1 UNK         0.0600 
    229 H229       -8.0011  -19.6604  -49.8474 H         1 UNK         0.0600 
    230 H230       -6.1646  -19.9718  -52.1650 H         1 UNK         0.3000 
    231 H231       -7.7387  -19.5494  -54.5694 H         1 UNK         0.0600 
    232 H232       -5.3219  -21.3572  -54.0213 H         1 UNK         0.0600 
    233 H233       -6.3766  -21.4509  -55.4246 H         1 UNK         0.0600 
    234 H234       -7.0110  -21.8164  -53.8273 H         1 UNK         0.0600 
    235 H235       -4.8296  -18.2248  -53.3550 H         1 UNK         0.3000 
    236 H236       -3.4000  -16.6835  -54.0040 H         1 UNK         0.0600 
    237 H237       -5.1095  -16.2059  -56.4970 H         1 UNK         0.0600 
    238 H238       -5.3849  -15.4660  -54.9202 H         1 UNK         0.0600 
    239 H239       -3.9143  -15.1154  -55.8136 H         1 UNK         0.0600 
    240 H240       -2.7237  -19.2877  -54.4238 H         1 UNK         0.3000 
    241 H241       -1.0758  -20.5079  -55.1803 H         1 UNK         0.0600 
    242 H242       -0.7513  -21.1898  -58.8546 H         1 UNK         0.3800 
    243 H243        0.4369  -20.6783  -57.6942 H         1 UNK         0.3800 
    244 H244        0.9878  -19.5273  -56.0456 H         1 UNK         0.0800 
    245 H245        0.1562  -18.1111  -56.6232 H         1 UNK         0.0800 
    246 H246       -0.6152  -19.7224  -53.1069 H         1 UNK         0.0800 
    247 H247        1.0824  -20.1139  -53.2679 H         1 UNK         0.0800 
@<TRIPOS>BOND
     1    1    2 1    
     2    1  127 1    
     3    1  128 1    
     4    1  129 1    
     5    2    3 2    
     6    2    4 am   BACKBONE|DICT|INTERRES
     7    4    5 1    
     8    4  130 1    
     9    5    6 1    
    10    5   65 1    
    11    5  131 1    
    12    6    7 1    
    13    6  132 1    
    14    6  133 1    
    15    7    8 1    
    16    8    9 1    
    17    8  134 1    
    18    8  135 1    
    19    9   10 ar   
    20    9   14 ar   
    21   10   11 ar   
    22   10  136 1    
    23   11   12 ar   
    24   11  126 1    
    25   12   13 ar   
    26   12  137 1    
    27   13   14 ar   
    28   13   15 1    
    29   14  138 1    
    30   15   16 1    
    31   15  139 1    
    32   15  140 1    
    33   16   17 1    
    34   17   18 1    
    35   17  141 1    
    36   17  142 1    
    37   18   19 1    
    38   18   67 1    
    39   18  143 1    
    40   19   20 am   BACKBONE|DICT|INTERRES
    41   19  144 1    
    42   20   21 2    
    43   20   22 1    
    44   22   23 1    
    45   22   24 1    
    46   22  145 1    
    47   23  146 1    
    48   23  147 1    
    49   23  148 1    
    50   24   25 am   BACKBONE|DICT|INTERRES
    51   24  149 1    
    52   25   26 2    
    53   25   27 1    
    54   27   28 1    
    55   27   29 1    
    56   27  150 1    
    57   28  151 1    
    58   28  152 1    
    59   28  153 1    
    60   29   30 am   BACKBONE|DICT|INTERRES
    61   29  154 1    
    62   30   31 2    
    63   30   32 1    
    64   32   33 1    
    65   32   34 1    
    66   32  155 1    
    67   33  156 1    
    68   33  157 1    
    69   33  158 1    
    70   34   35 am   BACKBONE|DICT|INTERRES
    71   34  159 1    
    72   35   36 2    
    73   35   37 1    
    74   37   38 1    
    75   37   39 1    
    76   37  160 1    
    77   38  161 1    
    78   38  162 1    
    79   38  163 1    
    80   39   40 am   BACKBONE|DICT|INTERRES
    81   39  164 1    
    82   40   41 2    
    83   40   42 1    
    84   42   43 1    
    85   42   44 1    
    86   42  165 1    
    87   43  166 1    
    88   43  167 1    
    89   43  168 1    
    90   44   45 am   BACKBONE|DICT|INTERRES
    91   44  169 1    
    92   45   46 2    
    93   45   47 1    
    94   47   48 1    
    95   47   49 1    
    96   47  170 1    
    97   48  171 1    
    98   48  172 1    
    99   48  173 1    
   100   49   50 am   BACKBONE|DICT|INTERRES
   101   49  174 1    
   102   50   51 2    
   103   50   52 1    
   104   52   53 1    
   105   52   54 1    
   106   52  175 1    
   107   53  176 1    
   108   53  177 1    
   109   53  178 1    
   110   54   55 am   BACKBONE|DICT|INTERRES
   111   54  179 1    
   112   55   56 2    
   113   55   57 1    
   114   57   58 1    
   115   57   59 1    
   116   57  180 1    
   117   58  181 1    
   118   58  182 1    
   119   58  183 1    
   120   59   60 am   BACKBONE|DICT|INTERRES
   121   59  184 1    
   122   60   61 2    
   123   60   62 1    
   124   62   63 1    
   125   62   64 1    
   126   62  185 1    
   127   63  186 1    
   128   63  187 1    
   129   63  188 1    
   130   64   65 am   BACKBONE|DICT|INTERRES
   131   64  189 1    
   132   65   66 2    
   133   67   68 2    
   134   67   69 am   BACKBONE|DICT|INTERRES
   135   69   70 1    
   136   69  190 1    
   137   70   71 1    
   138   70   72 1    
   139   70  191 1    
   140   71  192 1    
   141   71  193 1    
   142   71  194 1    
   143   72   73 2    
   144   72   74 am   BACKBONE|DICT|INTERRES
   145   74   75 1    
   146   74  195 1    
   147   75   76 1    
   148   75   77 1    
   149   75  196 1    
   150   76  197 1    
   151   76  198 1    
   152   76  199 1    
   153   77   78 2    
   154   77   79 am   BACKBONE|DICT|INTERRES
   155   79   80 1    
   156   79  200 1    
   157   80   81 1    
   158   80   82 1    
   159   80  201 1    
   160   81  202 1    
   161   81  203 1    
   162   81  204 1    
   163   82   83 2    
   164   82   84 am   BACKBONE|DICT|INTERRES
   165   84   85 1    
   166   84  205 1    
   167   85   86 1    
   168   85   87 1    
   169   85  206 1    
   170   86  207 1    
   171   86  208 1    
   172   86  209 1    
   173   87   88 2    
   174   87   89 am   BACKBONE|DICT|INTERRES
   175   89   90 1    
   176   89  210 1    
   177   90   91 1    
   178   90   92 1    
   179   90  211 1    
   180   91  212 1    
   181   91  213 1    
   182   91  214 1    
   183   92   93 2    
   184   92   94 am   BACKBONE|DICT|INTERRES
   185   94   95 1    
   186   94  215 1    
   187   95   96 1    
   188   95   97 1    
   189   95  216 1    
   190   96  217 1    
   191   96  218 1    
   192   96  219 1    
   193   97   98 2    
   194   97   99 am   BACKBONE|DICT|INTERRES
   195   99  100 1    
   196   99  220 1    
   197  100  101 1    
   198  100  102 1    
   199  100  221 1    
   200  101  222 1    
   201  101  223 1    
   202  101  224 1    
   203  102  103 2    
   204  102  104 am   BACKBONE|DICT|INTERRES
   205  104  105 1    
   206  104  225 1    
   207  105  106 1    
   208  105  107 1    
   209  105  226 1    
   210  106  227 1    
   211  106  228 1    
   212  106  229 1    
   213  107  108 2    
   214  107  109 am   BACKBONE|DICT|INTERRES
   215  109  110 1    
   216  109  230 1    
   217  110  111 1    
   218  110  112 1    
   219  110  231 1    
   220  111  232 1    
   221  111  233 1    
   222  111  234 1    
   223  112  113 2    
   224  112  114 am   BACKBONE|DICT|INTERRES
   225  114  115 1    
   226  114  235 1    
   227  115  116 1    
   228  115  117 1    
   229  115  236 1    
   230  116  237 1    
   231  116  238 1    
   232  116  239 1    
   233  117  118 2    
   234  117  119 am   BACKBONE|DICT|INTERRES
   235  119  120 1    
   236  119  240 1    
   237  120  121 1    
   238  120  124 1    
   239  120  241 1    
   240  121  122 am   BACKBONE|DICT|INTERRES
   241  121  123 2    
   242  122  242 1    
   243  122  243 1    
   244  124  125 1    
   245  124  244 1    
   246  124  245 1    
   247  125  126 1    
   248  126  246 1    
   249  126  247 1    
@<TRIPOS>SUBSTRUCTURE
     1 UNK         1 GROUP             0       ****    0 ROOT    
