@<TRIPOS>MOLECULE
3R540
247   249    1
SMALL
USER_CHARGES


@<TRIPOS>ATOM
      1 CA          0.6631  -17.3900  -49.7589 C.3       0 UNK        -0.1800 
      2 C           0.6216  -16.3554  -48.6455 C.2       0 UNK         0.5000 
      3 O           0.9605  -16.6636  -47.5039 O.2       0 UNK        -0.5000 
      4 N           0.2284  -15.1199  -48.9726 N.am      1 UNK        -0.5000 
      5 CA          0.1437  -13.9566  -48.0787 C.3       1 UNK         0.1400 
      6 C6         -0.8925  -12.9077  -48.5755 C.3       23 UNK        -0.0398 
      7 S7         -0.7950  -12.5395  -50.3682 S.3       23 UNK        -0.2404 
      8 C8         -2.4721  -12.9639  -50.9488 C.3       23 UNK        -0.0205 
      9 C9         -2.8143  -14.4308  -50.7261 C.ar      23 UNK        -0.0193 
     10 C10        -2.3217  -15.4122  -51.5926 C.ar      23 UNK        -0.1150 
     11 C11        -2.6238  -16.7600  -51.3774 C.ar      23 UNK        -0.0193 
     12 C12        -3.4141  -17.1156  -50.2825 C.ar      23 UNK        -0.1150 
     13 C13        -3.9242  -16.1492  -49.4137 C.ar      23 UNK        -0.0193 
     14 C14        -3.6286  -14.8053  -49.6517 C.ar      23 UNK        -0.1150 
     15 C15        -4.8092  -16.5395  -48.2319 C.3       23 UNK        -0.0205 
     16 S16        -4.2175  -17.9953  -47.3010 S.3       23 UNK        -0.2404 
     17 C17        -2.5915  -17.4119  -46.7116 C.3       23 UNK        -0.0398 
     18 CA         -1.6261  -18.4574  -46.0804 C.3       11 UNK         0.1400 
     19 N          -1.9792  -18.9220  -44.7338 N.am      11 UNK        -0.5000 
     20 C          -2.9334  -19.7929  -44.3792 C.2       10 UNK         0.5000 
     21 O          -3.7407  -20.3009  -45.1555 O.2       10 UNK        -0.5000 
     22 CA         -2.9284  -20.2015  -42.8890 C.3       10 UNK         0.1400 
     23 CB         -3.9648  -21.2964  -42.5606 C.3       10 UNK        -0.1800 
     24 N          -1.5979  -20.6071  -42.4153 N.am      10 UNK        -0.5000 
     25 C          -0.8089  -21.5565  -42.9440 C.2       9 UNK         0.5000 
     26 O          -1.1146  -22.2281  -43.9288 O.2       9 UNK        -0.5000 
     27 CA          0.5622  -21.7898  -42.2875 C.3       9 UNK         0.1400 
     28 CB          1.6818  -21.9238  -43.3358 C.3       9 UNK        -0.1800 
     29 N           0.9214  -20.7233  -41.3513 N.am      9 UNK        -0.5000 
     30 C           1.3487  -20.9308  -40.0997 C.2       8 UNK         0.5000 
     31 O           1.4022  -22.0408  -39.5684 O.2       8 UNK        -0.5000 
     32 CA          1.8256  -19.7045  -39.3048 C.3       8 UNK         0.1400 
     33 CB          3.3501  -19.5562  -39.4325 C.3       8 UNK        -0.1800 
     34 N           1.1917  -18.4472  -39.7026 N.am      8 UNK        -0.5000 
     35 C          -0.0548  -18.0889  -39.3677 C.2       7 UNK         0.5000 
     36 O          -0.8608  -18.8457  -38.8262 O.2       7 UNK        -0.5000 
     37 CA         -0.4624  -16.6385  -39.6700 C.3       7 UNK         0.1400 
     38 CB          0.2181  -15.6720  -38.6873 C.3       7 UNK        -0.1800 
     39 N          -0.1054  -16.2583  -41.0333 N.am      7 UNK        -0.5000 
     40 C          -0.9636  -16.2213  -42.0603 C.2       6 UNK         0.5000 
     41 O          -2.1592  -16.5013  -41.9715 O.2       6 UNK        -0.5000 
     42 CA         -0.3816  -15.8355  -43.4338 C.3       6 UNK         0.1400 
     43 CB         -0.4087  -14.3116  -43.6212 C.3       6 UNK        -0.1800 
     44 N           0.9799  -16.3281  -43.6506 N.am      6 UNK        -0.5000 
     45 C           1.3520  -17.6140  -43.5979 C.2       5 UNK         0.5000 
     46 O           0.5665  -18.5449  -43.4150 O.2       5 UNK        -0.5000 
     47 CA          2.8510  -17.9252  -43.7306 C.3       5 UNK         0.1400 
     48 CB          3.1959  -18.2238  -45.1956 C.3       5 UNK        -0.1800 
     49 N           3.7447  -16.8845  -43.2109 N.am      5 UNK        -0.5000 
     50 C           3.7768  -16.4495  -41.9415 C.2       4 UNK         0.5000 
     51 O           2.9527  -16.7691  -41.0843 O.2       4 UNK        -0.5000 
     52 CA          4.9199  -15.4889  -41.5746 C.3       4 UNK         0.1400 
     53 CB          6.2895  -16.1757  -41.7013 C.3       4 UNK        -0.1800 
     54 N           4.8895  -14.2921  -42.4102 N.am      4 UNK        -0.5000 
     55 C           4.0512  -13.2659  -42.2154 C.2       3 UNK         0.5000 
     56 O           3.2899  -13.1731  -41.2518 O.2       3 UNK        -0.5000 
     57 CA          4.0429  -12.1658  -43.2949 C.3       3 UNK         0.1400 
     58 CB          5.0916  -11.0897  -42.9742 C.3       3 UNK        -0.1800 
     59 N           4.2476  -12.6449  -44.6682 N.am      3 UNK        -0.5000 
     60 C           3.4961  -13.5692  -45.2806 C.2       2 UNK         0.5000 
     61 O           2.6298  -14.2368  -44.7110 O.2       2 UNK        -0.5000 
     62 CA          3.7590  -13.7996  -46.7787 C.3       2 UNK         0.1400 
     63 CB          4.8143  -14.8952  -46.9890 C.3       2 UNK        -0.1800 
     64 N           2.5107  -14.1949  -47.4286 N.am      2 UNK        -0.5000 
     65 C           1.5262  -13.3427  -47.7398 C.2       1 UNK         0.5000 
     66 O           1.6792  -12.1194  -47.7325 O.2       1 UNK        -0.5000 
     67 C          -1.1386  -19.6048  -46.9930 C.2       11 UNK         0.5000 
     68 O          -1.5475  -19.7244  -48.1487 O.2       11 UNK        -0.5000 
     69 N          -0.2275  -20.4114  -46.4248 N.am      12 UNK        -0.5000 
     70 CA          0.4936  -21.5262  -47.0434 C.3       12 UNK         0.1400 
     71 CB          1.4245  -21.0192  -48.1650 C.3       12 UNK        -0.1800 
     72 C          -0.4324  -22.6734  -47.4910 C.2       12 UNK         0.5000 
     73 O          -0.2495  -23.2306  -48.5736 O.2       12 UNK        -0.5000 
     74 N          -1.3887  -23.0448  -46.6296 N.am      13 UNK        -0.5000 
     75 CA         -2.4230  -24.0587  -46.8699 C.3       13 UNK         0.1400 
     76 CB         -3.4211  -24.0350  -45.7020 C.3       13 UNK        -0.1800 
     77 C          -1.9080  -25.4898  -47.1220 C.2       13 UNK         0.5000 
     78 O          -2.6765  -26.3362  -47.5795 O.2       13 UNK        -0.5000 
     79 N          -0.6195  -25.7335  -46.8528 N.am      14 UNK        -0.5000 
     80 CA          0.0955  -26.9602  -47.1990 C.3       14 UNK         0.1400 
     81 CB          1.4637  -26.9443  -46.4998 C.3       14 UNK        -0.1800 
     82 C           0.2710  -27.1680  -48.7196 C.2       14 UNK         0.5000 
     83 O           0.4780  -28.3080  -49.1385 O.2       14 UNK        -0.5000 
     84 N           0.1979  -26.0885  -49.5139 N.am      15 UNK        -0.5000 
     85 CA          0.3687  -26.1277  -50.9692 C.3       15 UNK         0.1400 
     86 CB          1.8433  -25.8582  -51.3151 C.3       15 UNK        -0.1800 
     87 C          -0.5512  -25.1520  -51.7248 C.2       15 UNK         0.5000 
     88 O          -0.9023  -25.4366  -52.8708 O.2       15 UNK        -0.5000 
     89 N          -0.9094  -24.0246  -51.1005 N.am      16 UNK        -0.5000 
     90 CA         -1.7003  -22.9449  -51.6792 C.3       16 UNK         0.1400 
     91 CB         -0.8310  -21.6721  -51.7136 C.3       16 UNK        -0.1800 
     92 C          -3.0194  -22.7948  -50.8963 C.2       16 UNK         0.5000 
     93 O          -3.7433  -23.7814  -50.7517 O.2       16 UNK        -0.5000 
     94 N          -3.3377  -21.5714  -50.4495 N.am      17 UNK        -0.5000 
     95 CA         -4.5611  -21.1049  -49.7776 C.3       17 UNK         0.1400 
     96 CB         -4.7973  -21.8137  -48.4341 C.3       17 UNK        -0.1800 
     97 C          -5.8318  -21.1220  -50.6505 C.2       17 UNK         0.5000 
     98 O          -6.6266  -20.1840  -50.5743 O.2       17 UNK        -0.5000 
     99 N          -6.0106  -22.1731  -51.4580 N.am      18 UNK        -0.5000 
    100 CA        -7.1011  -22.3291  -52.4156 C.3       18 UNK         0.1400 
    101 CB        -7.0826  -23.7668  -52.9569 C.3       18 UNK        -0.1800 
    102 C         -6.9852  -21.3280  -53.5772 C.2       18 UNK         0.5000 
    103 O         -5.8874  -21.1177  -54.0985 O.2       18 UNK        -0.5000 
    104 N         -8.1280  -20.7832  -54.0143 N.am      19 UNK        -0.5000 
    105 CA        -8.2305  -19.8361  -55.1306 C.3       19 UNK         0.1400 
    106 CB        -9.6787  -19.3365  -55.2384 C.3       19 UNK        -0.1800 
    107 C         -7.7562  -20.4130  -56.4790 C.2       19 UNK         0.5000 
    108 O         -7.2619  -19.6625  -57.3195 O.2       19 UNK        -0.5000 
    109 N         -7.8664  -21.7388  -56.6416 N.am      20 UNK        -0.5000 
    110 CA        -7.3493  -22.4882  -57.7877 C.3       20 UNK         0.1400 
    111 CB        -7.8609  -23.9347  -57.7075 C.3       20 UNK        -0.1800 
    112 C         -5.8100  -22.4661  -57.8917 C.2       20 UNK         0.5000 
    113 O         -5.2824  -22.5813  -58.9987 O.2       20 UNK        -0.5000 
    114 N         -5.1229  -22.3139  -56.7509 N.am      21 UNK        -0.5000 
    115 CA        -3.6720  -22.1662  -56.6737 C.3       21 UNK         0.1400 
    116 CB        -3.1558  -22.8536  -55.3980 C.3       21 UNK        -0.1800 
    117 C         -3.2724  -20.6820  -56.6913 C.2       21 UNK         0.5000 
    118 O         -2.3575  -20.3085  -57.4266 O.2       21 UNK        -0.5000 
    119 N         -3.9528  -19.8709  -55.8719 N.am      22 UNK        -0.5000 
    120 CA        -3.6288  -18.4522  -55.6493 C.3       22 UNK         0.1400 
    121 C         -4.0993  -17.4834  -56.7701 C.2       22 UNK         0.5000 
    122 N         -5.0585  -17.8417  -57.6132 N.am      22 UNK        -0.7600 
    123 O         -3.5705  -16.3811  -56.8853 O.2       22 UNK        -0.5000 
    124 C124       -4.1114  -17.9687  -54.2596 C.3       23 UNK        -0.0398 
    125 S125       -3.3775  -18.9575  -52.9146 S.3       23 UNK        -0.2404 
    126 C126       -2.0755  -17.8406  -52.2995 C.3       23 UNK        -0.0205 
    127 H127       -0.1646  -18.0883  -49.6497 H         1 UNK         0.0600 
    128 H128        1.5945  -17.9544  -49.7159 H         1 UNK         0.0600 
    129 H129        0.5914  -16.9256  -50.7426 H         1 UNK         0.0600 
    130 H130       -0.0306  -14.9228  -49.9294 H         1 UNK         0.3000 
    131 H131       -0.2334  -14.3213  -47.1208 H         1 UNK         0.0600 
    132 H132       -0.8169  -11.9698  -48.0230 H         1 UNK         0.0800 
    133 H133       -1.8897  -13.2691  -48.3357 H         1 UNK         0.0800 
    134 H134       -2.5452  -12.7335  -52.0126 H         1 UNK         0.0800 
    135 H135       -3.1978  -12.3199  -50.4496 H         1 UNK         0.0800 
    136 H136       -1.6979  -15.1244  -52.4274 H         1 UNK         0.1150 
    137 H137       -3.6325  -18.1554  -50.1098 H         1 UNK         0.1150 
    138 H138       -4.0261  -14.0474  -48.9915 H         1 UNK         0.1150 
    139 H139       -4.9109  -15.7048  -47.5368 H         1 UNK         0.0800 
    140 H140       -5.8105  -16.7524  -48.6078 H         1 UNK         0.0800 
    141 H141       -2.0832  -16.9395  -47.5521 H         1 UNK         0.0800 
    142 H142       -2.7701  -16.6098  -45.9952 H         1 UNK         0.0800 
    143 H143       -0.7101  -17.8939  -45.9034 H         1 UNK         0.0600 
    144 H144       -1.3126  -18.6618  -44.0143 H         1 UNK         0.3000 
    145 H145       -3.2010  -19.3079  -42.3253 H         1 UNK         0.0600 
    146 H146       -3.9690  -21.5276  -41.4955 H         1 UNK         0.0600 
    147 H147       -4.9721  -20.9740  -42.8266 H         1 UNK         0.0600 
    148 H148       -3.7629  -22.2207  -43.1029 H         1 UNK         0.0600 
    149 H149       -1.2508  -20.1125  -41.6063 H         1 UNK         0.3000 
    150 H150        0.4759  -22.7446  -41.7655 H         1 UNK         0.0600 
    151 H151        1.4988  -22.7682  -44.0010 H         1 UNK         0.0600 
    152 H152        2.6471  -22.0963  -42.8595 H         1 UNK         0.0600 
    153 H153        1.7685  -21.0272  -43.9494 H         1 UNK         0.0600 
    154 H154        0.8978  -19.7804  -41.7221 H         1 UNK         0.3000 
    155 H155        1.5926  -19.8844  -38.2530 H         1 UNK         0.0600 
    156 H156        3.8615  -20.4515  -39.0766 H         1 UNK         0.0600 
    157 H157        3.7167  -18.7162  -38.8421 H         1 UNK         0.0600 
    158 H158        3.6531  -19.3959  -40.4679 H         1 UNK         0.0600 
    159 H159        1.7971  -17.7706  -40.1643 H         1 UNK         0.3000 
    160 H160       -1.5414  -16.5567  -39.5223 H         1 UNK         0.0600 
    161 H161        1.3039  -15.6827  -38.7931 H         1 UNK         0.0600 
    162 H162       -0.0154  -15.9346  -37.6547 H         1 UNK         0.0600 
    163 H163       -0.1212  -14.6484  -38.8469 H         1 UNK         0.0600 
    164 H164        0.8738  -16.0703  -41.2114 H         1 UNK         0.3000 
    165 H165       -1.0228  -16.2753  -44.1968 H         1 UNK         0.0600 
    166 H166       -0.1130  -14.0345  -44.6328 H         1 UNK         0.0600 
    167 H167       -1.4101  -13.9122  -43.4555 H         1 UNK         0.0600 
    168 H168        0.2672  -13.8104  -42.9270 H         1 UNK         0.0600 
    169 H169        1.6847  -15.6253  -43.8646 H         1 UNK         0.3000 
    170 H170        3.0429  -18.8288  -43.1485 H         1 UNK         0.0600 
    171 H171        2.6077  -19.0623  -45.5708 H         1 UNK         0.0600 
    172 H172        2.9812  -17.3691  -45.8361 H         1 UNK         0.0600 
    173 H173        4.2473  -18.4851  -45.3149 H         1 UNK         0.0600 
    174 H174        4.4334  -16.5285  -43.8552 H         1 UNK         0.3000 
    175 H175        4.7899  -15.1993  -40.5294 H         1 UNK         0.0600 
    176 H176        6.3263  -17.0848  -41.0994 H         1 UNK         0.0600 
    177 H177        6.5169  -16.4536  -42.7310 H         1 UNK         0.0600 
    178 H178        7.0881  -15.5225  -41.3492 H         1 UNK         0.0600 
    179 H179        5.4764  -14.2827  -43.2309 H         1 UNK         0.3000 
    180 H180        3.0572  -11.6968  -43.2640 H         1 UNK         0.0600 
    181 H181        4.9533  -10.6964  -41.9661 H         1 UNK         0.0600 
    182 H182        6.1060  -11.4858  -43.0357 H         1 UNK         0.0600 
    183 H183        5.0169  -10.2472  -43.6620 H         1 UNK         0.0600 
    184 H184        4.9510  -12.1590  -45.2057 H         1 UNK         0.3000 
    185 H185        4.1234  -12.8731  -47.2274 H         1 UNK         0.0600 
    186 H186        5.7713  -14.6029  -46.5553 H         1 UNK         0.0600 
    187 H187        4.5214  -15.8371  -46.5281 H         1 UNK         0.0600 
    188 H188        4.9824  -15.0805  -48.0500 H         1 UNK         0.0600 
    189 H189        2.2669  -15.1791  -47.3847 H         1 UNK         0.3000 
    190 H190       -0.0110  -20.2430  -45.4528 H         1 UNK         0.3000 
    191 H191        1.1302  -21.9475  -46.2658 H         1 UNK         0.0600 
    192 H192        0.8646  -20.5976  -48.9991 H         1 UNK         0.0600 
    193 H193        2.0402  -21.8278  -48.5603 H         1 UNK         0.0600 
    194 H194        2.1005  -20.2476  -47.7968 H         1 UNK         0.0600 
    195 H195       -1.4215  -22.5872  -45.7204 H         1 UNK         0.3000 
    196 H196       -2.9464  -23.7737  -47.7817 H         1 UNK         0.0600 
    197 H197       -4.2338  -24.7444  -45.8620 H         1 UNK         0.0600 
    198 H198       -3.8710  -23.0487  -45.5891 H         1 UNK         0.0600 
    199 H199       -2.9380  -24.2917  -44.7585 H         1 UNK         0.0600 
    200 H200       -0.0696  -24.9805  -46.4679 H         1 UNK         0.3000 
    201 H201       -0.4773  -27.8069  -46.8151 H         1 UNK         0.0600 
    202 H202        2.0189  -27.8604  -46.7060 H         1 UNK         0.0600 
    203 H203        2.0768  -26.1067  -46.8351 H         1 UNK         0.0600 
    204 H204        1.3538  -26.8696  -45.4177 H         1 UNK         0.0600 
    205 H205        0.0230  -25.1832  -49.0931 H         1 UNK         0.3000 
    206 H206        0.1105  -27.1230  -51.3372 H         1 UNK         0.0600 
    207 H207        2.4958  -26.6144  -50.8784 H         1 UNK         0.0600 
    208 H208        2.0033  -25.8756  -52.3940 H         1 UNK         0.0600 
    209 H209        2.1673  -24.8832  -50.9490 H         1 UNK         0.0600 
    210 H210       -0.6009  -23.8464  -50.1466 H         1 UNK         0.3000 
    211 H211       -1.9782  -23.1849  -52.7064 H         1 UNK         0.0600 
    212 H212       -1.3236  -20.8746  -52.2664 H         1 UNK         0.0600 
    213 H213        0.1176  -21.8612  -52.2163 H         1 UNK         0.0600 
    214 H214       -0.6046  -21.3044  -50.7124 H         1 UNK         0.0600 
    215 H215       -2.6672  -20.8362  -50.6253 H         1 UNK         0.3000 
    216 H216       -4.3759  -20.0613  -49.5371 H         1 UNK         0.0600 
    217 H217       -5.6690  -21.3994  -47.9263 H         1 UNK         0.0600 
    218 H218       -3.9468  -21.6674  -47.7682 H         1 UNK         0.0600 
    219 H219       -4.9705  -22.8826  -48.5558 H         1 UNK         0.0600 
    220 H220       -5.3048  -22.9022  -51.4358 H         1 UNK         0.3000 
    221 H221       -8.0437  -22.1627  -51.8903 H         1 UNK         0.0600 
    222 H222       -6.1500  -23.9880  -53.4784 H         1 UNK         0.0600 
    223 H223       -7.1949  -24.4927  -52.1513 H         1 UNK         0.0600 
    224 H224       -7.9000  -23.9331  -53.6597 H         1 UNK         0.0600 
    225 H225       -8.9917  -21.0153  -53.5450 H         1 UNK         0.3000 
    226 H226       -7.5900  -18.9822  -54.9000 H         1 UNK         0.0600 
    227 H227       -9.9961  -18.8443  -54.3189 H         1 UNK         0.0600 
    228 H228       -9.7822  -18.6102  -56.0459 H         1 UNK         0.0600 
    229 H229      -10.3726  -20.1533  -55.4405 H         1 UNK         0.0600 
    230 H230       -8.2919  -22.2768  -55.9016 H         1 UNK         0.3000 
    231 H231       -7.7476  -22.0322  -58.6965 H         1 UNK         0.0600 
    232 H232       -8.9505  -23.9692  -57.7115 H         1 UNK         0.0600 
    233 H233       -7.5111  -24.4357  -56.8039 H         1 UNK         0.0600 
    234 H234       -7.5156  -24.5191  -58.5615 H         1 UNK         0.0600 
    235 H235       -5.6316  -22.1683  -55.8877 H         1 UNK         0.3000 
    236 H236       -3.2005  -22.6552  -57.5289 H         1 UNK         0.0600 
    237 H237       -3.4024  -23.9154  -55.3950 H         1 UNK         0.0600 
    238 H238       -2.0707  -22.7718  -55.3238 H         1 UNK         0.0600 
    239 H239       -3.5791  -22.4109  -54.4958 H         1 UNK         0.0600 
    240 H240       -4.6641  -20.2674  -55.2637 H         1 UNK         0.3000 
    241 H241       -2.5396  -18.3719  -55.6434 H         1 UNK         0.0600 
    242 H242       -5.5782  -18.7053  -57.4949 H         1 UNK         0.3800 
    243 H243       -5.3381  -17.1990  -58.3366 H         1 UNK         0.3800 
    244 H244       -3.8694  -16.9159  -54.1031 H         1 UNK         0.0800 
    245 H245       -5.1973  -18.0469  -54.1865 H         1 UNK         0.0800 
    246 H246       -1.5385  -17.4066  -53.1443 H         1 UNK         0.0800 
    247 H247       -1.3485  -18.4323  -51.7438 H         1 UNK         0.0800 
@<TRIPOS>BOND
     1    1    2 1    
     2    1  127 1    
     3    1  128 1    
     4    1  129 1    
     5    2    3 2    
     6    2    4 am   BACKBONE|DICT|INTERRES
     7    4    5 1    
     8    4  130 1    
     9    5    6 1    
    10    5   65 1    
    11    5  131 1    
    12    6    7 1    
    13    6  132 1    
    14    6  133 1    
    15    7    8 1    
    16    8    9 1    
    17    8  134 1    
    18    8  135 1    
    19    9   10 ar   
    20    9   14 ar   
    21   10   11 ar   
    22   10  136 1    
    23   11   12 ar   
    24   11  126 1    
    25   12   13 ar   
    26   12  137 1    
    27   13   14 ar   
    28   13   15 1    
    29   14  138 1    
    30   15   16 1    
    31   15  139 1    
    32   15  140 1    
    33   16   17 1    
    34   17   18 1    
    35   17  141 1    
    36   17  142 1    
    37   18   19 1    
    38   18   67 1    
    39   18  143 1    
    40   19   20 am   BACKBONE|DICT|INTERRES
    41   19  144 1    
    42   20   21 2    
    43   20   22 1    
    44   22   23 1    
    45   22   24 1    
    46   22  145 1    
    47   23  146 1    
    48   23  147 1    
    49   23  148 1    
    50   24   25 am   BACKBONE|DICT|INTERRES
    51   24  149 1    
    52   25   26 2    
    53   25   27 1    
    54   27   28 1    
    55   27   29 1    
    56   27  150 1    
    57   28  151 1    
    58   28  152 1    
    59   28  153 1    
    60   29   30 am   BACKBONE|DICT|INTERRES
    61   29  154 1    
    62   30   31 2    
    63   30   32 1    
    64   32   33 1    
    65   32   34 1    
    66   32  155 1    
    67   33  156 1    
    68   33  157 1    
    69   33  158 1    
    70   34   35 am   BACKBONE|DICT|INTERRES
    71   34  159 1    
    72   35   36 2    
    73   35   37 1    
    74   37   38 1    
    75   37   39 1    
    76   37  160 1    
    77   38  161 1    
    78   38  162 1    
    79   38  163 1    
    80   39   40 am   BACKBONE|DICT|INTERRES
    81   39  164 1    
    82   40   41 2    
    83   40   42 1    
    84   42   43 1    
    85   42   44 1    
    86   42  165 1    
    87   43  166 1    
    88   43  167 1    
    89   43  168 1    
    90   44   45 am   BACKBONE|DICT|INTERRES
    91   44  169 1    
    92   45   46 2    
    93   45   47 1    
    94   47   48 1    
    95   47   49 1    
    96   47  170 1    
    97   48  171 1    
    98   48  172 1    
    99   48  173 1    
   100   49   50 am   BACKBONE|DICT|INTERRES
   101   49  174 1    
   102   50   51 2    
   103   50   52 1    
   104   52   53 1    
   105   52   54 1    
   106   52  175 1    
   107   53  176 1    
   108   53  177 1    
   109   53  178 1    
   110   54   55 am   BACKBONE|DICT|INTERRES
   111   54  179 1    
   112   55   56 2    
   113   55   57 1    
   114   57   58 1    
   115   57   59 1    
   116   57  180 1    
   117   58  181 1    
   118   58  182 1    
   119   58  183 1    
   120   59   60 am   BACKBONE|DICT|INTERRES
   121   59  184 1    
   122   60   61 2    
   123   60   62 1    
   124   62   63 1    
   125   62   64 1    
   126   62  185 1    
   127   63  186 1    
   128   63  187 1    
   129   63  188 1    
   130   64   65 am   BACKBONE|DICT|INTERRES
   131   64  189 1    
   132   65   66 2    
   133   67   68 2    
   134   67   69 am   BACKBONE|DICT|INTERRES
   135   69   70 1    
   136   69  190 1    
   137   70   71 1    
   138   70   72 1    
   139   70  191 1    
   140   71  192 1    
   141   71  193 1    
   142   71  194 1    
   143   72   73 2    
   144   72   74 am   BACKBONE|DICT|INTERRES
   145   74   75 1    
   146   74  195 1    
   147   75   76 1    
   148   75   77 1    
   149   75  196 1    
   150   76  197 1    
   151   76  198 1    
   152   76  199 1    
   153   77   78 2    
   154   77   79 am   BACKBONE|DICT|INTERRES
   155   79   80 1    
   156   79  200 1    
   157   80   81 1    
   158   80   82 1    
   159   80  201 1    
   160   81  202 1    
   161   81  203 1    
   162   81  204 1    
   163   82   83 2    
   164   82   84 am   BACKBONE|DICT|INTERRES
   165   84   85 1    
   166   84  205 1    
   167   85   86 1    
   168   85   87 1    
   169   85  206 1    
   170   86  207 1    
   171   86  208 1    
   172   86  209 1    
   173   87   88 2    
   174   87   89 am   BACKBONE|DICT|INTERRES
   175   89   90 1    
   176   89  210 1    
   177   90   91 1    
   178   90   92 1    
   179   90  211 1    
   180   91  212 1    
   181   91  213 1    
   182   91  214 1    
   183   92   93 2    
   184   92   94 am   BACKBONE|DICT|INTERRES
   185   94   95 1    
   186   94  215 1    
   187   95   96 1    
   188   95   97 1    
   189   95  216 1    
   190   96  217 1    
   191   96  218 1    
   192   96  219 1    
   193   97   98 2    
   194   97   99 am   BACKBONE|DICT|INTERRES
   195   99  100 1    
   196   99  220 1    
   197  100  101 1    
   198  100  102 1    
   199  100  221 1    
   200  101  222 1    
   201  101  223 1    
   202  101  224 1    
   203  102  103 2    
   204  102  104 am   BACKBONE|DICT|INTERRES
   205  104  105 1    
   206  104  225 1    
   207  105  106 1    
   208  105  107 1    
   209  105  226 1    
   210  106  227 1    
   211  106  228 1    
   212  106  229 1    
   213  107  108 2    
   214  107  109 am   BACKBONE|DICT|INTERRES
   215  109  110 1    
   216  109  230 1    
   217  110  111 1    
   218  110  112 1    
   219  110  231 1    
   220  111  232 1    
   221  111  233 1    
   222  111  234 1    
   223  112  113 2    
   224  112  114 am   BACKBONE|DICT|INTERRES
   225  114  115 1    
   226  114  235 1    
   227  115  116 1    
   228  115  117 1    
   229  115  236 1    
   230  116  237 1    
   231  116  238 1    
   232  116  239 1    
   233  117  118 2    
   234  117  119 am   BACKBONE|DICT|INTERRES
   235  119  120 1    
   236  119  240 1    
   237  120  121 1    
   238  120  124 1    
   239  120  241 1    
   240  121  122 am   BACKBONE|DICT|INTERRES
   241  121  123 2    
   242  122  242 1    
   243  122  243 1    
   244  124  125 1    
   245  124  244 1    
   246  124  245 1    
   247  125  126 1    
   248  126  246 1    
   249  126  247 1    
@<TRIPOS>SUBSTRUCTURE
     1 UNK         1 GROUP             0       ****    0 ROOT    
