@<TRIPOS>MOLECULE
3R540
247   249    1
SMALL
USER_CHARGES


@<TRIPOS>ATOM
      1 CA          6.6484  -15.6743  -47.1793 C.3       0 UNK        -0.1800 
      2 C           5.7321  -14.8196  -46.3154 C.2       0 UNK         0.5000 
      3 O           5.8101  -14.8840  -45.0889 O.2       0 UNK        -0.5000 
      4 N           4.8569  -14.0330  -46.9520 N.am      1 UNK        -0.5000 
      5 CA          3.9063  -13.1293  -46.3010 C.3       1 UNK         0.1400 
      6 C6          2.7937  -12.6624  -47.2742 C.3       23 UNK        -0.0398 
      7 S7          1.7561  -14.0490  -47.8505 S.3       23 UNK        -0.2404 
      8 C8          2.3951  -14.3107  -49.5319 C.3       23 UNK        -0.0205 
      9 C9          1.8981  -15.6300  -50.0978 C.ar      23 UNK        -0.0193 
     10 C10         0.7064  -15.6825  -50.8271 C.ar      23 UNK        -0.1150 
     11 C11         0.2351  -16.8987  -51.3313 C.ar      23 UNK        -0.0193 
     12 C12         0.9802  -18.0605  -51.1150 C.ar      23 UNK        -0.1150 
     13 C13         2.1771  -18.0216  -50.3969 C.ar      23 UNK        -0.0193 
     14 C14         2.6293  -16.8026  -49.8854 C.ar      23 UNK        -0.1150 
     15 C15         2.9839  -19.2948  -50.1879 C.3       23 UNK        -0.0205 
     16 S16         2.3796  -20.2647  -48.7718 S.3       23 UNK        -0.2404 
     17 C17         0.8259  -20.9518  -49.4388 C.3       23 UNK        -0.0398 
     18 CA          0.3262  -22.1756  -48.6410 C.3       11 UNK         0.1400 
     19 N           0.0306  -21.8532  -47.2428 N.am      11 UNK        -0.5000 
     20 C          -0.2798  -22.7531  -46.3001 C.2       10 UNK         0.5000 
     21 O          -0.2966  -23.9687  -46.4913 O.2       10 UNK        -0.5000 
     22 CA         -0.6943  -22.1970  -44.9289 C.3       10 UNK         0.1400 
     23 CB          0.5364  -21.8869  -44.0633 C.3       10 UNK        -0.1800 
     24 N          -1.5221  -20.9987  -45.0655 N.am      10 UNK        -0.5000 
     25 C          -2.7948  -21.0087  -45.4855 C.2       9 UNK         0.5000 
     26 O          -3.4127  -22.0363  -45.7644 O.2       9 UNK        -0.5000 
     27 CA         -3.4799  -19.6397  -45.6565 C.3       9 UNK         0.1400 
     28 CB         -4.0230  -19.1330  -44.3122 C.3       9 UNK        -0.1800 
     29 N          -2.5968  -18.6253  -46.2350 N.am      9 UNK        -0.5000 
     30 C          -2.1137  -18.6716  -47.4839 C.2       8 UNK         0.5000 
     31 O          -2.3700  -19.5702  -48.2820 O.2       8 UNK        -0.5000 
     32 CA         -1.1491  -17.5504  -47.9054 C.3       8 UNK         0.1400 
     33 CB         -1.9377  -16.3251  -48.3916 C.3       8 UNK        -0.1800 
     34 N          -0.1971  -17.1270  -46.8772 N.am      8 UNK        -0.5000 
     35 C           0.6053  -17.9166  -46.1460 C.2       7 UNK         0.5000 
     36 O           0.5474  -19.1454  -46.1513 O.2       7 UNK        -0.5000 
     37 CA          1.6521  -17.2199  -45.2569 C.3       7 UNK         0.1400 
     38 CB          3.0573  -17.4118  -45.8476 C.3       7 UNK        -0.1800 
     39 N           1.3936  -15.7859  -45.1206 N.am      7 UNK        -0.5000 
     40 C           0.5863  -15.2363  -44.2076 C.2       6 UNK         0.5000 
     41 O           0.0234  -15.8697  -43.3124 O.2       6 UNK        -0.5000 
     42 CA          0.3231  -13.7286  -44.3630 C.3       6 UNK         0.1400 
     43 CB         -1.0256  -13.4815  -45.0554 C.3       6 UNK        -0.1800 
     44 N           0.3352  -13.0433  -43.0768 N.am      6 UNK        -0.5000 
     45 C           1.4344  -12.7955  -42.3570 C.2       5 UNK         0.5000 
     46 O           2.5752  -13.0762  -42.7331 O.2       5 UNK        -0.5000 
     47 CA          1.2034  -12.0449  -41.0334 C.3       5 UNK         0.1400 
     48 CB          2.4170  -12.0883  -40.0901 C.3       5 UNK        -0.1800 
     49 N           0.8658  -10.6532  -41.3242 N.am      5 UNK        -0.5000 
     50 C          -0.3701  -10.2110  -41.5966 C.2       4 UNK         0.5000 
     51 O          -1.3734  -10.9234  -41.5339 O.2       4 UNK        -0.5000 
     52 CA         -0.5169   -8.7421  -42.0404 C.3       4 UNK         0.1400 
     53 CB         -0.8552   -7.8483  -40.8377 C.3       4 UNK        -0.1800 
     54 N           0.6715   -8.2106  -42.7102 N.am      4 UNK        -0.5000 
     55 C           1.1354   -8.6186  -43.8994 C.2       3 UNK         0.5000 
     56 O           0.5879   -9.4802  -44.5893 O.2       3 UNK        -0.5000 
     57 CA          2.4464   -7.9797  -44.4029 C.3       3 UNK         0.1400 
     58 CB          2.8478   -6.6836  -43.6621 C.3       3 UNK        -0.1800 
     59 N           3.5477   -8.9466  -44.3854 N.am      3 UNK        -0.5000 
     60 C           4.0142   -9.6210  -43.3243 C.2       2 UNK         0.5000 
     61 O           3.5743   -9.4959  -42.1792 O.2       2 UNK        -0.5000 
     62 CA          5.1243  -10.6394  -43.6273 C.3       2 UNK         0.1400 
     63 CB          5.8002  -11.1964  -42.3623 C.3       2 UNK        -0.1800 
     64 N           4.5429  -11.7474  -44.3784 N.am      2 UNK        -0.5000 
     65 C           4.6498  -11.9221  -45.6991 C.2       1 UNK         0.5000 
     66 O           5.2861  -11.1709  -46.4414 O.2       1 UNK        -0.5000 
     67 C          -0.8855  -22.8263  -49.3398 C.2       11 UNK         0.5000 
     68 O          -0.7165  -23.8435  -50.0095 O.2       11 UNK        -0.5000 
     69 N          -2.0862  -22.2668  -49.1305 N.am      12 UNK        -0.5000 
     70 CA         -3.3521  -22.8037  -49.6305 C.3       12 UNK         0.1400 
     71 CB         -4.4824  -21.8005  -49.3549 C.3       12 UNK        -0.1800 
     72 C          -3.6820  -24.1848  -49.0365 C.2       12 UNK         0.5000 
     73 O          -4.0883  -25.0809  -49.7762 O.2       12 UNK        -0.5000 
     74 N          -3.4526  -24.3532  -47.7252 N.am      13 UNK        -0.5000 
     75 CA         -3.6027  -25.6288  -47.0245 C.3       13 UNK         0.1400 
     76 CB         -3.4121  -25.4270  -45.5142 C.3       13 UNK        -0.1800 
     77 C          -2.6527  -26.7145  -47.5654 C.2       13 UNK         0.5000 
     78 O          -3.0957  -27.8353  -47.8225 O.2       13 UNK        -0.5000 
     79 N          -1.3798  -26.3467  -47.7733 N.am      14 UNK        -0.5000 
     80 CA         -0.3494  -27.1979  -48.3708 C.3       14 UNK         0.1400 
     81 CB          1.0173  -26.5064  -48.2576 C.3       14 UNK        -0.1800 
     82 C          -0.6501  -27.5785  -49.8332 C.2       14 UNK         0.5000 
     83 O          -0.3681  -28.7088  -50.2340 O.2       14 UNK        -0.5000 
     84 N          -1.2592  -26.6578  -50.5925 N.am      15 UNK        -0.5000 
     85 CA         -1.7241  -26.8369  -51.9703 C.3       15 UNK         0.1400 
     86 CB         -1.8756  -25.4536  -52.6307 C.3       15 UNK        -0.1800 
     87 C          -3.0144  -27.6843  -52.0635 C.2       15 UNK         0.5000 
     88 O          -3.9860  -27.2670  -52.6949 O.2       15 UNK        -0.5000 
     89 N          -2.9871  -28.8724  -51.4437 N.am      16 UNK        -0.5000 
     90 CA         -4.0308  -29.9014  -51.4234 C.3       16 UNK         0.1400 
     91 CB         -4.1920  -30.5303  -52.8237 C.3       16 UNK        -0.1800 
     92 C          -5.3666  -29.4169  -50.8196 C.2       16 UNK         0.5000 
     93 O          -6.4319  -29.7273  -51.3568 O.2       16 UNK        -0.5000 
     94 N          -5.2801  -28.6833  -49.6991 N.am      17 UNK        -0.5000 
     95 CA         -6.3974  -28.1504  -48.9113 C.3       17 UNK         0.1400 
     96 CB         -7.1808  -29.2944  -48.2331 C.3       17 UNK        -0.1800 
     97 C          -7.2991  -27.1807  -49.7048 C.2       17 UNK         0.5000 
     98 O          -8.5270  -27.2762  -49.6399 O.2       17 UNK        -0.5000 
     99 N          -6.6681  -26.2574  -50.4388 N.am      18 UNK        -0.5000 
    100 CA        -7.3262  -25.1511  -51.1290 C.3       18 UNK         0.1400 
    101 CB        -6.4201  -24.6851  -52.2839 C.3       18 UNK        -0.1800 
    102 C         -7.6267  -23.9918  -50.1573 C.2       18 UNK         0.5000 
    103 O         -7.2502  -24.0382  -48.9829 O.2       18 UNK        -0.5000 
    104 N         -8.2763  -22.9491  -50.6800 N.am      19 UNK        -0.5000 
    105 CA        -8.4827  -21.6687  -50.0138 C.3       19 UNK         0.1400 
    106 CB        -9.9461  -21.5546  -49.5595 C.3       19 UNK        -0.1800 
    107 C         -8.1289  -20.5636  -51.0162 C.2       19 UNK         0.5000 
    108 O         -8.4113  -20.7195  -52.2074 O.2       19 UNK        -0.5000 
    109 N         -7.5155  -19.4809  -50.5197 N.am      20 UNK        -0.5000 
    110 CA        -7.0813  -18.2582  -51.2161 C.3       20 UNK         0.1400 
    111 CB        -8.2835  -17.5103  -51.8235 C.3       20 UNK        -0.1800 
    112 C         -5.9616  -18.4410  -52.2645 C.2       20 UNK         0.5000 
    113 O         -5.0682  -17.5962  -52.3368 O.2       20 UNK        -0.5000 
    114 N         -6.0258  -19.5168  -53.0574 N.am      21 UNK        -0.5000 
    115 CA        -5.0485  -19.8946  -54.0764 C.3       21 UNK         0.1400 
    116 CB        -5.5895  -21.1004  -54.8598 C.3       21 UNK        -0.1800 
    117 C         -3.6762  -20.2236  -53.4629 C.2       21 UNK         0.5000 
    118 O         -3.6130  -20.9087  -52.4419 O.2       21 UNK        -0.5000 
    119 N         -2.6077  -19.7431  -54.1063 N.am      22 UNK        -0.5000 
    120 CA        -1.2209  -19.8846  -53.6328 C.3       22 UNK         0.1400 
    121 C         -0.5772  -21.2817  -53.8707 C.2       22 UNK         0.5000 
    122 N         -1.2067  -22.1929  -54.6018 N.am      22 UNK        -0.7600 
    123 O          0.5138  -21.5433  -53.3724 O.2       22 UNK        -0.5000 
    124 C124       -0.3105  -18.7511  -54.1816 C.3       23 UNK        -0.0398 
    125 S125       -0.9192  -17.0512  -53.8742 S.3       23 UNK        -0.2404 
    126 C126       -1.1002  -16.9645  -52.0608 C.3       23 UNK        -0.0205 
    127 H127        7.6911  -15.4297  -46.9772 H         1 UNK         0.0600 
    128 H128        6.4623  -15.5220  -48.2428 H         1 UNK         0.0600 
    129 H129        6.4943  -16.7301  -46.9561 H         1 UNK         0.0600 
    130 H130        4.8733  -13.9953  -47.9597 H         1 UNK         0.3000 
    131 H131        3.4355  -13.6781  -45.4830 H         1 UNK         0.0600 
    132 H132        3.2186  -12.1380  -48.1323 H         1 UNK         0.0800 
    133 H133        2.1344  -11.9444  -46.7826 H         1 UNK         0.0800 
    134 H134        3.4853  -14.3038  -49.5238 H         1 UNK         0.0800 
    135 H135        2.0852  -13.4825  -50.1710 H         1 UNK         0.0800 
    136 H136        0.1350  -14.7781  -50.9824 H         1 UNK         0.1150 
    137 H137        0.6262  -19.0053  -51.4948 H         1 UNK         0.1150 
    138 H138        3.5507  -16.7660  -49.3214 H         1 UNK         0.1150 
    139 H139        2.9649  -19.9056  -51.0919 H         1 UNK         0.0800 
    140 H140        4.0318  -19.0452  -50.0153 H         1 UNK         0.0800 
    141 H141        0.9935  -21.2292  -50.4815 H         1 UNK         0.0800 
    142 H142        0.0689  -20.1675  -49.4408 H         1 UNK         0.0800 
    143 H143        1.1267  -22.9186  -48.6361 H         1 UNK         0.0600 
    144 H144        0.0791  -20.8731  -46.9800 H         1 UNK         0.3000 
    145 H145       -1.2803  -22.9639  -44.4181 H         1 UNK         0.0600 
    146 H146        0.2441  -21.5185  -43.0799 H         1 UNK         0.0600 
    147 H147        1.1369  -22.7842  -43.9092 H         1 UNK         0.0600 
    148 H148        1.1816  -21.1386  -44.5240 H         1 UNK         0.0600 
    149 H149       -1.0502  -20.1107  -44.9585 H         1 UNK         0.3000 
    150 H150       -4.3249  -19.7767  -46.3348 H         1 UNK         0.0600 
    151 H151       -4.6980  -19.8635  -43.8641 H         1 UNK         0.0600 
    152 H152       -4.5848  -18.2073  -44.4377 H         1 UNK         0.0600 
    153 H153       -3.2208  -18.9452  -43.5975 H         1 UNK         0.0600 
    154 H154       -2.3199  -17.8604  -45.6376 H         1 UNK         0.3000 
    155 H155       -0.5586  -17.9300  -48.7389 H         1 UNK         0.0600 
    156 H156       -2.5416  -15.8924  -47.5930 H         1 UNK         0.0600 
    157 H157       -2.6115  -16.5926  -49.2068 H         1 UNK         0.0600 
    158 H158       -1.2722  -15.5464  -48.7635 H         1 UNK         0.0600 
    159 H159       -0.0568  -16.1320  -46.7988 H         1 UNK         0.3000 
    160 H160        1.6236  -17.6962  -44.2747 H         1 UNK         0.0600 
    161 H161        3.8190  -16.9944  -45.1893 H         1 UNK         0.0600 
    162 H162        3.2873  -18.4701  -45.9792 H         1 UNK         0.0600 
    163 H163        3.1542  -16.9324  -46.8223 H         1 UNK         0.0600 
    164 H164        1.7926  -15.1998  -45.8418 H         1 UNK         0.3000 
    165 H165        1.1053  -13.2877  -44.9805 H         1 UNK         0.0600 
    166 H166       -1.2031  -12.4153  -45.1994 H         1 UNK         0.0600 
    167 H167       -1.0526  -13.9494  -46.0403 H         1 UNK         0.0600 
    168 H168       -1.8567  -13.8854  -44.4758 H         1 UNK         0.0600 
    169 H169       -0.5597  -12.7535  -42.7045 H         1 UNK         0.3000 
    170 H170        0.3736  -12.5316  -40.5164 H         1 UNK         0.0600 
    171 H171        3.2653  -11.5391  -40.4938 H         1 UNK         0.0600 
    172 H172        2.1733  -11.6515  -39.1217 H         1 UNK         0.0600 
    173 H173        2.7401  -13.1147  -39.9126 H         1 UNK         0.0600 
    174 H174        1.6518  -10.0285  -41.4703 H         1 UNK         0.3000 
    175 H175       -1.3491   -8.6951  -42.7459 H         1 UNK         0.0600 
    176 H176       -0.0472   -7.8370  -40.1051 H         1 UNK         0.0600 
    177 H177       -1.0416   -6.8204  -41.1494 H         1 UNK         0.0600 
    178 H178       -1.7541   -8.2005  -40.3299 H         1 UNK         0.0600 
    179 H179        1.2037   -7.5185  -42.2030 H         1 UNK         0.3000 
    180 H180        2.2759   -7.7198  -45.4486 H         1 UNK         0.0600 
    181 H181        3.0854   -6.8578  -42.6122 H         1 UNK         0.0600 
    182 H182        2.0481   -5.9430  -43.7049 H         1 UNK         0.0600 
    183 H183        3.7255   -6.2313  -44.1239 H         1 UNK         0.0600 
    184 H184        3.9495   -9.1605  -45.2881 H         1 UNK         0.3000 
    185 H185        5.8913  -10.1272  -44.2119 H         1 UNK         0.0600 
    186 H186        6.1661  -10.3918  -41.7233 H         1 UNK         0.0600 
    187 H187        5.1177  -11.8071  -41.7729 H         1 UNK         0.0600 
    188 H188        6.6557  -11.8198  -42.6225 H         1 UNK         0.0600 
    189 H189        3.9537  -12.3751  -43.8347 H         1 UNK         0.3000 
    190 H190       -2.1435  -21.3902  -48.6179 H         1 UNK         0.3000 
    191 H191       -3.2570  -22.9210  -50.7113 H         1 UNK         0.0600 
    192 H192       -4.6598  -21.6700  -48.2871 H         1 UNK         0.0600 
    193 H193       -5.4122  -22.1362  -49.8099 H         1 UNK         0.0600 
    194 H194       -4.2568  -20.8228  -49.7806 H         1 UNK         0.0600 
    195 H195       -3.1614  -23.5567  -47.1693 H         1 UNK         0.3000 
    196 H196       -4.6267  -25.9663  -47.1859 H         1 UNK         0.0600 
    197 H197       -3.5588  -26.3637  -44.9750 H         1 UNK         0.0600 
    198 H198       -4.1308  -24.7088  -45.1191 H         1 UNK         0.0600 
    199 H199       -2.4126  -25.0652  -45.2753 H         1 UNK         0.0600 
    200 H200       -1.0897  -25.4129  -47.4949 H         1 UNK         0.3000 
    201 H201       -0.3095  -28.1231  -47.7925 H         1 UNK         0.0600 
    202 H202        1.2716  -26.3045  -47.2170 H         1 UNK         0.0600 
    203 H203        1.0348  -25.5581  -48.7951 H         1 UNK         0.0600 
    204 H204        1.8084  -27.1334  -48.6707 H         1 UNK         0.0600 
    205 H205       -1.4146  -25.7382  -50.1923 H         1 UNK         0.3000 
    206 H206       -0.9525  -27.3779  -52.5215 H         1 UNK         0.0600 
    207 H207       -0.9410  -24.8934  -52.5953 H         1 UNK         0.0600 
    208 H208       -2.1568  -25.5466  -53.6802 H         1 UNK         0.0600 
    209 H209       -2.6417  -24.8552  -52.1374 H         1 UNK         0.0600 
    210 H210       -2.1323  -29.1002  -50.9441 H         1 UNK         0.3000 
    211 H211       -3.6687  -30.6842  -50.7556 H         1 UNK         0.0600 
    212 H212       -4.5945  -29.8172  -53.5438 H         1 UNK         0.0600 
    213 H213       -4.8703  -31.3838  -52.7942 H         1 UNK         0.0600 
    214 H214       -3.2371  -30.8906  -53.2065 H         1 UNK         0.0600 
    215 H215       -4.3585  -28.4680  -49.3319 H         1 UNK         0.3000 
    216 H216       -5.9510  -27.5568  -48.1151 H         1 UNK         0.0600 
    217 H217       -7.9305  -28.9000  -47.5461 H         1 UNK         0.0600 
    218 H218       -6.5173  -29.9358  -47.6531 H         1 UNK         0.0600 
    219 H219       -7.7009  -29.9187  -48.9600 H         1 UNK         0.0600 
    220 H220       -5.6572  -26.1871  -50.3726 H         1 UNK         0.3000 
    221 H221       -8.2718  -25.5003  -51.5486 H         1 UNK         0.0600 
    222 H222       -5.4856  -24.2570  -51.9196 H         1 UNK         0.0600 
    223 H223       -6.1688  -25.5148  -52.9448 H         1 UNK         0.0600 
    224 H224       -6.9102  -23.9270  -52.8952 H         1 UNK         0.0600 
    225 H225       -8.5135  -22.9471  -51.6637 H         1 UNK         0.3000 
    226 H226       -7.8288  -21.5758  -49.1439 H         1 UNK         0.0600 
    227 H227      -10.1993  -22.3431  -48.8505 H         1 UNK         0.0600 
    228 H228      -10.1283  -20.5999  -49.0645 H         1 UNK         0.0600 
    229 H229      -10.6362  -21.6268  -50.4011 H         1 UNK         0.0600 
    230 H230       -7.3118  -19.4811  -49.5300 H         1 UNK         0.3000 
    231 H231       -6.6645  -17.6173  -50.4373 H         1 UNK         0.0600 
    232 H232       -9.0409  -17.3014  -51.0679 H         1 UNK         0.0600 
    233 H233       -8.7563  -18.0793  -52.6244 H         1 UNK         0.0600 
    234 H234       -7.9731  -16.5535  -52.2453 H         1 UNK         0.0600 
    235 H235       -6.8150  -20.1422  -52.9214 H         1 UNK         0.3000 
    236 H236       -4.9398  -19.0522  -54.7626 H         1 UNK         0.0600 
    237 H237       -4.9015  -21.3926  -55.6540 H         1 UNK         0.0600 
    238 H238       -5.7325  -21.9670  -54.2127 H         1 UNK         0.0600 
    239 H239       -6.5470  -20.8703  -55.3275 H         1 UNK         0.0600 
    240 H240       -2.7360  -19.1926  -54.9427 H         1 UNK         0.3000 
    241 H241       -1.2463  -19.7936  -52.5473 H         1 UNK         0.0600 
    242 H242       -0.7782  -23.0931  -54.7449 H         1 UNK         0.3800 
    243 H243       -2.1066  -21.9937  -55.0068 H         1 UNK         0.3800 
    244 H244        0.7013  -18.8298  -53.7826 H         1 UNK         0.0800 
    245 H245       -0.2017  -18.8631  -55.2616 H         1 UNK         0.0800 
    246 H246       -1.6949  -17.7988  -51.6894 H         1 UNK         0.0800 
    247 H247       -1.6865  -16.0743  -51.8280 H         1 UNK         0.0800 
@<TRIPOS>BOND
     1    1    2 1    
     2    1  127 1    
     3    1  128 1    
     4    1  129 1    
     5    2    3 2    
     6    2    4 am   BACKBONE|DICT|INTERRES
     7    4    5 1    
     8    4  130 1    
     9    5    6 1    
    10    5   65 1    
    11    5  131 1    
    12    6    7 1    
    13    6  132 1    
    14    6  133 1    
    15    7    8 1    
    16    8    9 1    
    17    8  134 1    
    18    8  135 1    
    19    9   10 ar   
    20    9   14 ar   
    21   10   11 ar   
    22   10  136 1    
    23   11   12 ar   
    24   11  126 1    
    25   12   13 ar   
    26   12  137 1    
    27   13   14 ar   
    28   13   15 1    
    29   14  138 1    
    30   15   16 1    
    31   15  139 1    
    32   15  140 1    
    33   16   17 1    
    34   17   18 1    
    35   17  141 1    
    36   17  142 1    
    37   18   19 1    
    38   18   67 1    
    39   18  143 1    
    40   19   20 am   BACKBONE|DICT|INTERRES
    41   19  144 1    
    42   20   21 2    
    43   20   22 1    
    44   22   23 1    
    45   22   24 1    
    46   22  145 1    
    47   23  146 1    
    48   23  147 1    
    49   23  148 1    
    50   24   25 am   BACKBONE|DICT|INTERRES
    51   24  149 1    
    52   25   26 2    
    53   25   27 1    
    54   27   28 1    
    55   27   29 1    
    56   27  150 1    
    57   28  151 1    
    58   28  152 1    
    59   28  153 1    
    60   29   30 am   BACKBONE|DICT|INTERRES
    61   29  154 1    
    62   30   31 2    
    63   30   32 1    
    64   32   33 1    
    65   32   34 1    
    66   32  155 1    
    67   33  156 1    
    68   33  157 1    
    69   33  158 1    
    70   34   35 am   BACKBONE|DICT|INTERRES
    71   34  159 1    
    72   35   36 2    
    73   35   37 1    
    74   37   38 1    
    75   37   39 1    
    76   37  160 1    
    77   38  161 1    
    78   38  162 1    
    79   38  163 1    
    80   39   40 am   BACKBONE|DICT|INTERRES
    81   39  164 1    
    82   40   41 2    
    83   40   42 1    
    84   42   43 1    
    85   42   44 1    
    86   42  165 1    
    87   43  166 1    
    88   43  167 1    
    89   43  168 1    
    90   44   45 am   BACKBONE|DICT|INTERRES
    91   44  169 1    
    92   45   46 2    
    93   45   47 1    
    94   47   48 1    
    95   47   49 1    
    96   47  170 1    
    97   48  171 1    
    98   48  172 1    
    99   48  173 1    
   100   49   50 am   BACKBONE|DICT|INTERRES
   101   49  174 1    
   102   50   51 2    
   103   50   52 1    
   104   52   53 1    
   105   52   54 1    
   106   52  175 1    
   107   53  176 1    
   108   53  177 1    
   109   53  178 1    
   110   54   55 am   BACKBONE|DICT|INTERRES
   111   54  179 1    
   112   55   56 2    
   113   55   57 1    
   114   57   58 1    
   115   57   59 1    
   116   57  180 1    
   117   58  181 1    
   118   58  182 1    
   119   58  183 1    
   120   59   60 am   BACKBONE|DICT|INTERRES
   121   59  184 1    
   122   60   61 2    
   123   60   62 1    
   124   62   63 1    
   125   62   64 1    
   126   62  185 1    
   127   63  186 1    
   128   63  187 1    
   129   63  188 1    
   130   64   65 am   BACKBONE|DICT|INTERRES
   131   64  189 1    
   132   65   66 2    
   133   67   68 2    
   134   67   69 am   BACKBONE|DICT|INTERRES
   135   69   70 1    
   136   69  190 1    
   137   70   71 1    
   138   70   72 1    
   139   70  191 1    
   140   71  192 1    
   141   71  193 1    
   142   71  194 1    
   143   72   73 2    
   144   72   74 am   BACKBONE|DICT|INTERRES
   145   74   75 1    
   146   74  195 1    
   147   75   76 1    
   148   75   77 1    
   149   75  196 1    
   150   76  197 1    
   151   76  198 1    
   152   76  199 1    
   153   77   78 2    
   154   77   79 am   BACKBONE|DICT|INTERRES
   155   79   80 1    
   156   79  200 1    
   157   80   81 1    
   158   80   82 1    
   159   80  201 1    
   160   81  202 1    
   161   81  203 1    
   162   81  204 1    
   163   82   83 2    
   164   82   84 am   BACKBONE|DICT|INTERRES
   165   84   85 1    
   166   84  205 1    
   167   85   86 1    
   168   85   87 1    
   169   85  206 1    
   170   86  207 1    
   171   86  208 1    
   172   86  209 1    
   173   87   88 2    
   174   87   89 am   BACKBONE|DICT|INTERRES
   175   89   90 1    
   176   89  210 1    
   177   90   91 1    
   178   90   92 1    
   179   90  211 1    
   180   91  212 1    
   181   91  213 1    
   182   91  214 1    
   183   92   93 2    
   184   92   94 am   BACKBONE|DICT|INTERRES
   185   94   95 1    
   186   94  215 1    
   187   95   96 1    
   188   95   97 1    
   189   95  216 1    
   190   96  217 1    
   191   96  218 1    
   192   96  219 1    
   193   97   98 2    
   194   97   99 am   BACKBONE|DICT|INTERRES
   195   99  100 1    
   196   99  220 1    
   197  100  101 1    
   198  100  102 1    
   199  100  221 1    
   200  101  222 1    
   201  101  223 1    
   202  101  224 1    
   203  102  103 2    
   204  102  104 am   BACKBONE|DICT|INTERRES
   205  104  105 1    
   206  104  225 1    
   207  105  106 1    
   208  105  107 1    
   209  105  226 1    
   210  106  227 1    
   211  106  228 1    
   212  106  229 1    
   213  107  108 2    
   214  107  109 am   BACKBONE|DICT|INTERRES
   215  109  110 1    
   216  109  230 1    
   217  110  111 1    
   218  110  112 1    
   219  110  231 1    
   220  111  232 1    
   221  111  233 1    
   222  111  234 1    
   223  112  113 2    
   224  112  114 am   BACKBONE|DICT|INTERRES
   225  114  115 1    
   226  114  235 1    
   227  115  116 1    
   228  115  117 1    
   229  115  236 1    
   230  116  237 1    
   231  116  238 1    
   232  116  239 1    
   233  117  118 2    
   234  117  119 am   BACKBONE|DICT|INTERRES
   235  119  120 1    
   236  119  240 1    
   237  120  121 1    
   238  120  124 1    
   239  120  241 1    
   240  121  122 am   BACKBONE|DICT|INTERRES
   241  121  123 2    
   242  122  242 1    
   243  122  243 1    
   244  124  125 1    
   245  124  244 1    
   246  124  245 1    
   247  125  126 1    
   248  126  246 1    
   249  126  247 1    
@<TRIPOS>SUBSTRUCTURE
     1 UNK         1 GROUP             0       ****    0 ROOT    
