@<TRIPOS>MOLECULE
3R540
247   249    1
SMALL
USER_CHARGES


@<TRIPOS>ATOM
      1 CA         -1.2651  -10.3422  -44.5051 C.3       0 UNK        -0.1800 
      2 C          -1.6926  -11.8043  -44.3880 C.2       0 UNK         0.5000 
      3 O          -1.6280  -12.3650  -43.2961 O.2       0 UNK        -0.5000 
      4 N          -2.1519  -12.4557  -45.4644 N.am      1 UNK        -0.5000 
      5 CA         -2.2319  -11.9552  -46.8440 C.3       1 UNK         0.1400 
      6 C6         -3.2010  -12.8071  -47.7020 C.3       23 UNK        -0.0398 
      7 S7         -4.8823  -12.8319  -46.9901 S.3       23 UNK        -0.2404 
      8 C8         -5.7394  -14.0150  -48.0772 C.3       23 UNK        -0.0205 
      9 C9         -5.1560  -15.4205  -48.0088 C.ar      23 UNK        -0.0193 
     10 C10        -4.6657  -16.0288  -49.1658 C.ar      23 UNK        -0.1150 
     11 C11        -4.1540  -17.3271  -49.1229 C.ar      23 UNK        -0.0193 
     12 C12        -4.1294  -18.0196  -47.9089 C.ar      23 UNK        -0.1150 
     13 C13        -4.6035  -17.4201  -46.7355 C.ar      23 UNK        -0.0193 
     14 C14        -5.1267  -16.1239  -46.8006 C.ar      23 UNK        -0.1150 
     15 C15        -4.5835  -18.1413  -45.3887 C.3       23 UNK        -0.0205 
     16 S16        -3.1675  -19.2703  -45.1495 S.3       23 UNK        -0.2404 
     17 C17        -3.9252  -20.8982  -45.5036 C.3       23 UNK        -0.0398 
     18 CA         -2.9500  -21.8985  -46.1723 C.3       11 UNK         0.1400 
     19 N          -1.6750  -21.9875  -45.4546 N.am      11 UNK        -0.5000 
     20 C          -0.5850  -22.6519  -45.8568 C.2       10 UNK         0.5000 
     21 O          -0.5746  -23.3811  -46.8493 O.2       10 UNK        -0.5000 
     22 CA          0.6943  -22.4821  -45.0065 C.3       10 UNK         0.1400 
     23 CB          1.9798  -22.7140  -45.8201 C.3       10 UNK        -0.1800 
     24 N           0.7968  -21.1706  -44.3630 N.am      10 UNK        -0.5000 
     25 C           0.1942  -20.7934  -43.2280 C.2       9 UNK         0.5000 
     26 O          -0.6053  -21.5043  -42.6178 O.2       9 UNK        -0.5000 
     27 CA          0.5440  -19.3807  -42.7165 C.3       9 UNK         0.1400 
     28 CB          0.1263  -19.1354  -41.2518 C.3       9 UNK        -0.1800 
     29 N           1.9573  -19.0465  -42.9382 N.am      9 UNK        -0.5000 
     30 C           3.0214  -19.6675  -42.4052 C.2       8 UNK         0.5000 
     31 O           2.9452  -20.5578  -41.5577 O.2       8 UNK        -0.5000 
     32 CA          4.4103  -19.2535  -42.9157 C.3       8 UNK         0.1400 
     33 CB          4.8678  -20.2140  -44.0267 C.3       8 UNK        -0.1800 
     34 N           4.4400  -17.8868  -43.4407 N.am      8 UNK        -0.5000 
     35 C           5.2830  -16.9328  -43.0280 C.2       7 UNK         0.5000 
     36 O           6.0664  -17.0658  -42.0865 O.2       7 UNK        -0.5000 
     37 CA          5.2810  -15.6136  -43.8193 C.3       7 UNK         0.1400 
     38 CB          6.0961  -15.7646  -45.1132 C.3       7 UNK        -0.1800 
     39 N           3.9418  -15.1196  -44.1420 N.am      7 UNK        -0.5000 
     40 C           3.1335  -14.5188  -43.2573 C.2       6 UNK         0.5000 
     41 O           3.3782  -14.4284  -42.0538 O.2       6 UNK        -0.5000 
     42 CA          1.8583  -13.8708  -43.8226 C.3       6 UNK         0.1400 
     43 CB          2.1937  -12.5051  -44.4423 C.3       6 UNK        -0.1800 
     44 N           1.2112  -14.7150  -44.8243 N.am      6 UNK        -0.5000 
     45 C           0.4293  -15.7615  -44.5233 C.2       5 UNK         0.5000 
     46 O           0.1281  -16.0823  -43.3746 O.2       5 UNK        -0.5000 
     47 CA         -0.0727  -16.6167  -45.7040 C.3       5 UNK         0.1400 
     48 CB         -1.3167  -15.9688  -46.3265 C.3       5 UNK        -0.1800 
     49 N           0.9418  -16.8027  -46.7411 N.am      5 UNK        -0.5000 
     50 C           2.1568  -17.3420  -46.5627 C.2       4 UNK         0.5000 
     51 O           2.5172  -17.8645  -45.5072 O.2       4 UNK        -0.5000 
     52 CA          3.1709  -17.2134  -47.7214 C.3       4 UNK         0.1400 
     53 CB          3.6153  -18.5867  -48.2393 C.3       4 UNK        -0.1800 
     54 N           2.7134  -16.3662  -48.8325 N.am      4 UNK        -0.5000 
     55 C           2.5549  -15.0375  -48.7232 C.2       3 UNK         0.5000 
     56 O           2.8032  -14.4286  -47.6762 O.2       3 UNK        -0.5000 
     57 CA          1.9839  -14.2668  -49.9309 C.3       3 UNK         0.1400 
     58 CB          0.8648  -15.0339  -50.6629 C.3       3 UNK        -0.1800 
     59 N           1.4647  -13.0046  -49.4204 N.am      3 UNK        -0.5000 
     60 C           1.0859  -11.9200  -50.0956 C.2       2 UNK         0.5000 
     61 O           1.1269  -11.8267  -51.3238 O.2       2 UNK        -0.5000 
     62 CA          0.5668  -10.7480  -49.2307 C.3       2 UNK         0.1400 
     63 CB          0.3687   -9.4571  -50.0459 C.3       2 UNK        -0.1800 
     64 N          -0.6857  -11.0500  -48.5259 N.am      2 UNK        -0.5000 
     65 C          -0.8297  -11.8866  -47.4884 C.2       1 UNK         0.5000 
     66 O           0.0894  -12.5700  -47.0314 O.2       1 UNK        -0.5000 
     67 C          -3.6268  -23.2757  -46.3499 C.2       11 UNK         0.5000 
     68 O          -4.2680  -23.5130  -47.3743 O.2       11 UNK        -0.5000 
     69 N          -3.4467  -24.1690  -45.3659 N.am      12 UNK        -0.5000 
     70 CA         -3.9223  -25.5523  -45.4011 C.3       12 UNK         0.1400 
     71 CB         -3.8230  -26.1621  -43.9952 C.3       12 UNK        -0.1800 
     72 C          -3.1545  -26.4105  -46.4230 C.2       12 UNK         0.5000 
     73 O          -3.7755  -27.1875  -47.1486 O.2       12 UNK        -0.5000 
     74 N          -1.8281  -26.2205  -46.4971 N.am      13 UNK        -0.5000 
     75 CA         -0.9417  -26.8790  -47.4635 C.3       13 UNK         0.1400 
     76 CB          0.5222  -26.6703  -47.0488 C.3       13 UNK        -0.1800 
     77 C          -1.1807  -26.3946  -48.9065 C.2       13 UNK         0.5000 
     78 O          -0.9884  -27.1633  -49.8481 O.2       13 UNK        -0.5000 
     79 N          -1.6706  -25.1555  -49.0447 N.am      14 UNK        -0.5000 
     80 CA         -2.1848  -24.5591  -50.2784 C.3       14 UNK         0.1400 
     81 CB         -2.1468  -23.0289  -50.1351 C.3       14 UNK        -0.1800 
     82 C          -3.5947  -25.0551  -50.6732 C.2       14 UNK         0.5000 
     83 O          -4.2261  -24.4316  -51.5267 O.2       14 UNK        -0.5000 
     84 N          -4.0682  -26.1475  -50.0540 N.am      15 UNK        -0.5000 
     85 CA         -5.3504  -26.8210  -50.2729 C.3       15 UNK         0.1400 
     86 CB         -5.4228  -27.4244  -51.6911 C.3       15 UNK        -0.1800 
     87 C          -6.5440  -25.9148  -49.9222 C.2       15 UNK         0.5000 
     88 O          -7.4632  -25.7548  -50.7257 O.2       15 UNK        -0.5000 
     89 N          -6.4788  -25.3279  -48.7182 N.am      16 UNK        -0.5000 
     90 CA         -7.4225  -24.3600  -48.1516 C.3       16 UNK         0.1400 
     91 CB         -8.8173  -24.9876  -47.9447 C.3       16 UNK        -0.1800 
     92 C          -7.4466  -23.0536  -48.9684 C.2       16 UNK         0.5000 
     93 O          -8.5075  -22.6086  -49.4101 O.2       16 UNK        -0.5000 
     94 N          -6.2486  -22.4787  -49.1489 N.am      17 UNK        -0.5000 
     95 CA         -5.9575  -21.2149  -49.8345 C.3       17 UNK         0.1400 
     96 CB         -6.6161  -20.0366  -49.0847 C.3       17 UNK        -0.1800 
     97 C          -6.2920  -21.2127  -51.3432 C.2       17 UNK         0.5000 
     98 O          -6.5245  -20.1450  -51.9129 O.2       17 UNK        -0.5000 
     99 N          -6.3096  -22.3950  -51.9721 N.am      18 UNK        -0.5000 
    100 CA        -6.5804  -22.5614  -53.3987 C.3       18 UNK         0.1400 
    101 CB        -7.0578  -23.9955  -53.6681 C.3       18 UNK        -0.1800 
    102 C         -5.3528  -22.2220  -54.2604 C.2       18 UNK         0.5000 
    103 O         -5.5019  -21.5682  -55.2940 O.2       18 UNK        -0.5000 
    104 N         -4.1650  -22.6649  -53.8252 N.am      19 UNK        -0.5000 
    105 CA        -2.8926  -22.3647  -54.4787 C.3       19 UNK         0.1400 
    106 CB        -1.8244  -23.3748  -54.0324 C.3       19 UNK        -0.1800 
    107 C         -2.4543  -20.9238  -54.1670 C.2       19 UNK         0.5000 
    108 O         -2.4285  -20.5326  -52.9980 O.2       19 UNK        -0.5000 
    109 N         -2.0899  -20.1759  -55.2165 N.am      20 UNK        -0.5000 
    110 CA        -1.7444  -18.7502  -55.1703 C.3       20 UNK         0.1400 
    111 CB        -1.6622  -18.2183  -56.6099 C.3       20 UNK        -0.1800 
    112 C         -0.4527  -18.4149  -54.3968 C.2       20 UNK         0.5000 
    113 O         -0.2419  -17.2502  -54.0576 O.2       20 UNK        -0.5000 
    114 N          0.3871  -19.4252  -54.1310 N.am      21 UNK        -0.5000 
    115 CA         1.5650  -19.3142  -53.2686 C.3       21 UNK         0.1400 
    116 CB         2.4451  -20.5589  -53.4576 C.3       21 UNK        -0.1800 
    117 C          1.1963  -19.1385  -51.7823 C.2       21 UNK         0.5000 
    118 O          1.9449  -18.4920  -51.0485 O.2       21 UNK        -0.5000 
    119 N          0.0479  -19.7032  -51.3803 N.am      22 UNK        -0.5000 
    120 CA        -0.5370  -19.6297  -50.0308 C.3       22 UNK         0.1400 
    121 C          0.2780  -20.3577  -48.9204 C.2       22 UNK         0.5000 
    122 N          1.1324  -21.3152  -49.2605 N.am      22 UNK        -0.7600 
    123 O          0.1288  -20.0656  -47.7382 O.2       22 UNK        -0.5000 
    124 C124       -0.9437  -18.1908  -49.6197 C.3       23 UNK        -0.0398 
    125 S125       -2.0004  -17.3625  -50.8569 S.3       23 UNK        -0.2404 
    126 C126       -3.6459  -17.9800  -50.3978 C.3       23 UNK        -0.0205 
    127 H127       -2.0818   -9.7261  -44.8807 H         1 UNK         0.0600 
    128 H128       -0.9790   -9.9504  -43.5287 H         1 UNK         0.0600 
    129 H129       -0.4071  -10.2333  -45.1675 H         1 UNK         0.0600 
    130 H130       -2.4354  -13.4165  -45.3502 H         1 UNK         0.3000 
    131 H131       -2.6285  -10.9388  -46.8138 H         1 UNK         0.0600 
    132 H132       -2.8390  -13.8316  -47.7954 H         1 UNK         0.0800 
    133 H133       -3.2712  -12.4120  -48.7169 H         1 UNK         0.0800 
    134 H134       -5.7197  -13.6327  -49.0990 H         1 UNK         0.0800 
    135 H135       -6.7901  -14.0588  -47.7877 H         1 UNK         0.0800 
    136 H136       -4.6855  -15.4965  -50.1065 H         1 UNK         0.1150 
    137 H137       -3.7374  -19.0255  -47.8827 H         1 UNK         0.1150 
    138 H138       -5.5095  -15.6532  -45.9059 H         1 UNK         0.1150 
    139 H139       -4.5401  -17.4028  -44.5867 H         1 UNK         0.0800 
    140 H140       -5.5241  -18.6763  -45.2542 H         1 UNK         0.0800 
    141 H141       -4.2997  -21.2970  -44.5589 H         1 UNK         0.0800 
    142 H142       -4.7979  -20.7556  -46.1432 H         1 UNK         0.0800 
    143 H143       -2.7198  -21.5215  -47.1707 H         1 UNK         0.0600 
    144 H144       -1.6000  -21.4310  -44.6140 H         1 UNK         0.3000 
    145 H145        0.6530  -23.2477  -44.2294 H         1 UNK         0.0600 
    146 H146        2.8612  -22.6696  -45.1800 H         1 UNK         0.0600 
    147 H147        1.9815  -23.6936  -46.2981 H         1 UNK         0.0600 
    148 H148        2.0986  -21.9623  -46.6001 H         1 UNK         0.0600 
    149 H149        1.3852  -20.4971  -44.8328 H         1 UNK         0.3000 
    150 H150       -0.0377  -18.6985  -43.3331 H         1 UNK         0.0600 
    151 H151       -0.9522  -19.2439  -41.1327 H         1 UNK         0.0600 
    152 H152        0.3861  -18.1252  -40.9351 H         1 UNK         0.0600 
    153 H153        0.6014  -19.8371  -40.5662 H         1 UNK         0.0600 
    154 H154        2.1292  -18.3718  -43.6759 H         1 UNK         0.3000 
    155 H155        5.0973  -19.3581  -42.0735 H         1 UNK         0.0600 
    156 H156        4.8655  -21.2477  -43.6782 H         1 UNK         0.0600 
    157 H157        5.8820  -19.9833  -44.3528 H         1 UNK         0.0600 
    158 H158        4.2153  -20.1598  -44.8993 H         1 UNK         0.0600 
    159 H159        3.8203  -17.6956  -44.2233 H         1 UNK         0.3000 
    160 H160        5.7777  -14.8590  -43.2050 H         1 UNK         0.0600 
    161 H161        5.7103  -16.5644  -45.7443 H         1 UNK         0.0600 
    162 H162        6.0959  -14.8426  -45.6950 H         1 UNK         0.0600 
    163 H163        7.1357  -16.0058  -44.8878 H         1 UNK         0.0600 
    164 H164        3.6649  -15.1367  -45.1124 H         1 UNK         0.3000 
    165 H165        1.1663  -13.7035  -42.9940 H         1 UNK         0.0600 
    166 H166        1.2897  -11.9749  -44.7348 H         1 UNK         0.0600 
    167 H167        2.7225  -11.8696  -43.7308 H         1 UNK         0.0600 
    168 H168        2.8224  -12.6050  -45.3281 H         1 UNK         0.0600 
    169 H169        1.3979  -14.4956  -45.7951 H         1 UNK         0.3000 
    170 H170       -0.3495  -17.6028  -45.3288 H         1 UNK         0.0600 
    171 H171       -2.0932  -15.8088  -45.5773 H         1 UNK         0.0600 
    172 H172       -1.0790  -15.0038  -46.7715 H         1 UNK         0.0600 
    173 H173       -1.7474  -16.5961  -47.1032 H         1 UNK         0.0600 
    174 H174        0.7476  -16.3846  -47.6366 H         1 UNK         0.3000 
    175 H175        4.0551  -16.7352  -47.2998 H         1 UNK         0.0600 
    176 H176        2.7839  -19.1421  -48.6637 H         1 UNK         0.0600 
    177 H177        4.3814  -18.4912  -49.0087 H         1 UNK         0.0600 
    178 H178        4.0343  -19.1929  -47.4352 H         1 UNK         0.0600 
    179 H179        2.4853  -16.8437  -49.6983 H         1 UNK         0.3000 
    180 H180        2.8048  -14.0628  -50.6204 H         1 UNK         0.0600 
    181 H181        1.2226  -15.9742  -51.0792 H         1 UNK         0.0600 
    182 H182        0.0325  -15.2520  -49.9937 H         1 UNK         0.0600 
    183 H183        0.4679  -14.4605  -51.5002 H         1 UNK         0.0600 
    184 H184        1.3788  -12.9809  -48.4056 H         1 UNK         0.3000 
    185 H185        1.3341  -10.5446  -48.4805 H         1 UNK         0.0600 
    186 H186        1.2873   -9.1753  -50.5624 H         1 UNK         0.0600 
    187 H187       -0.4110   -9.5718  -50.7999 H         1 UNK         0.0600 
    188 H188        0.0928   -8.6220  -49.4018 H         1 UNK         0.0600 
    189 H189       -1.4958  -10.5456  -48.8558 H         1 UNK         0.3000 
    190 H190       -2.9066  -23.8916  -44.5593 H         1 UNK         0.3000 
    191 H191       -4.9745  -25.5449  -45.6940 H         1 UNK         0.0600 
    192 H192       -4.1872  -27.1903  -43.9894 H         1 UNK         0.0600 
    193 H193       -4.4249  -25.6016  -43.2796 H         1 UNK         0.0600 
    194 H194       -2.7949  -26.1758  -43.6310 H         1 UNK         0.0600 
    195 H195       -1.4054  -25.5165  -45.9103 H         1 UNK         0.3000 
    196 H196       -1.1516  -27.9504  -47.4362 H         1 UNK         0.0600 
    197 H197        1.1941  -27.2192  -47.7096 H         1 UNK         0.0600 
    198 H198        0.7018  -27.0260  -46.0342 H         1 UNK         0.0600 
    199 H199        0.8088  -25.6204  -47.0943 H         1 UNK         0.0600 
    200 H200       -1.7193  -24.5775  -48.2138 H         1 UNK         0.3000 
    201 H201       -1.5178  -24.8372  -51.0963 H         1 UNK         0.0600 
    202 H202       -1.1257  -22.6929  -49.9721 H         1 UNK         0.0600 
    203 H203       -2.7508  -22.6835  -49.2992 H         1 UNK         0.0600 
    204 H204       -2.5161  -22.5227  -51.0266 H         1 UNK         0.0600 
    205 H205       -3.4931  -26.5584  -49.3308 H         1 UNK         0.3000 
    206 H206       -5.3840  -27.6515  -49.5662 H         1 UNK         0.0600 
    207 H207       -4.5921  -28.1073  -51.8685 H         1 UNK         0.0600 
    208 H208       -6.3438  -27.9923  -51.8273 H         1 UNK         0.0600 
    209 H209       -5.3941  -26.6586  -52.4649 H         1 UNK         0.0600 
    210 H210       -5.6448  -25.4887  -48.1698 H         1 UNK         0.3000 
    211 H211       -7.0374  -24.0976  -47.1650 H         1 UNK         0.0600 
    212 H212       -9.3010  -25.2352  -48.8899 H         1 UNK         0.0600 
    213 H213       -9.4763  -24.2993  -47.4143 H         1 UNK         0.0600 
    214 H214       -8.7547  -25.8994  -47.3509 H         1 UNK         0.0600 
    215 H215       -5.4510  -22.9341  -48.7112 H         1 UNK         0.3000 
    216 H216       -4.8767  -21.0846  -49.7706 H         1 UNK         0.0600 
    217 H217       -6.3290  -19.0797  -49.5191 H         1 UNK         0.0600 
    218 H218       -6.3207  -20.0192  -48.0361 H         1 UNK         0.0600 
    219 H219       -7.7041  -20.0867  -49.1243 H         1 UNK         0.0600 
    220 H220       -6.0446  -23.2282  -51.4615 H         1 UNK         0.3000 
    221 H221       -7.3884  -21.8839  -53.6833 H         1 UNK         0.0600 
    222 H222       -6.2964  -24.7281  -53.4027 H         1 UNK         0.0600 
    223 H223       -7.9566  -24.2255  -53.0956 H         1 UNK         0.0600 
    224 H224       -7.2968  -24.1366  -54.7227 H         1 UNK         0.0600 
    225 H225       -4.1309  -23.1996  -52.9612 H         1 UNK         0.3000 
    226 H226       -3.0266  -22.4765  -55.5569 H         1 UNK         0.0600 
    227 H227       -2.1613  -24.4006  -54.1828 H         1 UNK         0.0600 
    228 H228       -0.9066  -23.2458  -54.6071 H         1 UNK         0.0600 
    229 H229       -1.5653  -23.2576  -52.9819 H         1 UNK         0.0600 
    230 H230       -2.1260  -20.5880  -56.1378 H         1 UNK         0.3000 
    231 H231       -2.5594  -18.2311  -54.6613 H         1 UNK         0.0600 
    232 H232       -0.8773  -18.7185  -57.1786 H         1 UNK         0.0600 
    233 H233       -2.6049  -18.3609  -57.1386 H         1 UNK         0.0600 
    234 H234       -1.4452  -17.1492  -56.6217 H         1 UNK         0.0600 
    235 H235        0.1504  -20.3451  -54.4706 H         1 UNK         0.3000 
    236 H236        2.1389  -18.4372  -53.5754 H         1 UNK         0.0600 
    237 H237        1.9157  -21.4731  -53.1858 H         1 UNK         0.0600 
    238 H238        2.7738  -20.6558  -54.4925 H         1 UNK         0.0600 
    239 H239        3.3406  -20.5009  -52.8373 H         1 UNK         0.0600 
    240 H240       -0.5411  -20.1476  -52.0741 H         1 UNK         0.3000 
    241 H241       -1.4610  -20.2030  -50.0970 H         1 UNK         0.0600 
    242 H242        1.6338  -21.8033  -48.5386 H         1 UNK         0.3800 
    243 H243        1.2733  -21.5594  -50.2263 H         1 UNK         0.3800 
    244 H244       -0.0540  -17.5827  -49.4642 H         1 UNK         0.0800 
    245 H245       -1.4646  -18.2064  -48.6639 H         1 UNK         0.0800 
    246 H246       -4.3406  -17.7716  -51.2130 H         1 UNK         0.0800 
    247 H247       -3.6156  -19.0652  -50.3003 H         1 UNK         0.0800 
@<TRIPOS>BOND
     1    1    2 1    
     2    1  127 1    
     3    1  128 1    
     4    1  129 1    
     5    2    3 2    
     6    2    4 am   BACKBONE|DICT|INTERRES
     7    4    5 1    
     8    4  130 1    
     9    5    6 1    
    10    5   65 1    
    11    5  131 1    
    12    6    7 1    
    13    6  132 1    
    14    6  133 1    
    15    7    8 1    
    16    8    9 1    
    17    8  134 1    
    18    8  135 1    
    19    9   10 ar   
    20    9   14 ar   
    21   10   11 ar   
    22   10  136 1    
    23   11   12 ar   
    24   11  126 1    
    25   12   13 ar   
    26   12  137 1    
    27   13   14 ar   
    28   13   15 1    
    29   14  138 1    
    30   15   16 1    
    31   15  139 1    
    32   15  140 1    
    33   16   17 1    
    34   17   18 1    
    35   17  141 1    
    36   17  142 1    
    37   18   19 1    
    38   18   67 1    
    39   18  143 1    
    40   19   20 am   BACKBONE|DICT|INTERRES
    41   19  144 1    
    42   20   21 2    
    43   20   22 1    
    44   22   23 1    
    45   22   24 1    
    46   22  145 1    
    47   23  146 1    
    48   23  147 1    
    49   23  148 1    
    50   24   25 am   BACKBONE|DICT|INTERRES
    51   24  149 1    
    52   25   26 2    
    53   25   27 1    
    54   27   28 1    
    55   27   29 1    
    56   27  150 1    
    57   28  151 1    
    58   28  152 1    
    59   28  153 1    
    60   29   30 am   BACKBONE|DICT|INTERRES
    61   29  154 1    
    62   30   31 2    
    63   30   32 1    
    64   32   33 1    
    65   32   34 1    
    66   32  155 1    
    67   33  156 1    
    68   33  157 1    
    69   33  158 1    
    70   34   35 am   BACKBONE|DICT|INTERRES
    71   34  159 1    
    72   35   36 2    
    73   35   37 1    
    74   37   38 1    
    75   37   39 1    
    76   37  160 1    
    77   38  161 1    
    78   38  162 1    
    79   38  163 1    
    80   39   40 am   BACKBONE|DICT|INTERRES
    81   39  164 1    
    82   40   41 2    
    83   40   42 1    
    84   42   43 1    
    85   42   44 1    
    86   42  165 1    
    87   43  166 1    
    88   43  167 1    
    89   43  168 1    
    90   44   45 am   BACKBONE|DICT|INTERRES
    91   44  169 1    
    92   45   46 2    
    93   45   47 1    
    94   47   48 1    
    95   47   49 1    
    96   47  170 1    
    97   48  171 1    
    98   48  172 1    
    99   48  173 1    
   100   49   50 am   BACKBONE|DICT|INTERRES
   101   49  174 1    
   102   50   51 2    
   103   50   52 1    
   104   52   53 1    
   105   52   54 1    
   106   52  175 1    
   107   53  176 1    
   108   53  177 1    
   109   53  178 1    
   110   54   55 am   BACKBONE|DICT|INTERRES
   111   54  179 1    
   112   55   56 2    
   113   55   57 1    
   114   57   58 1    
   115   57   59 1    
   116   57  180 1    
   117   58  181 1    
   118   58  182 1    
   119   58  183 1    
   120   59   60 am   BACKBONE|DICT|INTERRES
   121   59  184 1    
   122   60   61 2    
   123   60   62 1    
   124   62   63 1    
   125   62   64 1    
   126   62  185 1    
   127   63  186 1    
   128   63  187 1    
   129   63  188 1    
   130   64   65 am   BACKBONE|DICT|INTERRES
   131   64  189 1    
   132   65   66 2    
   133   67   68 2    
   134   67   69 am   BACKBONE|DICT|INTERRES
   135   69   70 1    
   136   69  190 1    
   137   70   71 1    
   138   70   72 1    
   139   70  191 1    
   140   71  192 1    
   141   71  193 1    
   142   71  194 1    
   143   72   73 2    
   144   72   74 am   BACKBONE|DICT|INTERRES
   145   74   75 1    
   146   74  195 1    
   147   75   76 1    
   148   75   77 1    
   149   75  196 1    
   150   76  197 1    
   151   76  198 1    
   152   76  199 1    
   153   77   78 2    
   154   77   79 am   BACKBONE|DICT|INTERRES
   155   79   80 1    
   156   79  200 1    
   157   80   81 1    
   158   80   82 1    
   159   80  201 1    
   160   81  202 1    
   161   81  203 1    
   162   81  204 1    
   163   82   83 2    
   164   82   84 am   BACKBONE|DICT|INTERRES
   165   84   85 1    
   166   84  205 1    
   167   85   86 1    
   168   85   87 1    
   169   85  206 1    
   170   86  207 1    
   171   86  208 1    
   172   86  209 1    
   173   87   88 2    
   174   87   89 am   BACKBONE|DICT|INTERRES
   175   89   90 1    
   176   89  210 1    
   177   90   91 1    
   178   90   92 1    
   179   90  211 1    
   180   91  212 1    
   181   91  213 1    
   182   91  214 1    
   183   92   93 2    
   184   92   94 am   BACKBONE|DICT|INTERRES
   185   94   95 1    
   186   94  215 1    
   187   95   96 1    
   188   95   97 1    
   189   95  216 1    
   190   96  217 1    
   191   96  218 1    
   192   96  219 1    
   193   97   98 2    
   194   97   99 am   BACKBONE|DICT|INTERRES
   195   99  100 1    
   196   99  220 1    
   197  100  101 1    
   198  100  102 1    
   199  100  221 1    
   200  101  222 1    
   201  101  223 1    
   202  101  224 1    
   203  102  103 2    
   204  102  104 am   BACKBONE|DICT|INTERRES
   205  104  105 1    
   206  104  225 1    
   207  105  106 1    
   208  105  107 1    
   209  105  226 1    
   210  106  227 1    
   211  106  228 1    
   212  106  229 1    
   213  107  108 2    
   214  107  109 am   BACKBONE|DICT|INTERRES
   215  109  110 1    
   216  109  230 1    
   217  110  111 1    
   218  110  112 1    
   219  110  231 1    
   220  111  232 1    
   221  111  233 1    
   222  111  234 1    
   223  112  113 2    
   224  112  114 am   BACKBONE|DICT|INTERRES
   225  114  115 1    
   226  114  235 1    
   227  115  116 1    
   228  115  117 1    
   229  115  236 1    
   230  116  237 1    
   231  116  238 1    
   232  116  239 1    
   233  117  118 2    
   234  117  119 am   BACKBONE|DICT|INTERRES
   235  119  120 1    
   236  119  240 1    
   237  120  121 1    
   238  120  124 1    
   239  120  241 1    
   240  121  122 am   BACKBONE|DICT|INTERRES
   241  121  123 2    
   242  122  242 1    
   243  122  243 1    
   244  124  125 1    
   245  124  244 1    
   246  124  245 1    
   247  125  126 1    
   248  126  246 1    
   249  126  247 1    
@<TRIPOS>SUBSTRUCTURE
     1 UNK         1 GROUP             0       ****    0 ROOT    
