@<TRIPOS>MOLECULE
3R540
247   249    1
SMALL
USER_CHARGES


@<TRIPOS>ATOM
      1 CA          1.5808  -18.9838  -51.6379 C.3       0 UNK        -0.1800 
      2 C           2.2393  -17.6889  -52.0941 C.2       0 UNK         0.5000 
      3 O           2.2475  -17.3962  -53.2890 O.2       0 UNK        -0.5000 
      4 N           2.8059  -16.9250  -51.1511 N.am      1 UNK        -0.5000 
      5 CA          3.5514  -15.6834  -51.4033 C.3       1 UNK         0.1400 
      6 C6          4.3085  -15.1762  -50.1489 C.3       23 UNK        -0.0398 
      7 S7          5.3742  -16.4378  -49.3674 S.3       23 UNK        -0.2404 
      8 C8          4.6312  -16.5899  -47.7095 C.3       23 UNK        -0.0205 
      9 C9          3.4338  -17.5295  -47.6970 C.ar      23 UNK        -0.0193 
     10 C10         2.1611  -17.0594  -48.0275 C.ar      23 UNK        -0.1150 
     11 C11         1.0525  -17.9100  -48.0125 C.ar      23 UNK        -0.0193 
     12 C12         1.2355  -19.2537  -47.6779 C.ar      23 UNK        -0.1150 
     13 C13         2.4934  -19.7298  -47.2962 C.ar      23 UNK        -0.0193 
     14 C14         3.5911  -18.8657  -47.3224 C.ar      23 UNK        -0.1150 
     15 C15         2.6720  -21.1680  -46.8354 C.3       23 UNK        -0.0205 
     16 S16         2.3296  -21.3435  -45.0542 S.3       23 UNK        -0.2404 
     17 C17         0.5097  -21.5008  -45.0385 C.3       23 UNK        -0.0398 
     18 CA          0.0370  -22.9630  -44.8484 C.3       11 UNK         0.1400 
     19 N           0.4700  -23.5083  -43.5580 N.am      11 UNK        -0.5000 
     20 C           0.5923  -24.8088  -43.2547 C.2       10 UNK         0.5000 
     21 O           0.3809  -25.7120  -44.0660 O.2       10 UNK        -0.5000 
     22 CA          1.0000  -25.1765  -41.8125 C.3       10 UNK         0.1400 
     23 CB          2.4794  -25.5882  -41.7651 C.3       10 UNK        -0.1800 
     24 N           0.7836  -24.0992  -40.8462 N.am      10 UNK        -0.5000 
     25 C          -0.4082  -23.6230  -40.4576 C.2       9 UNK         0.5000 
     26 O          -1.4837  -24.1112  -40.8048 O.2       9 UNK        -0.5000 
     27 CA         -0.3961  -22.3738  -39.5490 C.3       9 UNK         0.1400 
     28 CB         -0.6965  -22.7647  -38.0938 C.3       9 UNK        -0.1800 
     29 N           0.8630  -21.6178  -39.5879 N.am      9 UNK        -0.5000 
     30 C           1.3543  -20.9991  -40.6696 C.2       8 UNK         0.5000 
     31 O           0.7854  -20.9837  -41.7637 O.2       8 UNK        -0.5000 
     32 CA          2.7369  -20.3523  -40.5161 C.3       8 UNK         0.1400 
     33 CB          3.8303  -21.4327  -40.3954 C.3       8 UNK        -0.1800 
     34 N           2.9973  -19.5146  -41.6807 N.am      8 UNK        -0.5000 
     35 C           3.9227  -18.5527  -41.7633 C.2       7 UNK         0.5000 
     36 O           4.6657  -18.2367  -40.8330 O.2       7 UNK        -0.5000 
     37 CA          4.0492  -17.8222  -43.1125 C.3       7 UNK         0.1400 
     38 CB          5.1041  -18.5110  -43.9912 C.3       7 UNK        -0.1800 
     39 N           2.7862  -17.7510  -43.8483 N.am      7 UNK        -0.5000 
     40 C           1.7794  -16.9238  -43.5390 C.2       6 UNK         0.5000 
     41 O           1.8008  -16.1306  -42.5947 O.2       6 UNK        -0.5000 
     42 CA          0.5245  -17.0239  -44.4246 C.3       6 UNK         0.1400 
     43 CB         -0.6240  -17.6835  -43.6435 C.3       6 UNK        -0.1800 
     44 N           0.0608  -15.7428  -44.9689 N.am      6 UNK        -0.5000 
     45 C           0.7868  -14.8367  -45.6409 C.2       5 UNK         0.5000 
     46 O           2.0080  -14.9071  -45.7825 O.2       5 UNK        -0.5000 
     47 CA          0.0156  -13.6708  -46.3049 C.3       5 UNK         0.1400 
     48 CB          0.8417  -12.9722  -47.4006 C.3       5 UNK        -0.1800 
     49 N          -1.2615  -14.0819  -46.8972 N.am      5 UNK        -0.5000 
     50 C          -2.4174  -14.2199  -46.2368 C.2       4 UNK         0.5000 
     51 O          -2.5072  -14.0788  -45.0167 O.2       4 UNK        -0.5000 
     52 CA         -3.6684  -14.6251  -47.0478 C.3       4 UNK         0.1400 
     53 CB         -4.9343  -13.8797  -46.5731 C.3       4 UNK        -0.1800 
     54 N          -3.5218  -14.5328  -48.5078 N.am      4 UNK        -0.5000 
     55 C          -3.3815  -13.4261  -49.2533 C.2       3 UNK         0.5000 
     56 O          -3.2845  -12.2852  -48.7987 O.2       3 UNK        -0.5000 
     57 CA         -3.3333  -13.6437  -50.7803 C.3       3 UNK         0.1400 
     58 CB         -4.4130  -12.8134  -51.4925 C.3       3 UNK        -0.1800 
     59 N          -2.0243  -13.3256  -51.3531 N.am      3 UNK        -0.5000 
     60 C          -0.8841  -13.9386  -51.0175 C.2       2 UNK         0.5000 
     61 O          -0.8218  -14.8385  -50.1771 O.2       2 UNK        -0.5000 
     62 CA          0.3977  -13.4794  -51.7278 C.3       2 UNK         0.1400 
     63 CB          0.8192  -12.0737  -51.2552 C.3       2 UNK        -0.1800 
     64 N           1.4338  -14.4599  -51.4228 N.am      2 UNK        -0.5000 
     65 C           2.6564  -14.5526  -51.9547 C.2       1 UNK         0.5000 
     66 O           3.0888  -13.7984  -52.8274 O.2       1 UNK        -0.5000 
     67 C          -1.4945  -23.1015  -45.0155 C.2       11 UNK         0.5000 
     68 O          -2.2024  -22.0982  -45.0978 O.2       11 UNK        -0.5000 
     69 N          -1.9800  -24.3478  -45.0235 N.am      12 UNK        -0.5000 
     70 CA         -3.3991  -24.6934  -45.1034 C.3       12 UNK         0.1400 
     71 CB         -3.6387  -25.9475  -44.2474 C.3       12 UNK        -0.1800 
     72 C          -3.8847  -24.9307  -46.5456 C.2       12 UNK         0.5000 
     73 O          -5.0951  -24.9153  -46.7754 O.2       12 UNK        -0.5000 
     74 N          -2.9571  -25.1718  -47.4817 N.am      13 UNK        -0.5000 
     75 CA         -3.2479  -25.4698  -48.8828 C.3       13 UNK         0.1400 
     76 CB         -3.7022  -26.9372  -49.0316 C.3       13 UNK        -0.1800 
     77 C          -2.0329  -25.1242  -49.7592 C.2       13 UNK         0.5000 
     78 O          -1.4951  -25.9933  -50.4486 O.2       13 UNK        -0.5000 
     79 N          -1.6043  -23.8578  -49.7078 N.am      14 UNK        -0.5000 
     80 CA         -0.5741  -23.3045  -50.5847 C.3       14 UNK         0.1400 
     81 CB          0.0350  -22.0534  -49.9326 C.3       14 UNK        -0.1800 
     82 C          -1.2110  -22.9804  -51.9460 C.2       14 UNK         0.5000 
     83 O          -1.9510  -22.0019  -52.0480 O.2       14 UNK        -0.5000 
     84 N          -0.9437  -23.8255  -52.9512 N.am      15 UNK        -0.5000 
     85 CA         -1.5993  -23.8509  -54.2661 C.3       15 UNK         0.1400 
     86 CB         -0.9230  -24.9190  -55.1389 C.3       15 UNK        -0.1800 
     87 C          -1.6514  -22.5051  -55.0171 C.2       15 UNK         0.5000 
     88 O          -2.6367  -22.2303  -55.7024 O.2       15 UNK        -0.5000 
     89 N          -0.6068  -21.6837  -54.8552 N.am      16 UNK        -0.5000 
     90 CA         -0.4796  -20.3616  -55.4705 C.3       16 UNK         0.1400 
     91 CB          0.9937  -19.9311  -55.4066 C.3       16 UNK        -0.1800 
     92 C          -1.3981  -19.2804  -54.8597 C.2       16 UNK         0.5000 
     93 O          -1.5727  -18.2328  -55.4837 O.2       16 UNK        -0.5000 
     94 N          -1.9679  -19.5337  -53.6733 N.am      17 UNK        -0.5000 
     95 CA         -2.8426  -18.6083  -52.9492 C.3       17 UNK         0.1400 
     96 CB         -2.0154  -17.8519  -51.8958 C.3       17 UNK        -0.1800 
     97 C          -4.0516  -19.3403  -52.3370 C.2       17 UNK         0.5000 
     98 O          -4.6212  -18.8661  -51.3530 O.2       17 UNK        -0.5000 
     99 N          -4.4375  -20.4775  -52.9337 N.am      18 UNK        -0.5000 
    100 CA        -5.4691  -21.3902  -52.4306 C.3       18 UNK         0.1400 
    101 CB        -5.4143  -22.6969  -53.2351 C.3       18 UNK        -0.1800 
    102 C         -6.8979  -20.8112  -52.4246 C.2       18 UNK         0.5000 
    103 O         -7.7602  -21.3379  -51.7211 O.2       18 UNK        -0.5000 
    104 N         -7.1245  -19.7415  -53.1985 N.am      19 UNK        -0.5000 
    105 CA        -8.3687  -18.9709  -53.2145 C.3       19 UNK         0.1400 
    106 CB        -8.4121  -18.1343  -54.5029 C.3       19 UNK        -0.1800 
    107 C         -8.5355  -18.0632  -51.9771 C.2       19 UNK         0.5000 
    108 O         -9.6556  -17.6342  -51.6952 O.2       19 UNK        -0.5000 
    109 N         -7.4318  -17.7760  -51.2752 N.am      20 UNK        -0.5000 
    110 CA        -7.3866  -16.9861  -50.0485 C.3       20 UNK         0.1400 
    111 CB        -6.1982  -16.0126  -50.1534 C.3       20 UNK        -0.1800 
    112 C         -7.2617  -17.9123  -48.8225 C.2       20 UNK         0.5000 
    113 O         -7.3687  -19.1353  -48.9466 O.2       20 UNK        -0.5000 
    114 N         -7.0102  -17.3156  -47.6478 N.am      21 UNK        -0.5000 
    115 CA        -6.8478  -18.0056  -46.3599 C.3       21 UNK         0.1400 
    116 CB        -6.6831  -16.9581  -45.2482 C.3       21 UNK        -0.1800 
    117 C         -5.6853  -19.0213  -46.3130 C.2       21 UNK         0.5000 
    118 O         -5.6978  -19.9098  -45.4608 O.2       21 UNK        -0.5000 
    119 N         -4.7246  -18.8843  -47.2356 N.am      22 UNK        -0.5000 
    120 CA        -3.6467  -19.8529  -47.4837 C.3       22 UNK         0.1400 
    121 C         -4.1044  -21.1516  -48.2133 C.2       22 UNK         0.5000 
    122 N         -5.3469  -21.2759  -48.6661 N.am      22 UNK        -0.7600 
    123 O         -3.3088  -22.0717  -48.3712 O.2       22 UNK        -0.5000 
    124 C124       -2.4559  -19.2012  -48.2271 C.3       23 UNK        -0.0398 
    125 S125       -1.6750  -17.8673  -47.2649 S.3       23 UNK        -0.2404 
    126 C126       -0.3197  -17.3491  -48.3685 C.3       23 UNK        -0.0205 
    127 H127        2.1980  -19.8355  -51.9228 H         1 UNK         0.0600 
    128 H128        0.6054  -19.1010  -52.1075 H         1 UNK         0.0600 
    129 H129        1.4433  -19.0123  -50.5587 H         1 UNK         0.0600 
    130 H130        2.8012  -17.2406  -50.1905 H         1 UNK         0.3000 
    131 H131        4.2954  -15.9087  -52.1704 H         1 UNK         0.0600 
    132 H132        4.9514  -14.3373  -50.4218 H         1 UNK         0.0800 
    133 H133        3.6118  -14.7791  -49.4096 H         1 UNK         0.0800 
    134 H134        5.3985  -16.9605  -47.0297 H         1 UNK         0.0800 
    135 H135        4.3463  -15.6085  -47.3266 H         1 UNK         0.0800 
    136 H136        2.0302  -16.0183  -48.2830 H         1 UNK         0.1150 
    137 H137        0.3914  -19.9212  -47.6943 H         1 UNK         0.1150 
    138 H138        4.5684  -19.2320  -47.0410 H         1 UNK         0.1150 
    139 H139        2.0346  -21.8410  -47.4078 H         1 UNK         0.0800 
    140 H140        3.6964  -21.4917  -47.0254 H         1 UNK         0.0800 
    141 H141        0.1014  -21.1012  -45.9625 H         1 UNK         0.0800 
    142 H142        0.1140  -20.8627  -44.2483 H         1 UNK         0.0800 
    143 H143        0.4924  -23.5574  -45.6436 H         1 UNK         0.0600 
    144 H144        0.6391  -22.8197  -42.8341 H         1 UNK         0.3000 
    145 H145        0.3932  -26.0321  -41.5090 H         1 UNK         0.0600 
    146 H146        2.7657  -25.9204  -40.7670 H         1 UNK         0.0600 
    147 H147        2.6779  -26.4138  -42.4499 H         1 UNK         0.0600 
    148 H148        3.1354  -24.7633  -42.0468 H         1 UNK         0.0600 
    149 H149        1.6099  -23.6393  -40.4955 H         1 UNK         0.3000 
    150 H150       -1.1926  -21.7137  -39.8983 H         1 UNK         0.0600 
    151 H151        0.0802  -23.4105  -37.6823 H         1 UNK         0.0600 
    152 H152       -1.6430  -23.3021  -38.0202 H         1 UNK         0.0600 
    153 H153       -0.7754  -21.8840  -37.4562 H         1 UNK         0.0600 
    154 H154        1.3928  -21.5925  -38.7283 H         1 UNK         0.3000 
    155 H155        2.7265  -19.7294  -39.6195 H         1 UNK         0.0600 
    156 H156        3.8635  -22.0680  -41.2817 H         1 UNK         0.0600 
    157 H157        3.6600  -22.0780  -39.5330 H         1 UNK         0.0600 
    158 H158        4.8176  -20.9885  -40.2686 H         1 UNK         0.0600 
    159 H159        2.3913  -19.7016  -42.4701 H         1 UNK         0.3000 
    160 H160        4.3899  -16.8049  -42.9084 H         1 UNK         0.0600 
    161 H161        4.7992  -19.5191  -44.2744 H         1 UNK         0.0600 
    162 H162        6.0579  -18.5911  -43.4681 H         1 UNK         0.0600 
    163 H163        5.2845  -17.9442  -44.9029 H         1 UNK         0.0600 
    164 H164        2.6937  -18.3664  -44.6443 H         1 UNK         0.3000 
    165 H165        0.7587  -17.6643  -45.2746 H         1 UNK         0.0600 
    166 H166       -1.4858  -17.8731  -44.2828 H         1 UNK         0.0600 
    167 H167       -0.3145  -18.6427  -43.2262 H         1 UNK         0.0600 
    168 H168       -0.9543  -17.0575  -42.8137 H         1 UNK         0.0600 
    169 H169       -0.9280  -15.5527  -44.8742 H         1 UNK         0.3000 
    170 H170       -0.1797  -12.9361  -45.5212 H         1 UNK         0.0600 
    171 H171        1.7738  -12.5715  -47.0004 H         1 UNK         0.0600 
    172 H172        1.0967  -13.6588  -48.2087 H         1 UNK         0.0600 
    173 H173        0.2916  -12.1357  -47.8319 H         1 UNK         0.0600 
    174 H174       -1.2601  -14.2562  -47.8938 H         1 UNK         0.3000 
    175 H175       -3.8199  -15.6839  -46.8344 H         1 UNK         0.0600 
    176 H176       -5.8181  -14.2098  -47.1177 H         1 UNK         0.0600 
    177 H177       -5.1237  -14.0577  -45.5141 H         1 UNK         0.0600 
    178 H178       -4.8436  -12.8013  -46.7040 H         1 UNK         0.0600 
    179 H179       -3.4959  -15.4207  -48.9876 H         1 UNK         0.3000 
    180 H180       -3.5350  -14.6962  -50.9901 H         1 UNK         0.0600 
    181 H181       -4.2324  -11.7428  -51.3883 H         1 UNK         0.0600 
    182 H182       -5.4012  -13.0199  -51.0795 H         1 UNK         0.0600 
    183 H183       -4.4515  -13.0458  -52.5569 H         1 UNK         0.0600 
    184 H184       -2.0000  -12.5752  -52.0278 H         1 UNK         0.3000 
    185 H185        0.2173  -13.4754  -52.8043 H         1 UNK         0.0600 
    186 H186        0.0235  -11.3457  -51.4161 H         1 UNK         0.0600 
    187 H187        1.0634  -12.0634  -50.1934 H         1 UNK         0.0600 
    188 H188        1.6921  -11.7138  -51.7994 H         1 UNK         0.0600 
    189 H189        1.1296  -15.1518  -50.7483 H         1 UNK         0.3000 
    190 H190       -1.3246  -25.1112  -44.8860 H         1 UNK         0.3000 
    191 H191       -3.9989  -23.8817  -44.6858 H         1 UNK         0.0600 
    192 H192       -3.3512  -25.7757  -43.2096 H         1 UNK         0.0600 
    193 H193       -4.6926  -26.2286  -44.2498 H         1 UNK         0.0600 
    194 H194       -3.0692  -26.8016  -44.6163 H         1 UNK         0.0600 
    195 H195       -1.9811  -25.1334  -47.2258 H         1 UNK         0.3000 
    196 H196       -4.0613  -24.8238  -49.2204 H         1 UNK         0.0600 
    197 H197       -3.9137  -27.1783  -50.0740 H         1 UNK         0.0600 
    198 H198       -4.6141  -27.1318  -48.4671 H         1 UNK         0.0600 
    199 H199       -2.9373  -27.6305  -48.6801 H         1 UNK         0.0600 
    200 H200       -2.1513  -23.1860  -49.1679 H         1 UNK         0.3000 
    201 H201        0.2242  -24.0384  -50.7150 H         1 UNK         0.0600 
    202 H202        0.9234  -21.7279  -50.4741 H         1 UNK         0.0600 
    203 H203       -0.6637  -21.2187  -49.9250 H         1 UNK         0.0600 
    204 H204        0.3302  -22.2520  -48.9037 H         1 UNK         0.0600 
    205 H205       -0.3368  -24.6088  -52.7552 H         1 UNK         0.3000 
    206 H206       -2.6303  -24.1655  -54.1004 H         1 UNK         0.0600 
    207 H207       -0.9911  -25.9057  -54.6802 H         1 UNK         0.0600 
    208 H208       -1.3996  -24.9852  -56.1180 H         1 UNK         0.0600 
    209 H209        0.1321  -24.6957  -55.3017 H         1 UNK         0.0600 
    210 H210        0.1508  -21.9846  -54.2601 H         1 UNK         0.3000 
    211 H211       -0.7553  -20.4505  -56.5235 H         1 UNK         0.0600 
    212 H212        1.3578  -19.8958  -54.3806 H         1 UNK         0.0600 
    213 H213        1.1354  -18.9392  -55.8381 H         1 UNK         0.0600 
    214 H214        1.6295  -20.6196  -55.9634 H         1 UNK         0.0600 
    215 H215       -1.8055  -20.4288  -53.2178 H         1 UNK         0.3000 
    216 H216       -3.2656  -17.8750  -53.6384 H         1 UNK         0.0600 
    217 H217       -2.6271  -17.1513  -51.3264 H         1 UNK         0.0600 
    218 H218       -1.2149  -17.2753  -52.3597 H         1 UNK         0.0600 
    219 H219       -1.5624  -18.5500  -51.1933 H         1 UNK         0.0600 
    220 H220       -3.9162  -20.7923  -53.7394 H         1 UNK         0.3000 
    221 H221       -5.2168  -21.6257  -51.3960 H         1 UNK         0.0600 
    222 H222       -5.5498  -22.5203  -54.3028 H         1 UNK         0.0600 
    223 H223       -4.4578  -23.1966  -53.0919 H         1 UNK         0.0600 
    224 H224       -6.1902  -23.3927  -52.9132 H         1 UNK         0.0600 
    225 H225       -6.3609  -19.3873  -53.7550 H         1 UNK         0.3000 
    226 H226       -9.2105  -19.6663  -53.2295 H         1 UNK         0.0600 
    227 H227       -9.3418  -17.5677  -54.5700 H         1 UNK         0.0600 
    228 H228       -7.5888  -17.4202  -54.5470 H         1 UNK         0.0600 
    229 H229       -8.3556  -18.7686  -55.3877 H         1 UNK         0.0600 
    230 H230       -6.5646  -18.2441  -51.5157 H         1 UNK         0.3000 
    231 H231       -8.3031  -16.4038  -49.9361 H         1 UNK         0.0600 
    232 H232       -5.2430  -16.5375  -50.1239 H         1 UNK         0.0600 
    233 H233       -6.2073  -15.2847  -49.3426 H         1 UNK         0.0600 
    234 H234       -6.2371  -15.4482  -51.0852 H         1 UNK         0.0600 
    235 H235       -6.9529  -16.3088  -47.6198 H         1 UNK         0.3000 
    236 H236       -7.7687  -18.5612  -46.1713 H         1 UNK         0.0600 
    237 H237       -7.5050  -16.2420  -45.2480 H         1 UNK         0.0600 
    238 H238       -6.6681  -17.4332  -44.2664 H         1 UNK         0.0600 
    239 H239       -5.7501  -16.4056  -45.3541 H         1 UNK         0.0600 
    240 H240       -4.8115  -18.1379  -47.9062 H         1 UNK         0.3000 
    241 H241       -3.2790  -20.1813  -46.5109 H         1 UNK         0.0600 
    242 H242       -6.0102  -20.5093  -48.6108 H         1 UNK         0.3800 
    243 H243       -5.6235  -22.1385  -49.1021 H         1 UNK         0.3800 
    244 H244       -2.7858  -18.8042  -49.1873 H         1 UNK         0.0800 
    245 H245       -1.6925  -19.9447  -48.4420 H         1 UNK         0.0800 
    246 H246       -0.2743  -16.2668  -48.2847 H         1 UNK         0.0800 
    247 H247       -0.5521  -17.5711  -49.4079 H         1 UNK         0.0800 
@<TRIPOS>BOND
     1    1    2 1    
     2    1  127 1    
     3    1  128 1    
     4    1  129 1    
     5    2    3 2    
     6    2    4 am   BACKBONE|DICT|INTERRES
     7    4    5 1    
     8    4  130 1    
     9    5    6 1    
    10    5   65 1    
    11    5  131 1    
    12    6    7 1    
    13    6  132 1    
    14    6  133 1    
    15    7    8 1    
    16    8    9 1    
    17    8  134 1    
    18    8  135 1    
    19    9   10 ar   
    20    9   14 ar   
    21   10   11 ar   
    22   10  136 1    
    23   11   12 ar   
    24   11  126 1    
    25   12   13 ar   
    26   12  137 1    
    27   13   14 ar   
    28   13   15 1    
    29   14  138 1    
    30   15   16 1    
    31   15  139 1    
    32   15  140 1    
    33   16   17 1    
    34   17   18 1    
    35   17  141 1    
    36   17  142 1    
    37   18   19 1    
    38   18   67 1    
    39   18  143 1    
    40   19   20 am   BACKBONE|DICT|INTERRES
    41   19  144 1    
    42   20   21 2    
    43   20   22 1    
    44   22   23 1    
    45   22   24 1    
    46   22  145 1    
    47   23  146 1    
    48   23  147 1    
    49   23  148 1    
    50   24   25 am   BACKBONE|DICT|INTERRES
    51   24  149 1    
    52   25   26 2    
    53   25   27 1    
    54   27   28 1    
    55   27   29 1    
    56   27  150 1    
    57   28  151 1    
    58   28  152 1    
    59   28  153 1    
    60   29   30 am   BACKBONE|DICT|INTERRES
    61   29  154 1    
    62   30   31 2    
    63   30   32 1    
    64   32   33 1    
    65   32   34 1    
    66   32  155 1    
    67   33  156 1    
    68   33  157 1    
    69   33  158 1    
    70   34   35 am   BACKBONE|DICT|INTERRES
    71   34  159 1    
    72   35   36 2    
    73   35   37 1    
    74   37   38 1    
    75   37   39 1    
    76   37  160 1    
    77   38  161 1    
    78   38  162 1    
    79   38  163 1    
    80   39   40 am   BACKBONE|DICT|INTERRES
    81   39  164 1    
    82   40   41 2    
    83   40   42 1    
    84   42   43 1    
    85   42   44 1    
    86   42  165 1    
    87   43  166 1    
    88   43  167 1    
    89   43  168 1    
    90   44   45 am   BACKBONE|DICT|INTERRES
    91   44  169 1    
    92   45   46 2    
    93   45   47 1    
    94   47   48 1    
    95   47   49 1    
    96   47  170 1    
    97   48  171 1    
    98   48  172 1    
    99   48  173 1    
   100   49   50 am   BACKBONE|DICT|INTERRES
   101   49  174 1    
   102   50   51 2    
   103   50   52 1    
   104   52   53 1    
   105   52   54 1    
   106   52  175 1    
   107   53  176 1    
   108   53  177 1    
   109   53  178 1    
   110   54   55 am   BACKBONE|DICT|INTERRES
   111   54  179 1    
   112   55   56 2    
   113   55   57 1    
   114   57   58 1    
   115   57   59 1    
   116   57  180 1    
   117   58  181 1    
   118   58  182 1    
   119   58  183 1    
   120   59   60 am   BACKBONE|DICT|INTERRES
   121   59  184 1    
   122   60   61 2    
   123   60   62 1    
   124   62   63 1    
   125   62   64 1    
   126   62  185 1    
   127   63  186 1    
   128   63  187 1    
   129   63  188 1    
   130   64   65 am   BACKBONE|DICT|INTERRES
   131   64  189 1    
   132   65   66 2    
   133   67   68 2    
   134   67   69 am   BACKBONE|DICT|INTERRES
   135   69   70 1    
   136   69  190 1    
   137   70   71 1    
   138   70   72 1    
   139   70  191 1    
   140   71  192 1    
   141   71  193 1    
   142   71  194 1    
   143   72   73 2    
   144   72   74 am   BACKBONE|DICT|INTERRES
   145   74   75 1    
   146   74  195 1    
   147   75   76 1    
   148   75   77 1    
   149   75  196 1    
   150   76  197 1    
   151   76  198 1    
   152   76  199 1    
   153   77   78 2    
   154   77   79 am   BACKBONE|DICT|INTERRES
   155   79   80 1    
   156   79  200 1    
   157   80   81 1    
   158   80   82 1    
   159   80  201 1    
   160   81  202 1    
   161   81  203 1    
   162   81  204 1    
   163   82   83 2    
   164   82   84 am   BACKBONE|DICT|INTERRES
   165   84   85 1    
   166   84  205 1    
   167   85   86 1    
   168   85   87 1    
   169   85  206 1    
   170   86  207 1    
   171   86  208 1    
   172   86  209 1    
   173   87   88 2    
   174   87   89 am   BACKBONE|DICT|INTERRES
   175   89   90 1    
   176   89  210 1    
   177   90   91 1    
   178   90   92 1    
   179   90  211 1    
   180   91  212 1    
   181   91  213 1    
   182   91  214 1    
   183   92   93 2    
   184   92   94 am   BACKBONE|DICT|INTERRES
   185   94   95 1    
   186   94  215 1    
   187   95   96 1    
   188   95   97 1    
   189   95  216 1    
   190   96  217 1    
   191   96  218 1    
   192   96  219 1    
   193   97   98 2    
   194   97   99 am   BACKBONE|DICT|INTERRES
   195   99  100 1    
   196   99  220 1    
   197  100  101 1    
   198  100  102 1    
   199  100  221 1    
   200  101  222 1    
   201  101  223 1    
   202  101  224 1    
   203  102  103 2    
   204  102  104 am   BACKBONE|DICT|INTERRES
   205  104  105 1    
   206  104  225 1    
   207  105  106 1    
   208  105  107 1    
   209  105  226 1    
   210  106  227 1    
   211  106  228 1    
   212  106  229 1    
   213  107  108 2    
   214  107  109 am   BACKBONE|DICT|INTERRES
   215  109  110 1    
   216  109  230 1    
   217  110  111 1    
   218  110  112 1    
   219  110  231 1    
   220  111  232 1    
   221  111  233 1    
   222  111  234 1    
   223  112  113 2    
   224  112  114 am   BACKBONE|DICT|INTERRES
   225  114  115 1    
   226  114  235 1    
   227  115  116 1    
   228  115  117 1    
   229  115  236 1    
   230  116  237 1    
   231  116  238 1    
   232  116  239 1    
   233  117  118 2    
   234  117  119 am   BACKBONE|DICT|INTERRES
   235  119  120 1    
   236  119  240 1    
   237  120  121 1    
   238  120  124 1    
   239  120  241 1    
   240  121  122 am   BACKBONE|DICT|INTERRES
   241  121  123 2    
   242  122  242 1    
   243  122  243 1    
   244  124  125 1    
   245  124  244 1    
   246  124  245 1    
   247  125  126 1    
   248  126  246 1    
   249  126  247 1    
@<TRIPOS>SUBSTRUCTURE
     1 UNK         1 GROUP             0       ****    0 ROOT    
