@<TRIPOS>MOLECULE
3R540
247   249    1
SMALL
USER_CHARGES


@<TRIPOS>ATOM
      1 CA          7.4136  -12.4673  -48.4443 C.3       0 UNK        -0.1800 
      2 C           6.4093  -13.0669  -47.4702 C.2       0 UNK         0.5000 
      3 O           6.8042  -13.6009  -46.4340 O.2       0 UNK        -0.5000 
      4 N           5.1134  -12.9748  -47.7948 N.am      1 UNK        -0.5000 
      5 CA          4.0071  -13.5183  -46.9950 C.3       1 UNK         0.1400 
      6 C6          2.7489  -13.7852  -47.8547 C.3       23 UNK        -0.0398 
      7 S7          2.9985  -15.0532  -49.1380 S.3       23 UNK        -0.2404 
      8 C8          1.4085  -15.9382  -49.0328 C.3       23 UNK        -0.0205 
      9 C9          1.4475  -17.2406  -49.8112 C.ar      23 UNK        -0.0193 
     10 C10         0.8202  -17.3497  -51.0537 C.ar      23 UNK        -0.1150 
     11 C11         0.8566  -18.5547  -51.7603 C.ar      23 UNK        -0.0193 
     12 C12         1.5229  -19.6553  -51.2119 C.ar      23 UNK        -0.1150 
     13 C13         2.1520  -19.5637  -49.9649 C.ar      23 UNK        -0.0193 
     14 C14         2.1112  -18.3454  -49.2754 C.ar      23 UNK        -0.1150 
     15 C15         2.8749  -20.7914  -49.4102 C.3       23 UNK        -0.0205 
     16 S16         3.0825  -20.8004  -47.5940 S.3       23 UNK        -0.2404 
     17 C17         3.3266  -22.5787  -47.2638 C.3       23 UNK        -0.0398 
     18 CA          2.0857  -23.2921  -46.6695 C.3       11 UNK         0.1400 
     19 N           1.6345  -22.7031  -45.4050 N.am      11 UNK        -0.5000 
     20 C           0.8347  -23.3270  -44.5293 C.2       10 UNK         0.5000 
     21 O           0.2275  -24.3676  -44.7831 O.2       10 UNK        -0.5000 
     22 CA          0.7075  -22.7022  -43.1311 C.3       10 UNK         0.1400 
     23 CB          2.0630  -22.2495  -42.5569 C.3       10 UNK        -0.1800 
     24 N          -0.2003  -21.5669  -43.1915 N.am      10 UNK        -0.5000 
     25 C          -1.4819  -21.5908  -42.8026 C.2       9 UNK         0.5000 
     26 O          -2.0024  -22.5455  -42.2245 O.2       9 UNK        -0.5000 
     27 CA         -2.3421  -20.3459  -43.1067 C.3       9 UNK         0.1400 
     28 CB         -2.6621  -19.5861  -41.8106 C.3       9 UNK        -0.1800 
     29 N          -1.7409  -19.4275  -44.0805 N.am      9 UNK        -0.5000 
     30 C          -1.5495  -19.7303  -45.3731 C.2       8 UNK         0.5000 
     31 O          -1.8834  -20.8058  -45.8683 O.2       8 UNK        -0.5000 
     32 CA         -0.8032  -18.7063  -46.2491 C.3       8 UNK         0.1400 
     33 CB         -1.7873  -17.7516  -46.9388 C.3       8 UNK        -0.1800 
     34 N           0.2260  -17.9395  -45.5423 N.am      8 UNK        -0.5000 
     35 C           1.3093  -18.4882  -44.9689 C.2       7 UNK         0.5000 
     36 O           1.4814  -19.7034  -44.8637 O.2       7 UNK        -0.5000 
     37 CA          2.3711  -17.5313  -44.4088 C.3       7 UNK         0.1400 
     38 CB          3.2250  -16.9403  -45.5375 C.3       7 UNK        -0.1800 
     39 N           1.7548  -16.4500  -43.6450 N.am      7 UNK        -0.5000 
     40 C           1.6534  -16.4436  -42.3095 C.2       6 UNK         0.5000 
     41 O           2.1495  -17.2997  -41.5760 O.2       6 UNK        -0.5000 
     42 CA          0.8375  -15.2982  -41.6801 C.3       6 UNK         0.1400 
     43 CB          1.7388  -14.0837  -41.4071 C.3       6 UNK        -0.1800 
     44 N          -0.3103  -14.8716  -42.4835 N.am      6 UNK        -0.5000 
     45 C          -1.3176  -15.6586  -42.8903 C.2       5 UNK         0.5000 
     46 O          -1.3936  -16.8612  -42.6478 O.2       5 UNK        -0.5000 
     47 CA         -2.4054  -14.9996  -43.7556 C.3       5 UNK         0.1400 
     48 CB         -3.5515  -14.4831  -42.8742 C.3       5 UNK        -0.1800 
     49 N          -1.9057  -13.9015  -44.5828 N.am      5 UNK        -0.5000 
     50 C          -0.9566  -13.9946  -45.5227 C.2       4 UNK         0.5000 
     51 O          -0.3511  -15.0337  -45.7972 O.2       4 UNK        -0.5000 
     52 CA         -0.5760  -12.6810  -46.2184 C.3       4 UNK         0.1400 
     53 CB         -1.7418  -12.0742  -47.0249 C.3       4 UNK        -0.1800 
     54 N           0.0284  -11.7343  -45.2759 N.am      4 UNK        -0.5000 
     55 C          -0.5585  -10.9923  -44.3256 C.2       3 UNK         0.5000 
     56 O          -1.7736  -10.9885  -44.1233 O.2       3 UNK        -0.5000 
     57 CA          0.3602  -10.1415  -43.4180 C.3       3 UNK         0.1400 
     58 CB          0.0024  -10.3330  -41.9342 C.3       3 UNK        -0.1800 
     59 N           1.7886  -10.4259  -43.5904 N.am      3 UNK        -0.5000 
     60 C           2.5680   -9.9573  -44.5737 C.2       2 UNK         0.5000 
     61 O           2.1673   -9.2020  -45.4598 O.2       2 UNK        -0.5000 
     62 CA          4.0319  -10.4437  -44.6047 C.3       2 UNK         0.1400 
     63 CB          4.5506  -10.9625  -43.2438 C.3       2 UNK        -0.1800 
     64 N           4.2430  -11.4457  -45.6553 N.am      2 UNK        -0.5000 
     65 C           3.6373  -12.6378  -45.7779 C.2       1 UNK         0.5000 
     66 O           2.7860  -13.0493  -44.9876 O.2       1 UNK        -0.5000 
     67 C           0.9573  -23.4649  -47.7035 C.2       11 UNK         0.5000 
     68 O           0.8311  -24.5471  -48.2775 O.2       11 UNK        -0.5000 
     69 N           0.1493  -22.4160  -47.9190 N.am      12 UNK        -0.5000 
     70 CA         -0.9372  -22.4369  -48.9010 C.3       12 UNK         0.1400 
     71 CB         -1.4348  -21.0160  -49.2079 C.3       12 UNK        -0.1800 
     72 C          -2.0883  -23.3480  -48.4515 C.2       12 UNK         0.5000 
     73 O          -2.6849  -24.0207  -49.2897 O.2       12 UNK        -0.5000 
     74 N          -2.3578  -23.3859  -47.1410 N.am      13 UNK        -0.5000 
     75 CA         -3.3160  -24.2934  -46.5147 C.3       13 UNK         0.1400 
     76 CB         -3.4904  -23.9147  -45.0383 C.3       13 UNK        -0.1800 
     77 C          -2.9054  -25.7694  -46.6635 C.2       13 UNK         0.5000 
     78 O          -3.7428  -26.5918  -47.0347 O.2       13 UNK        -0.5000 
     79 N          -1.6207  -26.0706  -46.4204 N.am      14 UNK        -0.5000 
     80 CA         -1.0353  -27.4038  -46.5864 C.3       14 UNK         0.1400 
     81 CB          0.3811  -27.4222  -45.9922 C.3       14 UNK        -0.1800 
     82 C          -1.0151  -27.8745  -48.0531 C.2       14 UNK         0.5000 
     83 O          -1.2828  -29.0467  -48.3194 O.2       14 UNK        -0.5000 
     84 N          -0.7244  -26.9494  -48.9776 N.am      15 UNK        -0.5000 
     85 CA         -0.7267  -27.1829  -50.4237 C.3       15 UNK         0.1400 
     86 CB          0.0678  -26.0554  -51.1026 C.3       15 UNK        -0.1800 
     87 C          -2.1391  -27.2742  -51.0379 C.2       15 UNK         0.5000 
     88 O          -2.2633  -27.7061  -52.1843 O.2       15 UNK        -0.5000 
     89 N          -3.1610  -26.8297  -50.2898 N.am      16 UNK        -0.5000 
     90 CA         -4.5568  -26.6283  -50.7012 C.3       16 UNK         0.1400 
     91 CB         -5.2259  -27.9579  -51.1058 C.3       16 UNK        -0.1800 
     92 C          -4.7184  -25.5193  -51.7668 C.2       16 UNK         0.5000 
     93 O          -5.7069  -25.5013  -52.5011 O.2       16 UNK        -0.5000 
     94 N          -3.7510  -24.5953  -51.8069 N.am      17 UNK        -0.5000 
     95 CA         -3.7240  -23.4107  -52.6596 C.3       17 UNK         0.1400 
     96 CB         -2.2601  -23.0232  -52.9201 C.3       17 UNK        -0.1800 
     97 C          -4.4865  -22.2316  -52.0313 C.2       17 UNK         0.5000 
     98 O          -4.8675  -21.3143  -52.7546 O.2       17 UNK        -0.5000 
     99 N          -4.7129  -22.2694  -50.7077 N.am      18 UNK        -0.5000 
    100 CA        -5.4660  -21.2583  -49.9568 C.3       18 UNK         0.1400 
    101 CB        -5.4140  -21.5855  -48.4570 C.3       18 UNK        -0.1800 
    102 C         -6.9261  -21.1040  -50.4278 C.2       18 UNK         0.5000 
    103 O         -7.4767  -20.0045  -50.3488 O.2       18 UNK        -0.5000 
    104 N         -7.5073  -22.1910  -50.9555 N.am      19 UNK        -0.5000 
    105 CA        -8.7769  -22.1976  -51.6775 C.3       19 UNK         0.1400 
    106 CB        -9.1721  -23.6509  -51.9851 C.3       19 UNK        -0.1800 
    107 C         -8.6559  -21.3601  -52.9651 C.2       19 UNK         0.5000 
    108 O         -7.9136  -21.7421  -53.8709 O.2       19 UNK        -0.5000 
    109 N         -9.3515  -20.2155  -52.9867 N.am      20 UNK        -0.5000 
    110 CA        -9.2886  -19.1593  -54.0048 C.3       20 UNK         0.1400 
    111 CB        -9.6902  -19.6819  -55.4013 C.3       20 UNK        -0.1800 
    112 C         -7.9536  -18.3786  -54.0093 C.2       20 UNK         0.5000 
    113 O         -7.6064  -17.7818  -55.0302 O.2       20 UNK        -0.5000 
    114 N         -7.2530  -18.3640  -52.8619 N.am      21 UNK        -0.5000 
    115 CA        -6.0774  -17.5447  -52.5344 C.3       21 UNK         0.1400 
    116 CB        -6.5287  -16.1040  -52.2196 C.3       21 UNK        -0.1800 
    117 C         -4.9515  -17.5981  -53.5899 C.2       21 UNK         0.5000 
    118 O         -4.4736  -16.5568  -54.0451 O.2       21 UNK        -0.5000 
    119 N         -4.5748  -18.8216  -53.9750 N.am      22 UNK        -0.5000 
    120 CA        -3.5660  -19.1586  -54.9927 C.3       22 UNK         0.1400 
    121 C         -3.9777  -18.8232  -56.4600 C.2       22 UNK         0.5000 
    122 N         -5.2112  -18.4184  -56.7418 N.am      22 UNK        -0.7600 
    123 O         -3.1707  -18.9652  -57.3749 O.2       22 UNK        -0.5000 
    124 C124       -2.1388  -18.6417  -54.6502 C.3       23 UNK        -0.0398 
    125 S125       -1.5598  -19.1177  -52.9838 S.3       23 UNK        -0.2404 
    126 C126        0.1924  -18.6532  -53.1240 C.3       23 UNK        -0.0205 
    127 H127        6.9233  -12.0272  -49.3130 H         1 UNK         0.0600 
    128 H128        7.9960  -11.6887  -47.9516 H         1 UNK         0.0600 
    129 H129        8.1003  -13.2373  -48.7959 H         1 UNK         0.0600 
    130 H130        4.8505  -12.5379  -48.6672 H         1 UNK         0.3000 
    131 H131        4.3340  -14.4747  -46.5847 H         1 UNK         0.0600 
    132 H132        1.9487  -14.1434  -47.2093 H         1 UNK         0.0800 
    133 H133        2.3896  -12.8685  -48.3254 H         1 UNK         0.0800 
    134 H134        1.1642  -16.1616  -47.9938 H         1 UNK         0.0800 
    135 H135        0.6109  -15.2913  -49.4015 H         1 UNK         0.0800 
    136 H136        0.3055  -16.4969  -51.4739 H         1 UNK         0.1150 
    137 H137        1.5504  -20.5869  -51.7597 H         1 UNK         0.1150 
    138 H138        2.6003  -18.2387  -48.3189 H         1 UNK         0.1150 
    139 H139        2.3253  -21.6851  -49.7081 H         1 UNK         0.0800 
    140 H140        3.8582  -20.8614  -49.8766 H         1 UNK         0.0800 
    141 H141        4.1567  -22.6662  -46.5617 H         1 UNK         0.0800 
    142 H142        3.6643  -23.0829  -48.1711 H         1 UNK         0.0800 
    143 H143        2.4147  -24.3052  -46.4262 H         1 UNK         0.0600 
    144 H144        2.0095  -21.7909  -45.1704 H         1 UNK         0.3000 
    145 H145        0.3153  -23.4742  -42.4658 H         1 UNK         0.0600 
    146 H146        1.9541  -21.9181  -41.5241 H         1 UNK         0.0600 
    147 H147        2.7811  -23.0704  -42.5591 H         1 UNK         0.0600 
    148 H148        2.5023  -21.4258  -43.1194 H         1 UNK         0.0600 
    149 H149        0.1420  -20.7553  -43.6939 H         1 UNK         0.3000 
    150 H150       -3.2843  -20.7040  -43.5265 H         1 UNK         0.0600 
    151 H151       -3.1631  -20.2333  -41.0896 H         1 UNK         0.0600 
    152 H152       -3.3243  -18.7414  -42.0007 H         1 UNK         0.0600 
    153 H153       -1.7567  -19.2061  -41.3357 H         1 UNK         0.0600 
    154 H154       -1.4368  -18.5266  -43.7229 H         1 UNK         0.3000 
    155 H155       -0.2904  -19.2702  -47.0308 H         1 UNK         0.0600 
    156 H156       -1.2735  -17.0966  -47.6426 H         1 UNK         0.0600 
    157 H157       -2.3113  -17.1253  -46.2185 H         1 UNK         0.0600 
    158 H158       -2.5406  -18.3039  -47.5019 H         1 UNK         0.0600 
    159 H159        0.1307  -16.9294  -45.5750 H         1 UNK         0.3000 
    160 H160        3.0363  -18.1182  -43.7719 H         1 UNK         0.0600 
    161 H161        2.6370  -16.2984  -46.1908 H         1 UNK         0.0600 
    162 H162        3.6651  -17.7273  -46.1514 H         1 UNK         0.0600 
    163 H163        4.0449  -16.3479  -45.1319 H         1 UNK         0.0600 
    164 H164        1.3030  -15.7125  -44.1689 H         1 UNK         0.3000 
    165 H165        0.4519  -15.6608  -40.7251 H         1 UNK         0.0600 
    166 H166        2.0825  -13.6217  -42.3334 H         1 UNK         0.0600 
    167 H167        1.2145  -13.3277  -40.8237 H         1 UNK         0.0600 
    168 H168        2.6231  -14.3720  -40.8370 H         1 UNK         0.0600 
    169 H169       -0.3347  -13.9010  -42.7554 H         1 UNK         0.3000 
    170 H170       -2.8067  -15.7647  -44.4210 H         1 UNK         0.0600 
    171 H171       -3.9598  -15.2831  -42.2550 H         1 UNK         0.0600 
    172 H172       -3.2185  -13.6869  -42.2070 H         1 UNK         0.0600 
    173 H173       -4.3695  -14.0928  -43.4800 H         1 UNK         0.0600 
    174 H174       -2.2816  -12.9782  -44.3945 H         1 UNK         0.3000 
    175 H175        0.1988  -12.9112  -46.9440 H         1 UNK         0.0600 
    176 H176       -2.0695  -12.7648  -47.8027 H         1 UNK         0.0600 
    177 H177       -2.6121  -11.8522  -46.4077 H         1 UNK         0.0600 
    178 H178       -1.4382  -11.1510  -47.5184 H         1 UNK         0.0600 
    179 H179        1.0407  -11.7328  -45.2773 H         1 UNK         0.3000 
    180 H180        0.1801   -9.0957  -43.6751 H         1 UNK         0.0600 
    181 H181        0.1030  -11.3737  -41.6274 H         1 UNK         0.0600 
    182 H182       -1.0267  -10.0314  -41.7349 H         1 UNK         0.0600 
    183 H183        0.6430   -9.7288  -41.2915 H         1 UNK         0.0600 
    184 H184        2.1981  -11.0751  -42.9344 H         1 UNK         0.3000 
    185 H185        4.6360   -9.5762  -44.8748 H         1 UNK         0.0600 
    186 H186        5.6165  -11.1846  -43.2973 H         1 UNK         0.0600 
    187 H187        4.4190  -10.2130  -42.4623 H         1 UNK         0.0600 
    188 H188        4.0452  -11.8726  -42.9198 H         1 UNK         0.0600 
    189 H189        4.9003  -11.1869  -46.3772 H         1 UNK         0.3000 
    190 H190        0.2905  -21.5687  -47.3886 H         1 UNK         0.3000 
    191 H191       -0.5323  -22.8462  -49.8285 H         1 UNK         0.0600 
    192 H192       -0.6089  -20.3348  -49.4073 H         1 UNK         0.0600 
    193 H193       -2.0720  -21.0151  -50.0927 H         1 UNK         0.0600 
    194 H194       -2.0240  -20.5998  -48.3938 H         1 UNK         0.0600 
    195 H195       -1.8819  -22.7268  -46.5343 H         1 UNK         0.3000 
    196 H196       -4.2774  -24.1624  -47.0149 H         1 UNK         0.0600 
    197 H197       -4.2334  -24.5507  -44.5559 H         1 UNK         0.0600 
    198 H198       -3.8255  -22.8827  -44.9330 H         1 UNK         0.0600 
    199 H199       -2.5570  -24.0221  -44.4854 H         1 UNK         0.0600 
    200 H200       -0.9993  -25.3430  -46.0807 H         1 UNK         0.3000 
    201 H201       -1.6477  -28.1098  -46.0218 H         1 UNK         0.0600 
    202 H202        0.3643  -27.1846  -44.9284 H         1 UNK         0.0600 
    203 H203        1.0342  -26.7013  -46.4851 H         1 UNK         0.0600 
    204 H204        0.8378  -28.4069  -46.0980 H         1 UNK         0.0600 
    205 H205       -0.4397  -26.0245  -48.6685 H         1 UNK         0.3000 
    206 H206       -0.2189  -28.1286  -50.6241 H         1 UNK         0.0600 
    207 H207        1.0898  -26.0104  -50.7259 H         1 UNK         0.0600 
    208 H208        0.1261  -26.2082  -52.1810 H         1 UNK         0.0600 
    209 H209       -0.3943  -25.0822  -50.9339 H         1 UNK         0.0600 
    210 H210       -2.9357  -26.4818  -49.3668 H         1 UNK         0.3000 
    211 H211       -5.0732  -26.2619  -49.8128 H         1 UNK         0.0600 
    212 H212       -4.8278  -28.3461  -52.0434 H         1 UNK         0.0600 
    213 H213       -6.3005  -27.8285  -51.2389 H         1 UNK         0.0600 
    214 H214       -5.0843  -28.7192  -50.3387 H         1 UNK         0.0600 
    215 H215       -3.0399  -24.6418  -51.0844 H         1 UNK         0.3000 
    216 H216       -4.1961  -23.6439  -53.6163 H         1 UNK         0.0600 
    217 H217       -1.7118  -23.8427  -53.3851 H         1 UNK         0.0600 
    218 H218       -1.7433  -22.7544  -51.9987 H         1 UNK         0.0600 
    219 H219       -2.1970  -22.1668  -53.5925 H         1 UNK         0.0600 
    220 H220       -4.3214  -23.0394  -50.1794 H         1 UNK         0.3000 
    221 H221       -4.9730  -20.2965  -50.1130 H         1 UNK         0.0600 
    222 H222       -5.8013  -22.5834  -48.2489 H         1 UNK         0.0600 
    223 H223       -4.3958  -21.5294  -48.0745 H         1 UNK         0.0600 
    224 H224       -6.0084  -20.8757  -47.8801 H         1 UNK         0.0600 
    225 H225       -6.9553  -23.0330  -51.0212 H         1 UNK         0.3000 
    226 H226       -9.5435  -21.7639  -51.0318 H         1 UNK         0.0600 
    227 H227       -9.3014  -24.2268  -51.0686 H         1 UNK         0.0600 
    228 H228      -10.1157  -23.6905  -52.5307 H         1 UNK         0.0600 
    229 H229       -8.4191  -24.1548  -52.5930 H         1 UNK         0.0600 
    230 H230       -9.9153  -19.9923  -52.1776 H         1 UNK         0.3000 
    231 H231      -10.0452  -18.4304  -53.7114 H         1 UNK         0.0600 
    232 H232      -10.6248  -20.2411  -55.3611 H         1 UNK         0.0600 
    233 H233       -8.9264  -20.3311  -55.8297 H         1 UNK         0.0600 
    234 H234       -9.8380  -18.8559  -56.0979 H         1 UNK         0.0600 
    235 H235       -7.5959  -18.9323  -52.0945 H         1 UNK         0.3000 
    236 H236       -5.6552  -17.9652  -51.6204 H         1 UNK         0.0600 
    237 H237       -5.6897  -15.4938  -51.8830 H         1 UNK         0.0600 
    238 H238       -6.9599  -15.6176  -53.0953 H         1 UNK         0.0600 
    239 H239       -7.2763  -16.0901  -51.4264 H         1 UNK         0.0600 
    240 H240       -4.9929  -19.6324  -53.5240 H         1 UNK         0.3000 
    241 H241       -3.5154  -20.2475  -54.9747 H         1 UNK         0.0600 
    242 H242       -5.4573  -18.2195  -57.6982 H         1 UNK         0.3800 
    243 H243       -5.8978  -18.2688  -56.0099 H         1 UNK         0.3800 
    244 H244       -1.4196  -19.0295  -55.3736 H         1 UNK         0.0800 
    245 H245       -2.0959  -17.5550  -54.7339 H         1 UNK         0.0800 
    246 H246        0.2766  -17.6945  -53.6384 H         1 UNK         0.0800 
    247 H247        0.7107  -19.3832  -53.7476 H         1 UNK         0.0800 
@<TRIPOS>BOND
     1    1    2 1    
     2    1  127 1    
     3    1  128 1    
     4    1  129 1    
     5    2    3 2    
     6    2    4 am   BACKBONE|DICT|INTERRES
     7    4    5 1    
     8    4  130 1    
     9    5    6 1    
    10    5   65 1    
    11    5  131 1    
    12    6    7 1    
    13    6  132 1    
    14    6  133 1    
    15    7    8 1    
    16    8    9 1    
    17    8  134 1    
    18    8  135 1    
    19    9   10 ar   
    20    9   14 ar   
    21   10   11 ar   
    22   10  136 1    
    23   11   12 ar   
    24   11  126 1    
    25   12   13 ar   
    26   12  137 1    
    27   13   14 ar   
    28   13   15 1    
    29   14  138 1    
    30   15   16 1    
    31   15  139 1    
    32   15  140 1    
    33   16   17 1    
    34   17   18 1    
    35   17  141 1    
    36   17  142 1    
    37   18   19 1    
    38   18   67 1    
    39   18  143 1    
    40   19   20 am   BACKBONE|DICT|INTERRES
    41   19  144 1    
    42   20   21 2    
    43   20   22 1    
    44   22   23 1    
    45   22   24 1    
    46   22  145 1    
    47   23  146 1    
    48   23  147 1    
    49   23  148 1    
    50   24   25 am   BACKBONE|DICT|INTERRES
    51   24  149 1    
    52   25   26 2    
    53   25   27 1    
    54   27   28 1    
    55   27   29 1    
    56   27  150 1    
    57   28  151 1    
    58   28  152 1    
    59   28  153 1    
    60   29   30 am   BACKBONE|DICT|INTERRES
    61   29  154 1    
    62   30   31 2    
    63   30   32 1    
    64   32   33 1    
    65   32   34 1    
    66   32  155 1    
    67   33  156 1    
    68   33  157 1    
    69   33  158 1    
    70   34   35 am   BACKBONE|DICT|INTERRES
    71   34  159 1    
    72   35   36 2    
    73   35   37 1    
    74   37   38 1    
    75   37   39 1    
    76   37  160 1    
    77   38  161 1    
    78   38  162 1    
    79   38  163 1    
    80   39   40 am   BACKBONE|DICT|INTERRES
    81   39  164 1    
    82   40   41 2    
    83   40   42 1    
    84   42   43 1    
    85   42   44 1    
    86   42  165 1    
    87   43  166 1    
    88   43  167 1    
    89   43  168 1    
    90   44   45 am   BACKBONE|DICT|INTERRES
    91   44  169 1    
    92   45   46 2    
    93   45   47 1    
    94   47   48 1    
    95   47   49 1    
    96   47  170 1    
    97   48  171 1    
    98   48  172 1    
    99   48  173 1    
   100   49   50 am   BACKBONE|DICT|INTERRES
   101   49  174 1    
   102   50   51 2    
   103   50   52 1    
   104   52   53 1    
   105   52   54 1    
   106   52  175 1    
   107   53  176 1    
   108   53  177 1    
   109   53  178 1    
   110   54   55 am   BACKBONE|DICT|INTERRES
   111   54  179 1    
   112   55   56 2    
   113   55   57 1    
   114   57   58 1    
   115   57   59 1    
   116   57  180 1    
   117   58  181 1    
   118   58  182 1    
   119   58  183 1    
   120   59   60 am   BACKBONE|DICT|INTERRES
   121   59  184 1    
   122   60   61 2    
   123   60   62 1    
   124   62   63 1    
   125   62   64 1    
   126   62  185 1    
   127   63  186 1    
   128   63  187 1    
   129   63  188 1    
   130   64   65 am   BACKBONE|DICT|INTERRES
   131   64  189 1    
   132   65   66 2    
   133   67   68 2    
   134   67   69 am   BACKBONE|DICT|INTERRES
   135   69   70 1    
   136   69  190 1    
   137   70   71 1    
   138   70   72 1    
   139   70  191 1    
   140   71  192 1    
   141   71  193 1    
   142   71  194 1    
   143   72   73 2    
   144   72   74 am   BACKBONE|DICT|INTERRES
   145   74   75 1    
   146   74  195 1    
   147   75   76 1    
   148   75   77 1    
   149   75  196 1    
   150   76  197 1    
   151   76  198 1    
   152   76  199 1    
   153   77   78 2    
   154   77   79 am   BACKBONE|DICT|INTERRES
   155   79   80 1    
   156   79  200 1    
   157   80   81 1    
   158   80   82 1    
   159   80  201 1    
   160   81  202 1    
   161   81  203 1    
   162   81  204 1    
   163   82   83 2    
   164   82   84 am   BACKBONE|DICT|INTERRES
   165   84   85 1    
   166   84  205 1    
   167   85   86 1    
   168   85   87 1    
   169   85  206 1    
   170   86  207 1    
   171   86  208 1    
   172   86  209 1    
   173   87   88 2    
   174   87   89 am   BACKBONE|DICT|INTERRES
   175   89   90 1    
   176   89  210 1    
   177   90   91 1    
   178   90   92 1    
   179   90  211 1    
   180   91  212 1    
   181   91  213 1    
   182   91  214 1    
   183   92   93 2    
   184   92   94 am   BACKBONE|DICT|INTERRES
   185   94   95 1    
   186   94  215 1    
   187   95   96 1    
   188   95   97 1    
   189   95  216 1    
   190   96  217 1    
   191   96  218 1    
   192   96  219 1    
   193   97   98 2    
   194   97   99 am   BACKBONE|DICT|INTERRES
   195   99  100 1    
   196   99  220 1    
   197  100  101 1    
   198  100  102 1    
   199  100  221 1    
   200  101  222 1    
   201  101  223 1    
   202  101  224 1    
   203  102  103 2    
   204  102  104 am   BACKBONE|DICT|INTERRES
   205  104  105 1    
   206  104  225 1    
   207  105  106 1    
   208  105  107 1    
   209  105  226 1    
   210  106  227 1    
   211  106  228 1    
   212  106  229 1    
   213  107  108 2    
   214  107  109 am   BACKBONE|DICT|INTERRES
   215  109  110 1    
   216  109  230 1    
   217  110  111 1    
   218  110  112 1    
   219  110  231 1    
   220  111  232 1    
   221  111  233 1    
   222  111  234 1    
   223  112  113 2    
   224  112  114 am   BACKBONE|DICT|INTERRES
   225  114  115 1    
   226  114  235 1    
   227  115  116 1    
   228  115  117 1    
   229  115  236 1    
   230  116  237 1    
   231  116  238 1    
   232  116  239 1    
   233  117  118 2    
   234  117  119 am   BACKBONE|DICT|INTERRES
   235  119  120 1    
   236  119  240 1    
   237  120  121 1    
   238  120  124 1    
   239  120  241 1    
   240  121  122 am   BACKBONE|DICT|INTERRES
   241  121  123 2    
   242  122  242 1    
   243  122  243 1    
   244  124  125 1    
   245  124  244 1    
   246  124  245 1    
   247  125  126 1    
   248  126  246 1    
   249  126  247 1    
@<TRIPOS>SUBSTRUCTURE
     1 UNK         1 GROUP             0       ****    0 ROOT    
