@<TRIPOS>MOLECULE
3R540
247   249    1
SMALL
USER_CHARGES


@<TRIPOS>ATOM
      1 CA          6.1100  -15.4711  -48.0252 C.3       0 UNK        -0.1800 
      2 C           5.0067  -16.2212  -48.7576 C.2       0 UNK         0.5000 
      3 O           5.2954  -17.0533  -49.6173 O.2       0 UNK        -0.5000 
      4 N           3.7444  -15.9362  -48.4135 N.am      1 UNK        -0.5000 
      5 CA          2.5454  -16.5550  -49.0031 C.3       1 UNK         0.1400 
      6 C6          1.3001  -15.6384  -48.8923 C.3       23 UNK        -0.0398 
      7 S7          1.5792  -13.9972  -49.6463 S.3       23 UNK        -0.2404 
      8 C8          0.0710  -13.0996  -49.1600 C.3       23 UNK        -0.0205 
      9 C9         -1.1686  -13.6892  -49.8137 C.ar      23 UNK        -0.0193 
     10 C10        -1.4117  -13.4917  -51.1764 C.ar      23 UNK        -0.1150 
     11 C11        -2.5183  -14.0838  -51.7955 C.ar      23 UNK        -0.0193 
     12 C12        -3.4002  -14.8487  -51.0266 C.ar      23 UNK        -0.1150 
     13 C13        -3.1703  -15.0500  -49.6633 C.ar      23 UNK        -0.0193 
     14 C14        -2.0597  -14.4560  -49.0602 C.ar      23 UNK        -0.1150 
     15 C15        -4.1096  -15.9291  -48.8520 C.3       23 UNK        -0.0205 
     16 S16        -3.7520  -17.6958  -49.1095 S.3       23 UNK        -0.2404 
     17 C17        -2.1939  -17.9017  -48.1708 C.3       23 UNK        -0.0398 
     18 CA         -2.2554  -18.8049  -46.9109 C.3       11 UNK         0.1400 
     19 N          -2.8429  -18.1714  -45.7205 N.am      11 UNK        -0.5000 
     20 C          -4.1053  -17.8272  -45.4274 C.2       10 UNK         0.5000 
     21 O          -5.0687  -18.0267  -46.1644 O.2       10 UNK        -0.5000 
     22 CA         -4.3406  -17.1985  -44.0433 C.3       10 UNK         0.1400 
     23 CB         -4.5837  -18.2998  -42.9993 C.3       10 UNK        -0.1800 
     24 N          -3.2020  -16.3839  -43.6178 N.am      10 UNK        -0.5000 
     25 C          -3.1280  -15.0512  -43.7378 C.2       9 UNK         0.5000 
     26 O          -4.0441  -14.3498  -44.1685 O.2       9 UNK        -0.5000 
     27 CA         -1.8032  -14.3836  -43.3123 C.3       9 UNK         0.1400 
     28 CB         -1.8495  -13.9891  -41.8285 C.3       9 UNK        -0.1800 
     29 N          -0.6322  -15.2300  -43.5396 N.am      9 UNK        -0.5000 
     30 C          -0.1967  -15.6237  -44.7435 C.2       8 UNK         0.5000 
     31 O          -0.6829  -15.2422  -45.8066 O.2       8 UNK        -0.5000 
     32 CA          0.9507  -16.6483  -44.7697 C.3       8 UNK         0.1400 
     33 CB          2.2966  -15.9399  -44.9815 C.3       8 UNK        -0.1800 
     34 N           1.0350  -17.4945  -43.5750 N.am      8 UNK        -0.5000 
     35 C           0.0820  -18.3258  -43.1286 C.2       7 UNK         0.5000 
     36 O          -1.0281  -18.4288  -43.6464 O.2       7 UNK        -0.5000 
     37 CA          0.4096  -19.1567  -41.8783 C.3       7 UNK         0.1400 
     38 CB          1.1712  -20.4380  -42.2527 C.3       7 UNK        -0.1800 
     39 N           1.1847  -18.3855  -40.9089 N.am      7 UNK        -0.5000 
     40 C           0.6659  -17.4455  -40.1061 C.2       6 UNK         0.5000 
     41 O          -0.5339  -17.1743  -40.0548 O.2       6 UNK        -0.5000 
     42 CA          1.6610  -16.6596  -39.2322 C.3       6 UNK         0.1400 
     43 CB          1.9207  -17.3986  -37.9108 C.3       6 UNK        -0.1800 
     44 N           2.9362  -16.4217  -39.9104 N.am      6 UNK        -0.5000 
     45 C           3.0941  -15.6074  -40.9635 C.2       5 UNK         0.5000 
     46 O           2.1870  -14.9293  -41.4466 O.2       5 UNK        -0.5000 
     47 CA          4.4949  -15.5769  -41.6057 C.3       5 UNK         0.1400 
     48 CB          5.3701  -14.5073  -40.9355 C.3       5 UNK        -0.1800 
     49 N           5.1918  -16.8677  -41.5654 N.am      5 UNK        -0.5000 
     50 C           4.7662  -17.9836  -42.1710 C.2       4 UNK         0.5000 
     51 O           3.7020  -18.0656  -42.7885 O.2       4 UNK        -0.5000 
     52 CA          5.6473  -19.2282  -42.0248 C.3       4 UNK         0.1400 
     53 CB          5.2807  -20.0051  -40.7495 C.3       4 UNK        -0.1800 
     54 N           5.4379  -20.0815  -43.1891 N.am      4 UNK        -0.5000 
     55 C           6.3819  -20.8018  -43.8041 C.2       3 UNK         0.5000 
     56 O           7.5456  -20.8755  -43.4062 O.2       3 UNK        -0.5000 
     57 CA          5.9742  -21.5822  -45.0731 C.3       3 UNK         0.1400 
     58 CB          5.8800  -23.0855  -44.7668 C.3       3 UNK        -0.1800 
     59 N           4.7135  -21.1544  -45.6897 N.am      3 UNK        -0.5000 
     60 C           4.5048  -19.9758  -46.2899 C.2       2 UNK         0.5000 
     61 O           5.3496  -19.0774  -46.3470 O.2       2 UNK        -0.5000 
     62 CA          3.1186  -19.7695  -46.9253 C.3       2 UNK         0.1400 
     63 CB          1.9826  -19.9945  -45.9114 C.3       2 UNK        -0.1800 
     64 N           3.0666  -18.4184  -47.4697 N.am      2 UNK        -0.5000 
     65 C           2.2615  -17.9703  -48.4400 C.2       1 UNK         0.5000 
     66 O           1.3314  -18.6299  -48.9036 O.2       1 UNK        -0.5000 
     67 C          -2.7494  -20.2331  -47.2236 C.2       11 UNK         0.5000 
     68 O          -1.9721  -21.0238  -47.7580 O.2       11 UNK        -0.5000 
     69 N          -4.0023  -20.5516  -46.8749 N.am      12 UNK        -0.5000 
     70 CA         -4.7449  -21.7752  -47.1884 C.3       12 UNK         0.1400 
     71 CB         -6.0963  -21.7203  -46.4615 C.3       12 UNK        -0.1800 
     72 C          -4.0273  -23.1043  -46.8842 C.2       12 UNK         0.5000 
     73 O          -4.2637  -24.0865  -47.5888 O.2       12 UNK        -0.5000 
     74 N          -3.1524  -23.1053  -45.8700 N.am      13 UNK        -0.5000 
     75 CA         -2.3063  -24.2379  -45.4908 C.3       13 UNK         0.1400 
     76 CB         -1.6029  -23.9093  -44.1645 C.3       13 UNK        -0.1800 
     77 C          -1.2691  -24.6207  -46.5667 C.2       13 UNK         0.5000 
     78 O          -0.9430  -25.8013  -46.6947 O.2       13 UNK        -0.5000 
     79 N          -0.7786  -23.6253  -47.3168 N.am      14 UNK        -0.5000 
     80 CA          0.1685  -23.7948  -48.4195 C.3       14 UNK         0.1400 
     81 CB          1.2624  -22.7227  -48.3042 C.3       14 UNK        -0.1800 
     82 C          -0.5366  -23.6916  -49.7821 C.2       14 UNK         0.5000 
     83 O          -0.1602  -24.3961  -50.7183 O.2       14 UNK        -0.5000 
     84 N          -1.5583  -22.8301  -49.8658 N.am      15 UNK        -0.5000 
     85 CA         -2.3233  -22.5133  -51.0719 C.3       15 UNK         0.1400 
     86 CB         -2.8684  -21.0830  -50.9352 C.3       15 UNK        -0.1800 
     87 C          -3.4471  -23.5209  -51.3963 C.2       15 UNK         0.5000 
     88 O          -4.3197  -23.1979  -52.2042 O.2       15 UNK        -0.5000 
     89 N          -3.4204  -24.7066  -50.7696 N.am      16 UNK        -0.5000 
     90 CA         -4.3024  -25.8575  -50.9975 C.3       16 UNK         0.1400 
     91 CB         -4.0439  -26.4566  -52.3964 C.3       16 UNK        -0.1800 
     92 C          -5.7855  -25.5151  -50.7628 C.2       16 UNK         0.5000 
     93 O          -6.5878  -25.5488  -51.6961 O.2       16 UNK        -0.5000 
     94 N          -6.1039  -25.1171  -49.5228 N.am      17 UNK        -0.5000 
     95 CA         -7.4122  -24.6196  -49.0711 C.3       17 UNK         0.1400 
     96 CB         -8.5044  -25.7023  -49.1999 C.3       17 UNK        -0.1800 
     97 C          -7.8022  -23.2841  -49.7436 C.2       17 UNK         0.5000 
     98 O          -8.9870  -22.9777  -49.8790 O.2       17 UNK        -0.5000 
     99 N          -6.7751  -22.5272  -50.1563 N.am      18 UNK        -0.5000 
    100 CA        -6.8123  -21.2639  -50.8957 C.3       18 UNK         0.1400 
    101 CB        -7.5270  -20.1559  -50.0959 C.3       18 UNK        -0.1800 
    102 C         -7.3250  -21.4012  -52.3449 C.2       18 UNK         0.5000 
    103 O         -7.7020  -20.3983  -52.9515 O.2       18 UNK        -0.5000 
    104 N         -7.2912  -22.6204  -52.9025 N.am      19 UNK        -0.5000 
    105 CA        -7.6311  -22.8930  -54.2996 C.3       19 UNK         0.1400 
    106 CB        -7.8937  -24.3956  -54.4761 C.3       19 UNK        -0.1800 
    107 C         -6.5362  -22.4238  -55.2764 C.2       19 UNK         0.5000 
    108 O         -6.8560  -22.0504  -56.4055 O.2       19 UNK        -0.5000 
    109 N         -5.2736  -22.4459  -54.8281 N.am      20 UNK        -0.5000 
    110 CA        -4.0955  -22.0636  -55.6096 C.3       20 UNK         0.1400 
    111 CB        -3.0161  -23.1434  -55.4184 C.3       20 UNK        -0.1800 
    112 C         -3.5541  -20.6728  -55.2224 C.2       20 UNK         0.5000 
    113 O         -2.5005  -20.2833  -55.7290 O.2       20 UNK        -0.5000 
    114 N         -4.2581  -19.9611  -54.3285 N.am      21 UNK        -0.5000 
    115 CA        -3.8940  -18.6651  -53.7475 C.3       21 UNK         0.1400 
    116 CB        -4.9981  -18.2356  -52.7687 C.3       21 UNK        -0.1800 
    117 C         -3.6242  -17.5784  -54.8062 C.2       21 UNK         0.5000 
    118 O         -4.5682  -17.0009  -55.3490 O.2       21 UNK        -0.5000 
    119 N         -2.3352  -17.3547  -55.0914 N.am      22 UNK        -0.5000 
    120 CA        -1.8143  -16.4605  -56.1407 C.3       22 UNK         0.1400 
    121 C         -2.1900  -16.8952  -57.5917 C.2       22 UNK         0.5000 
    122 N         -2.4634  -18.1716  -57.8384 N.am      22 UNK        -0.7600 
    123 O         -2.2062  -16.0818  -58.5120 O.2       22 UNK        -0.5000 
    124 C124       -2.0782  -14.9548  -55.8527 C.3       23 UNK        -0.0398 
    125 S125       -1.3167  -14.4315  -54.2764 S.3       23 UNK        -0.2404 
    126 C126       -2.7619  -13.9174  -53.2911 C.3       23 UNK        -0.0205 
    127 H127        6.7437  -16.1741  -47.4843 H         1 UNK         0.0600 
    128 H128        5.7074  -14.7554  -47.3080 H         1 UNK         0.0600 
    129 H129        6.7310  -14.9269  -48.7368 H         1 UNK         0.0600 
    130 H130        3.5715  -15.2192  -47.7243 H         1 UNK         0.3000 
    131 H131        2.7375  -16.6968  -50.0689 H         1 UNK         0.0600 
    132 H132        1.0074  -15.5035  -47.8517 H         1 UNK         0.0800 
    133 H133        0.4463  -16.0970  -49.3946 H         1 UNK         0.0800 
    134 H134        0.1701  -12.0535  -49.4531 H         1 UNK         0.0800 
    135 H135       -0.0205  -13.1071  -48.0724 H         1 UNK         0.0800 
    136 H136       -0.7194  -12.9037  -51.7627 H         1 UNK         0.1150 
    137 H137       -4.2637  -15.3009  -51.4896 H         1 UNK         0.1150 
    138 H138       -1.8762  -14.6076  -48.0064 H         1 UNK         0.1150 
    139 H139       -4.0453  -15.6923  -47.7887 H         1 UNK         0.0800 
    140 H140       -5.1408  -15.7317  -49.1476 H         1 UNK         0.0800 
    141 H141       -1.7976  -16.9293  -47.8845 H         1 UNK         0.0800 
    142 H142       -1.4598  -18.3101  -48.8677 H         1 UNK         0.0800 
    143 H143       -1.2166  -18.9475  -46.6110 H         1 UNK         0.0600 
    144 H144       -2.1728  -18.0656  -44.9622 H         1 UNK         0.3000 
    145 H145       -5.2425  -16.5858  -44.1038 H         1 UNK         0.0600 
    146 H146       -4.8040  -17.8718  -42.0212 H         1 UNK         0.0600 
    147 H147       -5.4332  -18.9239  -43.2799 H         1 UNK         0.0600 
    148 H148       -3.7172  -18.9536  -42.8904 H         1 UNK         0.0600 
    149 H149       -2.3875  -16.8878  -43.2885 H         1 UNK         0.3000 
    150 H150       -1.6829  -13.4754  -43.9067 H         1 UNK         0.0600 
    151 H151       -2.6947  -13.3303  -41.6251 H         1 UNK         0.0600 
    152 H152       -0.9443  -13.4580  -41.5331 H         1 UNK         0.0600 
    153 H153       -1.9502  -14.8630  -41.1833 H         1 UNK         0.0600 
    154 H154       -0.1468  -15.5714  -42.7215 H         1 UNK         0.3000 
    155 H155        0.7715  -17.3032  -45.6239 H         1 UNK         0.0600 
    156 H156        2.5351  -15.2856  -44.1440 H         1 UNK         0.0600 
    157 H157        2.2810  -15.3199  -45.8769 H         1 UNK         0.0600 
    158 H158        3.1105  -16.6565  -45.0926 H         1 UNK         0.0600 
    159 H159        1.9431  -17.5258  -43.1189 H         1 UNK         0.3000 
    160 H160       -0.5365  -19.4510  -41.4186 H         1 UNK         0.0600 
    161 H161        1.3271  -21.0704  -41.3787 H         1 UNK         0.0600 
    162 H162        2.1479  -20.2229  -42.6850 H         1 UNK         0.0600 
    163 H163        0.6118  -21.0252  -42.9823 H         1 UNK         0.0600 
    164 H164        2.1860  -18.5096  -40.9266 H         1 UNK         0.3000 
    165 H165        1.2099  -15.6922  -39.0009 H         1 UNK         0.0600 
    166 H166        2.5685  -16.8170  -37.2546 H         1 UNK         0.0600 
    167 H167        0.9883  -17.5743  -37.3725 H         1 UNK         0.0600 
    168 H168        2.3923  -18.3682  -38.0758 H         1 UNK         0.0600 
    169 H169        3.7379  -16.9336  -39.5732 H         1 UNK         0.3000 
    170 H170        4.3710  -15.3021  -42.6545 H         1 UNK         0.0600 
    171 H171        4.8873  -13.5296  -40.9705 H         1 UNK         0.0600 
    172 H172        5.5620  -14.7414  -39.8877 H         1 UNK         0.0600 
    173 H173        6.3315  -14.4108  -41.4403 H         1 UNK         0.0600 
    174 H174        6.0688  -16.8866  -41.0648 H         1 UNK         0.3000 
    175 H175        6.6900  -18.9076  -41.9739 H         1 UNK         0.0600 
    176 H176        4.2409  -20.3347  -40.7637 H         1 UNK         0.0600 
    177 H177        5.9086  -20.8888  -40.6346 H         1 UNK         0.0600 
    178 H178        5.4206  -19.3902  -39.8597 H         1 UNK         0.0600 
    179 H179        4.5216  -20.0053  -43.6089 H         1 UNK         0.3000 
    180 H180        6.7695  -21.4345  -45.8067 H         1 UNK         0.0600 
    181 H181        5.0850  -23.3004  -44.0515 H         1 UNK         0.0600 
    182 H182        6.8128  -23.4590  -44.3420 H         1 UNK         0.0600 
    183 H183        5.6848  -23.6622  -45.6712 H         1 UNK         0.0600 
    184 H184        3.9672  -21.8339  -45.6785 H         1 UNK         0.3000 
    185 H185        3.0223  -20.4782  -47.7494 H         1 UNK         0.0600 
    186 H186        1.9189  -21.0388  -45.6062 H         1 UNK         0.0600 
    187 H187        2.1480  -19.4041  -45.0134 H         1 UNK         0.0600 
    188 H188        1.0120  -19.7257  -46.3254 H         1 UNK         0.0600 
    189 H189        3.8521  -17.8443  -47.1881 H         1 UNK         0.3000 
    190 H190       -4.5551  -19.7870  -46.4960 H         1 UNK         0.3000 
    191 H191       -4.9333  -21.7566  -48.2613 H         1 UNK         0.0600 
    192 H192       -6.6977  -22.6048  -46.6681 H         1 UNK         0.0600 
    193 H193       -6.6782  -20.8534  -46.7750 H         1 UNK         0.0600 
    194 H194       -5.9653  -21.6598  -45.3804 H         1 UNK         0.0600 
    195 H195       -3.0246  -22.2485  -45.3524 H         1 UNK         0.3000 
    196 H196       -2.9536  -25.1031  -45.3326 H         1 UNK         0.0600 
    197 H197       -0.9792  -24.7418  -43.8362 H         1 UNK         0.0600 
    198 H198       -2.3255  -23.7143  -43.3719 H         1 UNK         0.0600 
    199 H199       -0.9593  -23.0332  -44.2560 H         1 UNK         0.0600 
    200 H200       -1.1430  -22.6879  -47.1801 H         1 UNK         0.3000 
    201 H201        0.6486  -24.7741  -48.3655 H         1 UNK         0.0600 
    202 H202        1.8155  -22.8298  -47.3715 H         1 UNK         0.0600 
    203 H203        0.8446  -21.7150  -48.3355 H         1 UNK         0.0600 
    204 H204        1.9816  -22.8064  -49.1199 H         1 UNK         0.0600 
    205 H205       -1.7686  -22.2585  -49.0511 H         1 UNK         0.3000 
    206 H206       -1.6436  -22.5261  -51.9262 H         1 UNK         0.0600 
    207 H207       -2.0621  -20.3649  -50.7838 H         1 UNK         0.0600 
    208 H208       -3.4033  -20.7809  -51.8327 H         1 UNK         0.0600 
    209 H209       -3.5560  -20.9909  -50.0957 H         1 UNK         0.0600 
    210 H210       -2.6827  -24.8495  -50.0951 H         1 UNK         0.3000 
    211 H211       -4.0332  -26.6134  -50.2582 H         1 UNK         0.0600 
    212 H212       -2.9970  -26.7344  -52.5178 H         1 UNK         0.0600 
    213 H213       -4.2981  -25.7571  -53.1939 H         1 UNK         0.0600 
    214 H214       -4.6395  -27.3570  -52.5506 H         1 UNK         0.0600 
    215 H215       -5.3573  -25.0422  -48.8349 H         1 UNK         0.3000 
    216 H216       -7.2988  -24.4042  -48.0089 H         1 UNK         0.0600 
    217 H217       -9.4235  -25.3885  -48.7039 H         1 UNK         0.0600 
    218 H218       -8.1900  -26.6371  -48.7362 H         1 UNK         0.0600 
    219 H219       -8.7537  -25.9100  -50.2408 H         1 UNK         0.0600 
    220 H220       -5.8558  -22.9284  -50.0438 H         1 UNK         0.3000 
    221 H221       -5.7715  -20.9608  -50.9927 H         1 UNK         0.0600 
    222 H222       -8.5955  -20.3479  -49.9987 H         1 UNK         0.0600 
    223 H223       -7.1076  -20.0600  -49.0947 H         1 UNK         0.0600 
    224 H224       -7.4138  -19.1867  -50.5831 H         1 UNK         0.0600 
    225 H225       -6.9443  -23.4029  -52.3604 H         1 UNK         0.3000 
    226 H226       -8.5513  -22.3576  -54.5429 H         1 UNK         0.0600 
    227 H227       -8.2327  -24.6156  -55.4891 H         1 UNK         0.0600 
    228 H228       -6.9929  -24.9842  -54.2977 H         1 UNK         0.0600 
    229 H229       -8.6649  -24.7464  -53.7900 H         1 UNK         0.0600 
    230 H230       -5.0911  -22.7637  -53.8781 H         1 UNK         0.3000 
    231 H231       -4.3430  -22.0239  -56.6721 H         1 UNK         0.0600 
    232 H232       -3.3967  -24.1318  -55.6764 H         1 UNK         0.0600 
    233 H233       -2.6597  -23.1807  -54.3891 H         1 UNK         0.0600 
    234 H234       -2.1524  -22.9532  -56.0567 H         1 UNK         0.0600 
    235 H235       -5.1367  -20.3517  -54.0226 H         1 UNK         0.3000 
    236 H236       -2.9789  -18.8063  -53.1690 H         1 UNK         0.0600 
    237 H237       -5.0723  -18.9217  -51.9270 H         1 UNK         0.0600 
    238 H238       -4.7908  -17.2508  -52.3558 H         1 UNK         0.0600 
    239 H239       -5.9737  -18.1876  -53.2539 H         1 UNK         0.0600 
    240 H240       -1.6382  -17.9159  -54.6238 H         1 UNK         0.3000 
    241 H241       -0.7325  -16.5941  -56.1105 H         1 UNK         0.0600 
    242 H242       -2.4317  -18.8599  -57.0922 H         1 UNK         0.3800 
    243 H243       -2.6944  -18.4582  -58.7763 H         1 UNK         0.3800 
    244 H244       -1.6422  -14.3340  -56.6368 H         1 UNK         0.0800 
    245 H245       -3.1470  -14.7386  -55.8588 H         1 UNK         0.0800 
    246 H246       -3.6316  -14.5025  -53.5940 H         1 UNK         0.0800 
    247 H247       -2.9953  -12.8744  -53.5081 H         1 UNK         0.0800 
@<TRIPOS>BOND
     1    1    2 1    
     2    1  127 1    
     3    1  128 1    
     4    1  129 1    
     5    2    3 2    
     6    2    4 am   BACKBONE|DICT|INTERRES
     7    4    5 1    
     8    4  130 1    
     9    5    6 1    
    10    5   65 1    
    11    5  131 1    
    12    6    7 1    
    13    6  132 1    
    14    6  133 1    
    15    7    8 1    
    16    8    9 1    
    17    8  134 1    
    18    8  135 1    
    19    9   10 ar   
    20    9   14 ar   
    21   10   11 ar   
    22   10  136 1    
    23   11   12 ar   
    24   11  126 1    
    25   12   13 ar   
    26   12  137 1    
    27   13   14 ar   
    28   13   15 1    
    29   14  138 1    
    30   15   16 1    
    31   15  139 1    
    32   15  140 1    
    33   16   17 1    
    34   17   18 1    
    35   17  141 1    
    36   17  142 1    
    37   18   19 1    
    38   18   67 1    
    39   18  143 1    
    40   19   20 am   BACKBONE|DICT|INTERRES
    41   19  144 1    
    42   20   21 2    
    43   20   22 1    
    44   22   23 1    
    45   22   24 1    
    46   22  145 1    
    47   23  146 1    
    48   23  147 1    
    49   23  148 1    
    50   24   25 am   BACKBONE|DICT|INTERRES
    51   24  149 1    
    52   25   26 2    
    53   25   27 1    
    54   27   28 1    
    55   27   29 1    
    56   27  150 1    
    57   28  151 1    
    58   28  152 1    
    59   28  153 1    
    60   29   30 am   BACKBONE|DICT|INTERRES
    61   29  154 1    
    62   30   31 2    
    63   30   32 1    
    64   32   33 1    
    65   32   34 1    
    66   32  155 1    
    67   33  156 1    
    68   33  157 1    
    69   33  158 1    
    70   34   35 am   BACKBONE|DICT|INTERRES
    71   34  159 1    
    72   35   36 2    
    73   35   37 1    
    74   37   38 1    
    75   37   39 1    
    76   37  160 1    
    77   38  161 1    
    78   38  162 1    
    79   38  163 1    
    80   39   40 am   BACKBONE|DICT|INTERRES
    81   39  164 1    
    82   40   41 2    
    83   40   42 1    
    84   42   43 1    
    85   42   44 1    
    86   42  165 1    
    87   43  166 1    
    88   43  167 1    
    89   43  168 1    
    90   44   45 am   BACKBONE|DICT|INTERRES
    91   44  169 1    
    92   45   46 2    
    93   45   47 1    
    94   47   48 1    
    95   47   49 1    
    96   47  170 1    
    97   48  171 1    
    98   48  172 1    
    99   48  173 1    
   100   49   50 am   BACKBONE|DICT|INTERRES
   101   49  174 1    
   102   50   51 2    
   103   50   52 1    
   104   52   53 1    
   105   52   54 1    
   106   52  175 1    
   107   53  176 1    
   108   53  177 1    
   109   53  178 1    
   110   54   55 am   BACKBONE|DICT|INTERRES
   111   54  179 1    
   112   55   56 2    
   113   55   57 1    
   114   57   58 1    
   115   57   59 1    
   116   57  180 1    
   117   58  181 1    
   118   58  182 1    
   119   58  183 1    
   120   59   60 am   BACKBONE|DICT|INTERRES
   121   59  184 1    
   122   60   61 2    
   123   60   62 1    
   124   62   63 1    
   125   62   64 1    
   126   62  185 1    
   127   63  186 1    
   128   63  187 1    
   129   63  188 1    
   130   64   65 am   BACKBONE|DICT|INTERRES
   131   64  189 1    
   132   65   66 2    
   133   67   68 2    
   134   67   69 am   BACKBONE|DICT|INTERRES
   135   69   70 1    
   136   69  190 1    
   137   70   71 1    
   138   70   72 1    
   139   70  191 1    
   140   71  192 1    
   141   71  193 1    
   142   71  194 1    
   143   72   73 2    
   144   72   74 am   BACKBONE|DICT|INTERRES
   145   74   75 1    
   146   74  195 1    
   147   75   76 1    
   148   75   77 1    
   149   75  196 1    
   150   76  197 1    
   151   76  198 1    
   152   76  199 1    
   153   77   78 2    
   154   77   79 am   BACKBONE|DICT|INTERRES
   155   79   80 1    
   156   79  200 1    
   157   80   81 1    
   158   80   82 1    
   159   80  201 1    
   160   81  202 1    
   161   81  203 1    
   162   81  204 1    
   163   82   83 2    
   164   82   84 am   BACKBONE|DICT|INTERRES
   165   84   85 1    
   166   84  205 1    
   167   85   86 1    
   168   85   87 1    
   169   85  206 1    
   170   86  207 1    
   171   86  208 1    
   172   86  209 1    
   173   87   88 2    
   174   87   89 am   BACKBONE|DICT|INTERRES
   175   89   90 1    
   176   89  210 1    
   177   90   91 1    
   178   90   92 1    
   179   90  211 1    
   180   91  212 1    
   181   91  213 1    
   182   91  214 1    
   183   92   93 2    
   184   92   94 am   BACKBONE|DICT|INTERRES
   185   94   95 1    
   186   94  215 1    
   187   95   96 1    
   188   95   97 1    
   189   95  216 1    
   190   96  217 1    
   191   96  218 1    
   192   96  219 1    
   193   97   98 2    
   194   97   99 am   BACKBONE|DICT|INTERRES
   195   99  100 1    
   196   99  220 1    
   197  100  101 1    
   198  100  102 1    
   199  100  221 1    
   200  101  222 1    
   201  101  223 1    
   202  101  224 1    
   203  102  103 2    
   204  102  104 am   BACKBONE|DICT|INTERRES
   205  104  105 1    
   206  104  225 1    
   207  105  106 1    
   208  105  107 1    
   209  105  226 1    
   210  106  227 1    
   211  106  228 1    
   212  106  229 1    
   213  107  108 2    
   214  107  109 am   BACKBONE|DICT|INTERRES
   215  109  110 1    
   216  109  230 1    
   217  110  111 1    
   218  110  112 1    
   219  110  231 1    
   220  111  232 1    
   221  111  233 1    
   222  111  234 1    
   223  112  113 2    
   224  112  114 am   BACKBONE|DICT|INTERRES
   225  114  115 1    
   226  114  235 1    
   227  115  116 1    
   228  115  117 1    
   229  115  236 1    
   230  116  237 1    
   231  116  238 1    
   232  116  239 1    
   233  117  118 2    
   234  117  119 am   BACKBONE|DICT|INTERRES
   235  119  120 1    
   236  119  240 1    
   237  120  121 1    
   238  120  124 1    
   239  120  241 1    
   240  121  122 am   BACKBONE|DICT|INTERRES
   241  121  123 2    
   242  122  242 1    
   243  122  243 1    
   244  124  125 1    
   245  124  244 1    
   246  124  245 1    
   247  125  126 1    
   248  126  246 1    
   249  126  247 1    
@<TRIPOS>SUBSTRUCTURE
     1 UNK         1 GROUP             0       ****    0 ROOT    
