@<TRIPOS>MOLECULE
3R540
247   249    1
SMALL
USER_CHARGES


@<TRIPOS>ATOM
      1 CA          0.6802   -9.0051  -51.7284 C.3       0 UNK        -0.1800 
      2 C          -0.0657   -8.8022  -50.4111 C.2       0 UNK         0.5000 
      3 O           0.0991   -7.7617  -49.7778 O.2       0 UNK        -0.5000 
      4 N          -0.8930   -9.7538  -49.9559 N.am      1 UNK        -0.5000 
      5 CA         -1.1681  -11.0616  -50.5678 C.3       1 UNK         0.1400 
      6 C6         -2.5182  -11.6491  -50.0832 C.3       23 UNK        -0.0398 
      7 S7         -2.6639  -11.8111  -48.2658 S.3       23 UNK        -0.2404 
      8 C8         -4.4362  -12.1936  -48.0770 C.3       23 UNK        -0.0205 
      9 C9         -4.7224  -13.6687  -48.3156 C.ar      23 UNK        -0.0193 
     10 C10        -4.8918  -14.1521  -49.6163 C.ar      23 UNK        -0.1150 
     11 C11        -5.0902  -15.5157  -49.8460 C.ar      23 UNK        -0.0193 
     12 C12        -5.1785  -16.3899  -48.7610 C.ar      23 UNK        -0.1150 
     13 C13        -5.0229  -15.9194  -47.4555 C.ar      23 UNK        -0.0193 
     14 C14        -4.7947  -14.5574  -47.2374 C.ar      23 UNK        -0.1150 
     15 C15        -5.0572  -16.8949  -46.2915 C.3       23 UNK        -0.0205 
     16 S16        -3.3761  -17.4516  -45.8871 S.3       23 UNK        -0.2404 
     17 C17        -3.6948  -18.8515  -44.7691 C.3       23 UNK        -0.0398 
     18 CA         -3.3129  -20.2095  -45.4080 C.3       11 UNK         0.1400 
     19 N          -1.8929  -20.2522  -45.7942 N.am      11 UNK        -0.5000 
     20 C          -1.2427  -21.2787  -46.3606 C.2       10 UNK         0.5000 
     21 O          -1.7469  -22.3846  -46.5468 O.2       10 UNK        -0.5000 
     22 CA          0.2054  -21.0339  -46.8082 C.3       10 UNK         0.1400 
     23 CB          0.4829  -19.5821  -47.2376 C.3       10 UNK        -0.1800 
     24 N           1.1381  -21.4140  -45.7500 N.am      10 UNK        -0.5000 
     25 C           2.3116  -22.0260  -45.9669 C.2       9 UNK         0.5000 
     26 O           2.6843  -22.3913  -47.0827 O.2       9 UNK        -0.5000 
     27 CA          3.2557  -22.2570  -44.7677 C.3       9 UNK         0.1400 
     28 CB          4.6229  -21.5951  -45.0116 C.3       9 UNK        -0.1800 
     29 N           2.7239  -21.7485  -43.5052 N.am      9 UNK        -0.5000 
     30 C           2.0189  -22.4658  -42.6216 C.2       8 UNK         0.5000 
     31 O           1.7453  -23.6572  -42.7665 O.2       8 UNK        -0.5000 
     32 CA          1.5186  -21.7174  -41.3688 C.3       8 UNK         0.1400 
     33 CB          2.5347  -21.8566  -40.2254 C.3       8 UNK        -0.1800 
     34 N           1.2534  -20.2949  -41.5942 N.am      8 UNK        -0.5000 
     35 C           0.4252  -19.7777  -42.5124 C.2       7 UNK         0.5000 
     36 O          -0.2734  -20.4592  -43.2638 O.2       7 UNK        -0.5000 
     37 CA          0.4068  -18.2429  -42.6428 C.3       7 UNK         0.1400 
     38 CB          0.6614  -17.5224  -41.3025 C.3       7 UNK        -0.1800 
     39 N           1.3285  -17.7296  -43.6618 N.am      7 UNK        -0.5000 
     40 C           2.6401  -17.9776  -43.8115 C.2       6 UNK         0.5000 
     41 O           3.2623  -18.8398  -43.1903 O.2       6 UNK        -0.5000 
     42 CA          3.4059  -17.0670  -44.7915 C.3       6 UNK         0.1400 
     43 CB          3.3061  -17.5794  -46.2347 C.3       6 UNK        -0.1800 
     44 N           2.9586  -15.6739  -44.7396 N.am      6 UNK        -0.5000 
     45 C           3.1058  -14.8578  -43.6852 C.2       5 UNK         0.5000 
     46 O           3.7056  -15.1679  -42.6553 O.2       5 UNK        -0.5000 
     47 CA          2.4579  -13.4663  -43.7918 C.3       5 UNK         0.1400 
     48 CB          3.3833  -12.4808  -44.5229 C.3       5 UNK        -0.1800 
     49 N           1.1666  -13.5313  -44.4765 N.am      5 UNK        -0.5000 
     50 C           0.0131  -13.8601  -43.8769 C.2       4 UNK         0.5000 
     51 O          -0.0941  -14.0567  -42.6664 O.2       4 UNK        -0.5000 
     52 CA         -1.2352  -13.9961  -44.7721 C.3       4 UNK         0.1400 
     53 CB         -2.0344  -12.6848  -44.7715 C.3       4 UNK        -0.1800 
     54 N          -0.9322  -14.3755  -46.1535 N.am      4 UNK        -0.5000 
     55 C          -0.4117  -15.5565  -46.5164 C.2       3 UNK         0.5000 
     56 O          -0.1222  -16.4477  -45.7194 O.2       3 UNK        -0.5000 
     57 CA         -0.0939  -15.7436  -48.0108 C.3       3 UNK         0.1400 
     58 CB         -1.3573  -16.1264  -48.7918 C.3       3 UNK        -0.1800 
     59 N           0.5012  -14.5558  -48.6228 N.am      3 UNK        -0.5000 
     60 C           1.6102  -13.9265  -48.2153 C.2       2 UNK         0.5000 
     61 O           2.2828  -14.3006  -47.2547 O.2       2 UNK        -0.5000 
     62 CA          2.0122  -12.6341  -48.9549 C.3       2 UNK         0.1400 
     63 CB          2.9990  -12.9317  -50.0992 C.3       2 UNK        -0.1800 
     64 N           0.8772  -11.8159  -49.4116 N.am      2 UNK        -0.5000 
     65 C          -0.0273  -12.0827  -50.3670 C.2       1 UNK         0.5000 
     66 O          -0.0133  -13.1031  -51.0541 O.2       1 UNK        -0.5000 
     67 C          -3.7666  -21.3555  -44.4784 C.2       11 UNK         0.5000 
     68 O          -4.9364  -21.7373  -44.5258 O.2       11 UNK        -0.5000 
     69 N          -2.8522  -21.8767  -43.6504 N.am      12 UNK        -0.5000 
     70 CA         -3.1096  -22.9885  -42.7351 C.3       12 UNK         0.1400 
     71 CB         -1.9853  -23.0370  -41.6941 C.3       12 UNK        -0.1800 
     72 C          -3.2410  -24.3601  -43.4290 C.2       12 UNK         0.5000 
     73 O          -3.7655  -25.2881  -42.8106 O.2       12 UNK        -0.5000 
     74 N          -2.7474  -24.4899  -44.6691 N.am      13 UNK        -0.5000 
     75 CA         -2.7929  -25.7313  -45.4402 C.3       13 UNK         0.1400 
     76 CB         -1.8189  -25.6300  -46.6241 C.3       13 UNK        -0.1800 
     77 C          -4.2106  -26.0422  -45.9509 C.2       13 UNK         0.5000 
     78 O          -4.9800  -25.1258  -46.2488 O.2       13 UNK        -0.5000 
     79 N          -4.5078  -27.3400  -46.0921 N.am      14 UNK        -0.5000 
     80 CA         -5.7408  -27.8398  -46.7068 C.3       14 UNK         0.1400 
     81 CB         -5.9608  -29.2963  -46.2691 C.3       14 UNK        -0.1800 
     82 C          -5.7203  -27.7356  -48.2458 C.2       14 UNK         0.5000 
     83 O          -6.7835  -27.7390  -48.8678 O.2       14 UNK        -0.5000 
     84 N          -4.5161  -27.6579  -48.8299 N.am      15 UNK        -0.5000 
     85 CA         -4.2782  -27.4791  -50.2595 C.3       15 UNK         0.1400 
     86 CB         -2.7904  -27.7252  -50.5519 C.3       15 UNK        -0.1800 
     87 C          -4.7280  -26.0877  -50.7455 C.2       15 UNK         0.5000 
     88 O          -4.4451  -25.0817  -50.0871 O.2       15 UNK        -0.5000 
     89 N          -5.4233  -26.0750  -51.8895 N.am      16 UNK        -0.5000 
     90 CA         -6.0391  -24.9031  -52.5127 C.3       16 UNK         0.1400 
     91 CB         -6.8239  -25.3650  -53.7514 C.3       16 UNK        -0.1800 
     92 C          -5.0379  -23.7971  -52.8955 C.2       16 UNK         0.5000 
     93 O          -3.8578  -24.0762  -53.1174 O.2       16 UNK        -0.5000 
     94 N          -5.5563  -22.5631  -52.9830 N.am      17 UNK        -0.5000 
     95 CA         -4.8370  -21.3227  -53.2991 C.3       17 UNK         0.1400 
     96 CB         -4.2846  -21.3561  -54.7393 C.3       17 UNK        -0.1800 
     97 C          -3.7620  -20.9709  -52.2499 C.2       17 UNK         0.5000 
     98 O          -2.7088  -20.4404  -52.6063 O.2       17 UNK        -0.5000 
     99 N          -4.0602  -21.2774  -50.9755 N.am      18 UNK        -0.5000 
    100 CA        -3.1963  -21.1122  -49.8015 C.3       18 UNK         0.1400 
    101 CB        -3.0056  -19.6164  -49.4839 C.3       18 UNK        -0.1800 
    102 C         -1.8697  -21.8698  -49.9886 C.2       18 UNK         0.5000 
    103 O         -0.8019  -21.2559  -50.0590 O.2       18 UNK        -0.5000 
    104 N         -1.9870  -23.1921  -50.1748 N.am      19 UNK        -0.5000 
    105 CA        -0.9480  -24.1594  -50.5483 C.3       19 UNK         0.1400 
    106 CB         0.2156  -24.1749  -49.5368 C.3       19 UNK        -0.1800 
    107 C         -0.4295  -23.9900  -51.9900 C.2       19 UNK         0.5000 
    108 O         -0.3147  -24.9818  -52.7106 O.2       19 UNK        -0.5000 
    109 N         -0.1374  -22.7434  -52.3707 N.am      20 UNK        -0.5000 
    110 CA         0.3407  -22.2844  -53.6733 C.3       20 UNK         0.1400 
    111 CB         1.6887  -22.9447  -54.0352 C.3       20 UNK        -0.1800 
    112 C          0.4974  -20.7519  -53.7157 C.2       20 UNK         0.5000 
    113 O          0.6191  -20.2047  -54.8131 O.2       20 UNK        -0.5000 
    114 N          0.5206  -20.0800  -52.5507 N.am      21 UNK        -0.5000 
    115 CA         0.8428  -18.6579  -52.3936 C.3       21 UNK         0.1400 
    116 CB         0.8361  -18.3073  -50.8970 C.3       21 UNK        -0.1800 
    117 C         -0.0551  -17.6850  -53.1833 C.2       21 UNK         0.5000 
    118 O          0.4290  -16.6298  -53.5957 O.2       21 UNK        -0.5000 
    119 N         -1.3201  -18.0605  -53.3999 N.am      22 UNK        -0.5000 
    120 CA        -2.3037  -17.3001  -54.1889 C.3       22 UNK         0.1400 
    121 C         -2.4920  -17.8579  -55.6299 C.2       22 UNK         0.5000 
    122 N         -1.6881  -18.8088  -56.0934 N.am      22 UNK        -0.7600 
    123 O         -3.3749  -17.4084  -56.3555 O.2       22 UNK        -0.5000 
    124 C124       -3.6524  -17.1514  -53.4351 C.3       23 UNK        -0.0398 
    125 S125       -3.4172  -16.3301  -51.8267 S.3       23 UNK        -0.2404 
    126 C126       -5.1217  -16.0567  -51.2648 C.3       23 UNK        -0.0205 
    127 H127       -0.0163   -9.1664  -52.5508 H         1 UNK         0.0600 
    128 H128        1.3602   -9.8544  -51.6679 H         1 UNK         0.0600 
    129 H129        1.2746   -8.1233  -51.9688 H         1 UNK         0.0600 
    130 H130       -1.3824   -9.5897  -49.0869 H         1 UNK         0.3000 
    131 H131       -1.2615  -10.9185  -51.6456 H         1 UNK         0.0600 
    132 H132       -2.6885  -12.6249  -50.5406 H         1 UNK         0.0800 
    133 H133       -3.3297  -11.0111  -50.4355 H         1 UNK         0.0800 
    134 H134       -4.7466  -11.9151  -47.0689 H         1 UNK         0.0800 
    135 H135       -5.0290  -11.5780  -48.7551 H         1 UNK         0.0800 
    136 H136       -4.8259  -13.4758  -50.4562 H         1 UNK         0.1150 
    137 H137       -5.3341  -17.4436  -48.9342 H         1 UNK         0.1150 
    138 H138       -4.6548  -14.1961  -46.2289 H         1 UNK         0.1150 
    139 H139       -5.5084  -16.4252  -45.4162 H         1 UNK         0.0800 
    140 H140       -5.6793  -17.7554  -46.5430 H         1 UNK         0.0800 
    141 H141       -3.1240  -18.6885  -43.8530 H         1 UNK         0.0800 
    142 H142       -4.7468  -18.8389  -44.4773 H         1 UNK         0.0800 
    143 H143       -3.8848  -20.3196  -46.3317 H         1 UNK         0.0600 
    144 H144       -1.3904  -19.3858  -45.6644 H         1 UNK         0.3000 
    145 H145        0.3553  -21.6721  -47.6806 H         1 UNK         0.0600 
    146 H146        1.4653  -19.4996  -47.7017 H         1 UNK         0.0600 
    147 H147        0.4556  -18.9018  -46.3878 H         1 UNK         0.0600 
    148 H148       -0.2433  -19.2354  -47.9719 H         1 UNK         0.0600 
    149 H149        0.8555  -21.1869  -44.8024 H         1 UNK         0.3000 
    150 H150        3.4162  -23.3344  -44.6912 H         1 UNK         0.0600 
    151 H151        4.5345  -20.5133  -45.1118 H         1 UNK         0.0600 
    152 H152        5.3098  -21.7984  -44.1900 H         1 UNK         0.0600 
    153 H153        5.0893  -21.9730  -45.9222 H         1 UNK         0.0600 
    154 H154        2.8967  -20.7665  -43.3056 H         1 UNK         0.3000 
    155 H155        0.5887  -22.1811  -41.0445 H         1 UNK         0.0600 
    156 H156        2.7400  -22.9062  -40.0103 H         1 UNK         0.0600 
    157 H157        2.1598  -21.4056  -39.3064 H         1 UNK         0.0600 
    158 H158        3.4843  -21.3796  -40.4717 H         1 UNK         0.0600 
    159 H159        1.8230  -19.6498  -41.0662 H         1 UNK         0.3000 
    160 H160       -0.5974  -17.9755  -42.9755 H         1 UNK         0.0600 
    161 H161        1.6897  -17.6386  -40.9585 H         1 UNK         0.0600 
    162 H162        0.0013  -17.8983  -40.5197 H         1 UNK         0.0600 
    163 H163        0.4708  -16.4535  -41.3971 H         1 UNK         0.0600 
    164 H164        0.9060  -17.0753  -44.3176 H         1 UNK         0.3000 
    165 H165        4.4578  -17.0922  -44.4997 H         1 UNK         0.0600 
    166 H166        4.0027  -17.0507  -46.8855 H         1 UNK         0.0600 
    167 H167        3.5409  -18.6422  -46.2990 H         1 UNK         0.0600 
    168 H168        2.3067  -17.4344  -46.6396 H         1 UNK         0.0600 
    169 H169        2.5061  -15.3102  -45.5720 H         1 UNK         0.3000 
    170 H170        2.3065  -13.0885  -42.7782 H         1 UNK         0.0600 
    171 H171        4.3324  -12.3776  -43.9956 H         1 UNK         0.0600 
    172 H172        3.6094  -12.8071  -45.5379 H         1 UNK         0.0600 
    173 H173        2.9350  -11.4889  -44.5814 H         1 UNK         0.0600 
    174 H174        1.1829  -13.4386  -45.4825 H         1 UNK         0.3000 
    175 H175       -1.8633  -14.7794  -44.3419 H         1 UNK         0.0600 
    176 H176       -1.4724  -11.8709  -45.2312 H         1 UNK         0.0600 
    177 H177       -2.9723  -12.7935  -45.3140 H         1 UNK         0.0600 
    178 H178       -2.2844  -12.3787  -43.7549 H         1 UNK         0.0600 
    179 H179       -1.1450  -13.6980  -46.8716 H         1 UNK         0.3000 
    180 H180        0.6261  -16.5580  -48.1039 H         1 UNK         0.0600 
    181 H181       -1.7907  -17.0503  -48.4096 H         1 UNK         0.0600 
    182 H182       -1.1367  -16.2847  -49.8468 H         1 UNK         0.0600 
    183 H183       -2.1232  -15.3528  -48.7265 H         1 UNK         0.0600 
    184 H184        0.0485  -14.1942  -49.4561 H         1 UNK         0.3000 
    185 H185        2.5398  -12.0173  -48.2256 H         1 UNK         0.0600 
    186 H186        3.3155  -12.0145  -50.5957 H         1 UNK         0.0600 
    187 H187        3.8959  -13.4215  -49.7178 H         1 UNK         0.0600 
    188 H188        2.5676  -13.5910  -50.8528 H         1 UNK         0.0600 
    189 H189        0.7373  -10.9606  -48.8914 H         1 UNK         0.3000 
    190 H190       -1.9152  -21.4835  -43.6480 H         1 UNK         0.3000 
    191 H191       -4.0481  -22.7917  -42.2126 H         1 UNK         0.0600 
    192 H192       -2.1914  -23.7851  -40.9276 H         1 UNK         0.0600 
    193 H193       -1.8669  -22.0771  -41.1908 H         1 UNK         0.0600 
    194 H194       -1.0371  -23.3004  -42.1625 H         1 UNK         0.0600 
    195 H195       -2.3878  -23.6724  -45.1520 H         1 UNK         0.3000 
    196 H196       -2.4617  -26.5456  -44.7920 H         1 UNK         0.0600 
    197 H197       -2.1603  -24.8996  -47.3592 H         1 UNK         0.0600 
    198 H198       -0.8219  -25.3363  -46.2949 H         1 UNK         0.0600 
    199 H199       -1.7233  -26.5871  -47.1377 H         1 UNK         0.0600 
    200 H200       -3.8313  -28.0357  -45.8113 H         1 UNK         0.3000 
    201 H201       -6.5823  -27.2447  -46.3456 H         1 UNK         0.0600 
    202 H202       -6.8874  -29.6935  -46.6860 H         1 UNK         0.0600 
    203 H203       -6.0345  -29.3755  -45.1843 H         1 UNK         0.0600 
    204 H204       -5.1481  -29.9443  -46.5998 H         1 UNK         0.0600 
    205 H205       -3.7036  -27.6378  -48.2342 H         1 UNK         0.3000 
    206 H206       -4.8565  -28.2366  -50.7931 H         1 UNK         0.0600 
    207 H207       -2.5391  -28.7786  -50.4274 H         1 UNK         0.0600 
    208 H208       -2.5343  -27.4491  -51.5759 H         1 UNK         0.0600 
    209 H209       -2.1489  -27.1548  -49.8812 H         1 UNK         0.0600 
    210 H210       -5.5706  -26.9504  -52.3697 H         1 UNK         0.3000 
    211 H211       -6.7438  -24.4871  -51.7897 H         1 UNK         0.0600 
    212 H212       -6.1672  -25.8167  -54.4961 H         1 UNK         0.0600 
    213 H213       -7.3345  -24.5285  -54.2305 H         1 UNK         0.0600 
    214 H214       -7.5865  -26.0977  -53.4866 H         1 UNK         0.0600 
    215 H215       -6.5434  -22.4492  -52.7971 H         1 UNK         0.3000 
    216 H216       -5.5753  -20.5211  -53.2522 H         1 UNK         0.0600 
    217 H217       -5.0578  -21.6367  -55.4542 H         1 UNK         0.0600 
    218 H218       -3.4581  -22.0599  -54.8426 H         1 UNK         0.0600 
    219 H219       -3.9137  -20.3754  -55.0346 H         1 UNK         0.0600 
    220 H220       -4.9458  -21.7306  -50.8031 H         1 UNK         0.3000 
    221 H221       -3.7088  -21.5711  -48.9544 H         1 UNK         0.0600 
    222 H222       -2.4598  -19.4796  -48.5524 H         1 UNK         0.0600 
    223 H223       -2.4599  -19.0931  -50.2693 H         1 UNK         0.0600 
    224 H224       -3.9674  -19.1234  -49.3662 H         1 UNK         0.0600 
    225 H225       -2.9209  -23.5888  -50.1502 H         1 UNK         0.3000 
    226 H226       -1.4365  -25.1304  -50.5041 H         1 UNK         0.0600 
    227 H227       -0.1449  -24.2473  -48.5120 H         1 UNK         0.0600 
    228 H228        0.8698  -25.0288  -49.7148 H         1 UNK         0.0600 
    229 H229        0.8320  -23.2781  -49.6059 H         1 UNK         0.0600 
    230 H230       -0.3439  -22.0214  -51.6882 H         1 UNK         0.3000 
    231 H231       -0.4065  -22.5563  -54.4211 H         1 UNK         0.0600 
    232 H232        2.0920  -22.5353  -54.9625 H         1 UNK         0.0600 
    233 H233        1.5888  -24.0186  -54.1875 H         1 UNK         0.0600 
    234 H234        2.4334  -22.7835  -53.2550 H         1 UNK         0.0600 
    235 H235        0.3614  -20.5727  -51.6824 H         1 UNK         0.3000 
    236 H236        1.8604  -18.5212  -52.7645 H         1 UNK         0.0600 
    237 H237        1.5594  -18.9081  -50.3456 H         1 UNK         0.0600 
    238 H238        1.0940  -17.2595  -50.7368 H         1 UNK         0.0600 
    239 H239       -0.1448  -18.4773  -50.4532 H         1 UNK         0.0600 
    240 H240       -1.6435  -18.9567  -53.0414 H         1 UNK         0.3000 
    241 H241       -1.9264  -16.2876  -54.3420 H         1 UNK         0.0600 
    242 H242       -0.9310  -19.1785  -55.5276 H         1 UNK         0.3800 
    243 H243       -1.8183  -19.1502  -57.0319 H         1 UNK         0.3800 
    244 H244       -4.1167  -18.1243  -53.2739 H         1 UNK         0.0800 
    245 H245       -4.3589  -16.5588  -54.0186 H         1 UNK         0.0800 
    246 H246       -5.6793  -16.9936  -51.3063 H         1 UNK         0.0800 
    247 H247       -5.6251  -15.3544  -51.9308 H         1 UNK         0.0800 
@<TRIPOS>BOND
     1    1    2 1    
     2    1  127 1    
     3    1  128 1    
     4    1  129 1    
     5    2    3 2    
     6    2    4 am   BACKBONE|DICT|INTERRES
     7    4    5 1    
     8    4  130 1    
     9    5    6 1    
    10    5   65 1    
    11    5  131 1    
    12    6    7 1    
    13    6  132 1    
    14    6  133 1    
    15    7    8 1    
    16    8    9 1    
    17    8  134 1    
    18    8  135 1    
    19    9   10 ar   
    20    9   14 ar   
    21   10   11 ar   
    22   10  136 1    
    23   11   12 ar   
    24   11  126 1    
    25   12   13 ar   
    26   12  137 1    
    27   13   14 ar   
    28   13   15 1    
    29   14  138 1    
    30   15   16 1    
    31   15  139 1    
    32   15  140 1    
    33   16   17 1    
    34   17   18 1    
    35   17  141 1    
    36   17  142 1    
    37   18   19 1    
    38   18   67 1    
    39   18  143 1    
    40   19   20 am   BACKBONE|DICT|INTERRES
    41   19  144 1    
    42   20   21 2    
    43   20   22 1    
    44   22   23 1    
    45   22   24 1    
    46   22  145 1    
    47   23  146 1    
    48   23  147 1    
    49   23  148 1    
    50   24   25 am   BACKBONE|DICT|INTERRES
    51   24  149 1    
    52   25   26 2    
    53   25   27 1    
    54   27   28 1    
    55   27   29 1    
    56   27  150 1    
    57   28  151 1    
    58   28  152 1    
    59   28  153 1    
    60   29   30 am   BACKBONE|DICT|INTERRES
    61   29  154 1    
    62   30   31 2    
    63   30   32 1    
    64   32   33 1    
    65   32   34 1    
    66   32  155 1    
    67   33  156 1    
    68   33  157 1    
    69   33  158 1    
    70   34   35 am   BACKBONE|DICT|INTERRES
    71   34  159 1    
    72   35   36 2    
    73   35   37 1    
    74   37   38 1    
    75   37   39 1    
    76   37  160 1    
    77   38  161 1    
    78   38  162 1    
    79   38  163 1    
    80   39   40 am   BACKBONE|DICT|INTERRES
    81   39  164 1    
    82   40   41 2    
    83   40   42 1    
    84   42   43 1    
    85   42   44 1    
    86   42  165 1    
    87   43  166 1    
    88   43  167 1    
    89   43  168 1    
    90   44   45 am   BACKBONE|DICT|INTERRES
    91   44  169 1    
    92   45   46 2    
    93   45   47 1    
    94   47   48 1    
    95   47   49 1    
    96   47  170 1    
    97   48  171 1    
    98   48  172 1    
    99   48  173 1    
   100   49   50 am   BACKBONE|DICT|INTERRES
   101   49  174 1    
   102   50   51 2    
   103   50   52 1    
   104   52   53 1    
   105   52   54 1    
   106   52  175 1    
   107   53  176 1    
   108   53  177 1    
   109   53  178 1    
   110   54   55 am   BACKBONE|DICT|INTERRES
   111   54  179 1    
   112   55   56 2    
   113   55   57 1    
   114   57   58 1    
   115   57   59 1    
   116   57  180 1    
   117   58  181 1    
   118   58  182 1    
   119   58  183 1    
   120   59   60 am   BACKBONE|DICT|INTERRES
   121   59  184 1    
   122   60   61 2    
   123   60   62 1    
   124   62   63 1    
   125   62   64 1    
   126   62  185 1    
   127   63  186 1    
   128   63  187 1    
   129   63  188 1    
   130   64   65 am   BACKBONE|DICT|INTERRES
   131   64  189 1    
   132   65   66 2    
   133   67   68 2    
   134   67   69 am   BACKBONE|DICT|INTERRES
   135   69   70 1    
   136   69  190 1    
   137   70   71 1    
   138   70   72 1    
   139   70  191 1    
   140   71  192 1    
   141   71  193 1    
   142   71  194 1    
   143   72   73 2    
   144   72   74 am   BACKBONE|DICT|INTERRES
   145   74   75 1    
   146   74  195 1    
   147   75   76 1    
   148   75   77 1    
   149   75  196 1    
   150   76  197 1    
   151   76  198 1    
   152   76  199 1    
   153   77   78 2    
   154   77   79 am   BACKBONE|DICT|INTERRES
   155   79   80 1    
   156   79  200 1    
   157   80   81 1    
   158   80   82 1    
   159   80  201 1    
   160   81  202 1    
   161   81  203 1    
   162   81  204 1    
   163   82   83 2    
   164   82   84 am   BACKBONE|DICT|INTERRES
   165   84   85 1    
   166   84  205 1    
   167   85   86 1    
   168   85   87 1    
   169   85  206 1    
   170   86  207 1    
   171   86  208 1    
   172   86  209 1    
   173   87   88 2    
   174   87   89 am   BACKBONE|DICT|INTERRES
   175   89   90 1    
   176   89  210 1    
   177   90   91 1    
   178   90   92 1    
   179   90  211 1    
   180   91  212 1    
   181   91  213 1    
   182   91  214 1    
   183   92   93 2    
   184   92   94 am   BACKBONE|DICT|INTERRES
   185   94   95 1    
   186   94  215 1    
   187   95   96 1    
   188   95   97 1    
   189   95  216 1    
   190   96  217 1    
   191   96  218 1    
   192   96  219 1    
   193   97   98 2    
   194   97   99 am   BACKBONE|DICT|INTERRES
   195   99  100 1    
   196   99  220 1    
   197  100  101 1    
   198  100  102 1    
   199  100  221 1    
   200  101  222 1    
   201  101  223 1    
   202  101  224 1    
   203  102  103 2    
   204  102  104 am   BACKBONE|DICT|INTERRES
   205  104  105 1    
   206  104  225 1    
   207  105  106 1    
   208  105  107 1    
   209  105  226 1    
   210  106  227 1    
   211  106  228 1    
   212  106  229 1    
   213  107  108 2    
   214  107  109 am   BACKBONE|DICT|INTERRES
   215  109  110 1    
   216  109  230 1    
   217  110  111 1    
   218  110  112 1    
   219  110  231 1    
   220  111  232 1    
   221  111  233 1    
   222  111  234 1    
   223  112  113 2    
   224  112  114 am   BACKBONE|DICT|INTERRES
   225  114  115 1    
   226  114  235 1    
   227  115  116 1    
   228  115  117 1    
   229  115  236 1    
   230  116  237 1    
   231  116  238 1    
   232  116  239 1    
   233  117  118 2    
   234  117  119 am   BACKBONE|DICT|INTERRES
   235  119  120 1    
   236  119  240 1    
   237  120  121 1    
   238  120  124 1    
   239  120  241 1    
   240  121  122 am   BACKBONE|DICT|INTERRES
   241  121  123 2    
   242  122  242 1    
   243  122  243 1    
   244  124  125 1    
   245  124  244 1    
   246  124  245 1    
   247  125  126 1    
   248  126  246 1    
   249  126  247 1    
@<TRIPOS>SUBSTRUCTURE
     1 UNK         1 GROUP             0       ****    0 ROOT    
