@<TRIPOS>MOLECULE
3R540
247   249    1
SMALL
USER_CHARGES


@<TRIPOS>ATOM
      1 CA          5.5513  -13.1703  -48.8634 C.3       0 UNK        -0.1800 
      2 C           4.2081  -12.5394  -48.5244 C.2       0 UNK         0.5000 
      3 O           3.9314  -11.4217  -48.9600 O.2       0 UNK        -0.5000 
      4 N           3.3817  -13.2577  -47.7522 N.am      1 UNK        -0.5000 
      5 CA          2.0591  -12.8510  -47.2627 C.3       1 UNK         0.1400 
      6 C6          0.9900  -12.7312  -48.3877 C.3       23 UNK        -0.0398 
      7 S7          0.7395  -14.2857  -49.3111 S.3       23 UNK        -0.2404 
      8 C8         -0.6184  -15.0391  -48.3561 C.3       23 UNK        -0.0205 
      9 C9         -1.2122  -16.2763  -49.0214 C.ar      23 UNK        -0.0193 
     10 C10        -2.6016  -16.4103  -49.1134 C.ar      23 UNK        -0.1150 
     11 C11        -3.1750  -17.5540  -49.6754 C.ar      23 UNK        -0.0193 
     12 C12        -2.3436  -18.5667  -50.1610 C.ar      23 UNK        -0.1150 
     13 C13        -0.9545  -18.4413  -50.0930 C.ar      23 UNK        -0.0193 
     14 C14        -0.3939  -17.3021  -49.5089 C.ar      23 UNK        -0.1150 
     15 C15        -0.0656  -19.5368  -50.6607 C.3       23 UNK        -0.0205 
     16 S16         0.4872  -20.7042  -49.3813 S.3       23 UNK        -0.2404 
     17 C17        -1.1055  -21.3408  -48.7623 C.3       23 UNK        -0.0398 
     18 CA         -0.9244  -22.5933  -47.8800 C.3       11 UNK         0.1400 
     19 N          -0.2054  -22.3050  -46.6387 N.am      11 UNK        -0.5000 
     20 C           0.2730  -23.2335  -45.8012 C.2       10 UNK         0.5000 
     21 O           0.1764  -24.4440  -45.9976 O.2       10 UNK        -0.5000 
     22 CA          0.9087  -22.7232  -44.4972 C.3       10 UNK         0.1400 
     23 CB          2.3408  -22.2209  -44.7352 C.3       10 UNK        -0.1800 
     24 N           0.1067  -21.6657  -43.8821 N.am      10 UNK        -0.5000 
     25 C          -1.1146  -21.8527  -43.3623 C.2       9 UNK         0.5000 
     26 O          -1.6729  -22.9490  -43.3049 O.2       9 UNK        -0.5000 
     27 CA         -1.8510  -20.5960  -42.8672 C.3       9 UNK         0.1400 
     28 CB         -1.3972  -20.2191  -41.4490 C.3       9 UNK        -0.1800 
     29 N          -1.6577  -19.4559  -43.7644 N.am      9 UNK        -0.5000 
     30 C          -2.2046  -19.3618  -44.9858 C.2       8 UNK         0.5000 
     31 O          -2.9435  -20.2175  -45.4688 O.2       8 UNK        -0.5000 
     32 CA         -1.8317  -18.1290  -45.8304 C.3       8 UNK         0.1400 
     33 CB         -2.7818  -16.9615  -45.5254 C.3       8 UNK        -0.1800 
     34 N          -0.4488  -17.6898  -45.6398 N.am      8 UNK        -0.5000 
     35 C           0.6308  -18.4445  -45.8877 C.2       7 UNK         0.5000 
     36 O           0.5744  -19.6045  -46.2876 O.2       7 UNK        -0.5000 
     37 CA          2.0035  -17.8241  -45.5822 C.3       7 UNK         0.1400 
     38 CB          2.5797  -17.1423  -46.8327 C.3       7 UNK        -0.1800 
     39 N           1.9904  -16.8675  -44.4736 N.am      7 UNK        -0.5000 
     40 C           1.6499  -17.1415  -43.2046 C.2       6 UNK         0.5000 
     41 O           1.1901  -18.2266  -42.8438 O.2       6 UNK        -0.5000 
     42 CA          1.8423  -15.9981  -42.1819 C.3       6 UNK         0.1400 
     43 CB          2.0977  -16.5161  -40.7516 C.3       6 UNK        -0.1800 
     44 N           2.8702  -15.0252  -42.5836 N.am      6 UNK        -0.5000 
     45 C           4.1802  -15.2540  -42.7789 C.2       5 UNK         0.5000 
     46 O           4.7301  -16.3381  -42.5842 O.2       5 UNK        -0.5000 
     47 CA          5.0099  -14.0801  -43.3319 C.3       5 UNK         0.1400 
     48 CB          5.1905  -14.2373  -44.8490 C.3       5 UNK        -0.1800 
     49 N           4.4016  -12.7753  -43.0621 N.am      5 UNK        -0.5000 
     50 C           4.4770  -12.1507  -41.8775 C.2       4 UNK         0.5000 
     51 O           5.0604  -12.6148  -40.8973 O.2       4 UNK        -0.5000 
     52 CA          3.7747  -10.7920  -41.7596 C.3       4 UNK         0.1400 
     53 CB          4.6448   -9.6829  -42.3728 C.3       4 UNK        -0.1800 
     54 N           2.4803  -10.8076  -42.4375 N.am      4 UNK        -0.5000 
     55 C           1.2920  -10.6188  -41.8464 C.2       3 UNK         0.5000 
     56 O           1.1487  -10.5005  -40.6283 O.2       3 UNK        -0.5000 
     57 CA          0.0539  -10.5481  -42.7735 C.3       3 UNK         0.1400 
     58 CB         -1.0367   -9.5966  -42.2388 C.3       3 UNK        -0.1800 
     59 N           0.3902  -10.2313  -44.1684 N.am      3 UNK        -0.5000 
     60 C           1.0053   -9.1314  -44.6324 C.2       2 UNK         0.5000 
     61 O           1.2249   -8.1315  -43.9477 O.2       2 UNK        -0.5000 
     62 CA          1.4961   -9.1705  -46.0972 C.3       2 UNK         0.1400 
     63 CB          2.8921   -8.5299  -46.2457 C.3       2 UNK        -0.1800 
     64 N           1.4887  -10.5026  -46.7244 N.am      2 UNK        -0.5000 
     65 C           2.1732  -11.5996  -46.3563 C.2       1 UNK         0.5000 
     66 O           2.8512  -11.6688  -45.3250 O.2       1 UNK        -0.5000 
     67 C          -2.2797  -23.2806  -47.6261 C.2       11 UNK         0.5000 
     68 O          -2.6730  -24.1230  -48.4315 O.2       11 UNK        -0.5000 
     69 N          -2.9670  -22.9438  -46.5259 N.am      12 UNK        -0.5000 
     70 CA         -4.1882  -23.6226  -46.0897 C.3       12 UNK         0.1400 
     71 CB         -4.8778  -22.8168  -44.9795 C.3       12 UNK        -0.1800 
     72 C          -3.9183  -25.0689  -45.6420 C.2       12 UNK         0.5000 
     73 O          -4.6535  -25.9702  -46.0447 O.2       12 UNK        -0.5000 
     74 N          -2.8464  -25.2720  -44.8622 N.am      13 UNK        -0.5000 
     75 CA         -2.3900  -26.5873  -44.4054 C.3       13 UNK         0.1400 
     76 CB         -1.2804  -26.4087  -43.3580 C.3       13 UNK        -0.1800 
     77 C          -1.9173  -27.4945  -45.5588 C.2       13 UNK         0.5000 
     78 O          -2.2154  -28.6892  -45.5558 O.2       13 UNK        -0.5000 
     79 N          -1.2165  -26.9051  -46.5367 N.am      14 UNK        -0.5000 
     80 CA         -0.7394  -27.5722  -47.7506 C.3       14 UNK         0.1400 
     81 CB          0.3860  -26.7232  -48.3637 C.3       14 UNK        -0.1800 
     82 C          -1.8420  -27.8213  -48.8009 C.2       14 UNK         0.5000 
     83 O          -1.6003  -28.5632  -49.7534 O.2       14 UNK        -0.5000 
     84 N          -3.0051  -27.1732  -48.6342 N.am      15 UNK        -0.5000 
     85 CA         -4.1511  -27.1233  -49.5522 C.3       15 UNK         0.1400 
     86 CB         -4.7563  -28.5223  -49.7859 C.3       15 UNK        -0.1800 
     87 C          -3.8573  -26.3705  -50.8695 C.2       15 UNK         0.5000 
     88 O          -4.6108  -26.4969  -51.8349 O.2       15 UNK        -0.5000 
     89 N          -2.8013  -25.5476  -50.8722 N.am      16 UNK        -0.5000 
     90 CA         -2.4472  -24.6312  -51.9532 C.3       16 UNK         0.1400 
     91 CB         -1.0081  -24.1370  -51.7478 C.3       16 UNK        -0.1800 
     92 C          -3.4267  -23.4478  -52.0357 C.2       16 UNK         0.5000 
     93 O          -3.7206  -22.9764  -53.1333 O.2       16 UNK        -0.5000 
     94 N          -3.9613  -23.0162  -50.8836 N.am      17 UNK        -0.5000 
     95 CA         -5.0036  -21.9900  -50.8055 C.3       17 UNK         0.1400 
     96 CB         -5.2146  -21.5714  -49.3440 C.3       17 UNK        -0.1800 
     97 C          -6.3265  -22.4563  -51.4440 C.2       17 UNK         0.5000 
     98 O          -6.9779  -21.6747  -52.1358 O.2       17 UNK        -0.5000 
     99 N          -6.6619  -23.7426  -51.2609 N.am      18 UNK        -0.5000 
    100 CA        -7.8053  -24.4049  -51.8964 C.3       18 UNK         0.1400 
    101 CB        -8.0609  -25.7544  -51.2080 C.3       18 UNK        -0.1800 
    102 C         -7.6187  -24.5886  -53.4165 C.2       18 UNK         0.5000 
    103 O         -8.6028  -24.5725  -54.1558 O.2       18 UNK        -0.5000 
    104 N         -6.3590  -24.7108  -53.8579 N.am      19 UNK        -0.5000 
    105 CA        -5.9469  -24.7300  -55.2638 C.3       19 UNK         0.1400 
    106 CB        -4.6154  -25.4903  -55.3809 C.3       19 UNK        -0.1800 
    107 C         -5.8391  -23.3185  -55.8865 C.2       19 UNK         0.5000 
    108 O         -5.4779  -23.2096  -57.0590 O.2       19 UNK        -0.5000 
    109 N         -6.1571  -22.2735  -55.1066 N.am      20 UNK        -0.5000 
    110 CA        -6.1778  -20.8544  -55.4667 C.3       20 UNK         0.1400 
    111 CB        -7.1991  -20.5752  -56.5900 C.3       20 UNK        -0.1800 
    112 C         -4.7810  -20.2648  -55.7494 C.2       20 UNK         0.5000 
    113 O         -4.6449  -19.3840  -56.6007 O.2       20 UNK        -0.5000 
    114 N         -3.7679  -20.7097  -54.9903 N.am      21 UNK        -0.5000 
    115 CA        -2.4033  -20.1649  -55.0180 C.3       21 UNK         0.1400 
    116 CB        -1.4517  -21.1514  -54.3234 C.3       21 UNK        -0.1800 
    117 C         -2.2734  -18.7570  -54.3909 C.2       21 UNK         0.5000 
    118 O         -1.1901  -18.1740  -54.4442 O.2       21 UNK        -0.5000 
    119 N         -3.3633  -18.2413  -53.8070 N.am      22 UNK        -0.5000 
    120 CA        -3.4732  -16.9201  -53.1661 C.3       22 UNK         0.1400 
    121 C         -3.2570  -15.7009  -54.1118 C.2       22 UNK         0.5000 
    122 N         -3.3549  -15.8538  -55.4274 N.am      22 UNK        -0.7600 
    123 O         -3.0033  -14.5954  -53.6419 O.2       22 UNK        -0.5000 
    124 C124       -4.8200  -16.7551  -52.4072 C.3       23 UNK        -0.0398 
    125 S125       -5.2968  -18.1911  -51.3821 S.3       23 UNK        -0.2404 
    126 C126       -4.6906  -17.6970  -49.7360 C.3       23 UNK        -0.0205 
    127 H127        6.3633  -12.5344  -48.5106 H         1 UNK         0.0600 
    128 H128        5.6662  -14.1527  -48.4045 H         1 UNK         0.0600 
    129 H129        5.6501  -13.2851  -49.9427 H         1 UNK         0.0600 
    130 H130        3.6879  -14.1685  -47.4460 H         1 UNK         0.3000 
    131 H131        1.7326  -13.6507  -46.5965 H         1 UNK         0.0600 
    132 H132        0.0276  -12.4198  -47.9785 H         1 UNK         0.0800 
    133 H133        1.2752  -11.9657  -49.1109 H         1 UNK         0.0800 
    134 H134       -0.2550  -15.3111  -47.3655 H         1 UNK         0.0800 
    135 H135       -1.3973  -14.2900  -48.2060 H         1 UNK         0.0800 
    136 H136       -3.2412  -15.6279  -48.7299 H         1 UNK         0.1150 
    137 H137       -2.7804  -19.4508  -50.6028 H         1 UNK         0.1150 
    138 H138        0.6808  -17.2139  -49.4373 H         1 UNK         0.1150 
    139 H139        0.8096  -19.0893  -51.1338 H         1 UNK         0.0800 
    140 H140       -0.5882  -20.0823  -51.4469 H         1 UNK         0.0800 
    141 H141       -1.7345  -21.5619  -49.6261 H         1 UNK         0.0800 
    142 H142       -1.6095  -20.5523  -48.2008 H         1 UNK         0.0800 
    143 H143       -0.3181  -23.3082  -48.4396 H         1 UNK         0.0600 
    144 H144       -0.0262  -21.3224  -46.4383 H         1 UNK         0.3000 
    145 H145        0.9558  -23.5614  -43.7988 H         1 UNK         0.0600 
    146 H146        2.8053  -21.8982  -43.8033 H         1 UNK         0.0600 
    147 H147        2.9644  -23.0123  -45.1527 H         1 UNK         0.0600 
    148 H148        2.3688  -21.3824  -45.4312 H         1 UNK         0.0600 
    149 H149        0.4762  -20.7263  -43.9247 H         1 UNK         0.3000 
    150 H150       -2.9180  -20.8263  -42.8306 H         1 UNK         0.0600 
    151 H151       -0.3339  -19.9792  -41.4139 H         1 UNK         0.0600 
    152 H152       -1.5702  -21.0418  -40.7541 H         1 UNK         0.0600 
    153 H153       -1.9480  -19.3561  -41.0748 H         1 UNK         0.0600 
    154 H154       -1.0071  -18.7430  -43.4616 H         1 UNK         0.3000 
    155 H155       -1.9486  -18.4022  -46.8810 H         1 UNK         0.0600 
    156 H156       -2.7102  -16.6451  -44.4841 H         1 UNK         0.0600 
    157 H157       -3.8181  -17.2454  -45.7131 H         1 UNK         0.0600 
    158 H158       -2.5651  -16.0978  -46.1532 H         1 UNK         0.0600 
    159 H159       -0.3102  -16.7594  -45.2771 H         1 UNK         0.3000 
    160 H160        2.6713  -18.6414  -45.3017 H         1 UNK         0.0600 
    161 H161        1.9841  -16.2814  -47.1353 H         1 UNK         0.0600 
    162 H162        2.6061  -17.8338  -47.6763 H         1 UNK         0.0600 
    163 H163        3.6012  -16.8025  -46.6616 H         1 UNK         0.0600 
    164 H164        2.3547  -15.9486  -44.6693 H         1 UNK         0.3000 
    165 H165        0.8983  -15.4519  -42.1663 H         1 UNK         0.0600 
    166 H166        2.2276  -15.6911  -40.0511 H         1 UNK         0.0600 
    167 H167        2.9873  -17.1441  -40.6998 H         1 UNK         0.0600 
    168 H168        1.2573  -17.1133  -40.3958 H         1 UNK         0.0600 
    169 H169        2.5388  -14.0887  -42.7648 H         1 UNK         0.3000 
    170 H170        5.9968  -14.1162  -42.8652 H         1 UNK         0.0600 
    171 H171        5.7179  -15.1619  -45.0873 H         1 UNK         0.0600 
    172 H172        4.2285  -14.2681  -45.3581 H         1 UNK         0.0600 
    173 H173        5.7687  -13.4139  -45.2691 H         1 UNK         0.0600 
    174 H174        3.9215  -12.3291  -43.8379 H         1 UNK         0.3000 
    175 H175        3.6515  -10.5762  -40.6963 H         1 UNK         0.0600 
    176 H176        4.8143   -9.8442  -43.4383 H         1 UNK         0.0600 
    177 H177        4.1744   -8.7063  -42.2554 H         1 UNK         0.0600 
    178 H178        5.6199   -9.6361  -41.8865 H         1 UNK         0.0600 
    179 H179        2.5012  -10.9219  -43.4446 H         1 UNK         0.3000 
    180 H180       -0.3667  -11.5544  -42.7854 H         1 UNK         0.0600 
    181 H181       -0.6639   -8.5798  -42.1142 H         1 UNK         0.0600 
    182 H182       -1.4044   -9.9292  -41.2674 H         1 UNK         0.0600 
    183 H183       -1.8930   -9.5602  -42.9122 H         1 UNK         0.0600 
    184 H184        0.2515  -10.9838  -44.8267 H         1 UNK         0.3000 
    185 H185        0.7906   -8.5625  -46.6652 H         1 UNK         0.0600 
    186 H186        3.6402   -9.0478  -45.6447 H         1 UNK         0.0600 
    187 H187        3.2260   -8.5494  -47.2833 H         1 UNK         0.0600 
    188 H188        2.8842   -7.4862  -45.9295 H         1 UNK         0.0600 
    189 H189        0.9523  -10.5521  -47.5787 H         1 UNK         0.3000 
    190 H190       -2.6419  -22.1753  -45.9495 H         1 UNK         0.3000 
    191 H191       -4.8723  -23.6706  -46.9380 H         1 UNK         0.0600 
    192 H192       -5.7874  -23.3152  -44.6425 H         1 UNK         0.0600 
    193 H193       -5.1640  -21.8266  -45.3342 H         1 UNK         0.0600 
    194 H194       -4.2329  -22.6879  -44.1107 H         1 UNK         0.0600 
    195 H195       -2.3109  -24.4696  -44.5469 H         1 UNK         0.3000 
    196 H196       -3.2344  -27.0823  -43.9213 H         1 UNK         0.0600 
    197 H197       -0.4112  -25.8980  -43.7729 H         1 UNK         0.0600 
    198 H198       -1.6332  -25.8269  -42.5063 H         1 UNK         0.0600 
    199 H199       -0.9439  -27.3736  -42.9769 H         1 UNK         0.0600 
    200 H200       -0.9390  -25.9343  -46.4148 H         1 UNK         0.3000 
    201 H201       -0.3240  -28.5432  -47.4735 H         1 UNK         0.0600 
    202 H202        0.0261  -25.7394  -48.6663 H         1 UNK         0.0600 
    203 H203        0.8068  -27.2050  -49.2471 H         1 UNK         0.0600 
    204 H204        1.2015  -26.5776  -47.6549 H         1 UNK         0.0600 
    205 H205       -3.0877  -26.5803  -47.8187 H         1 UNK         0.3000 
    206 H206       -4.9065  -26.5275  -49.0380 H         1 UNK         0.0600 
    207 H207       -4.9516  -29.0299  -48.8412 H         1 UNK         0.0600 
    208 H208       -5.7059  -28.4524  -50.3177 H         1 UNK         0.0600 
    209 H209       -4.0990  -29.1569  -50.3803 H         1 UNK         0.0600 
    210 H210       -2.3101  -25.4252  -49.9954 H         1 UNK         0.3000 
    211 H211       -2.4919  -25.1765  -52.8976 H         1 UNK         0.0600 
    212 H212       -0.6974  -23.4862  -52.5655 H         1 UNK         0.0600 
    213 H213       -0.3072  -24.9714  -51.7145 H         1 UNK         0.0600 
    214 H214       -0.9004  -23.5744  -50.8213 H         1 UNK         0.0600 
    215 H215       -3.6685  -23.4570  -50.0180 H         1 UNK         0.3000 
    216 H216       -4.6556  -21.1184  -51.3630 H         1 UNK         0.0600 
    217 H217       -5.5607  -22.4053  -48.7346 H         1 UNK         0.0600 
    218 H218       -5.9642  -20.7826  -49.2721 H         1 UNK         0.0600 
    219 H219       -4.2959  -21.1851  -48.9027 H         1 UNK         0.0600 
    220 H220       -6.0584  -24.3231  -50.6993 H         1 UNK         0.3000 
    221 H221       -8.6858  -23.7764  -51.7465 H         1 UNK         0.0600 
    222 H222       -8.2377  -25.6265  -50.1399 H         1 UNK         0.0600 
    223 H223       -7.2214  -26.4385  -51.3304 H         1 UNK         0.0600 
    224 H224       -8.9420  -26.2426  -51.6262 H         1 UNK         0.0600 
    225 H225       -5.6133  -24.7475  -53.1766 H         1 UNK         0.3000 
    226 H226       -6.6961  -25.2785  -55.8382 H         1 UNK         0.0600 
    227 H227       -3.7955  -24.9422  -54.9185 H         1 UNK         0.0600 
    228 H228       -4.6745  -26.4705  -54.9071 H         1 UNK         0.0600 
    229 H229       -4.3488  -25.6507  -56.4261 H         1 UNK         0.0600 
    230 H230       -6.4134  -22.4697  -54.1477 H         1 UNK         0.3000 
    231 H231       -6.5360  -20.3345  -54.5771 H         1 UNK         0.0600 
    232 H232       -6.8799  -20.9936  -57.5447 H         1 UNK         0.0600 
    233 H233       -7.3360  -19.5030  -56.7351 H         1 UNK         0.0600 
    234 H234       -8.1756  -20.9949  -56.3482 H         1 UNK         0.0600 
    235 H235       -3.9336  -21.4688  -54.3340 H         1 UNK         0.3000 
    236 H236       -2.0949  -20.0806  -56.0620 H         1 UNK         0.0600 
    237 H237       -1.5212  -22.1462  -54.7638 H         1 UNK         0.0600 
    238 H238       -0.4141  -20.8281  -54.4143 H         1 UNK         0.0600 
    239 H239       -1.6749  -21.2356  -53.2602 H         1 UNK         0.0600 
    240 H240       -4.1993  -18.8041  -53.7877 H         1 UNK         0.3000 
    241 H241       -2.6683  -16.8686  -52.4317 H         1 UNK         0.0600 
    242 H242       -3.2131  -15.0601  -56.0323 H         1 UNK         0.3800 
    243 H243       -3.5679  -16.7561  -55.8243 H         1 UNK         0.3800 
    244 H244       -5.6317  -16.5943  -53.1189 H         1 UNK         0.0800 
    245 H245       -4.7932  -15.8629  -51.7790 H         1 UNK         0.0800 
    246 H246       -5.1830  -16.7683  -49.4435 H         1 UNK         0.0800 
    247 H247       -4.9959  -18.4488  -49.0077 H         1 UNK         0.0800 
@<TRIPOS>BOND
     1    1    2 1    
     2    1  127 1    
     3    1  128 1    
     4    1  129 1    
     5    2    3 2    
     6    2    4 am   BACKBONE|DICT|INTERRES
     7    4    5 1    
     8    4  130 1    
     9    5    6 1    
    10    5   65 1    
    11    5  131 1    
    12    6    7 1    
    13    6  132 1    
    14    6  133 1    
    15    7    8 1    
    16    8    9 1    
    17    8  134 1    
    18    8  135 1    
    19    9   10 ar   
    20    9   14 ar   
    21   10   11 ar   
    22   10  136 1    
    23   11   12 ar   
    24   11  126 1    
    25   12   13 ar   
    26   12  137 1    
    27   13   14 ar   
    28   13   15 1    
    29   14  138 1    
    30   15   16 1    
    31   15  139 1    
    32   15  140 1    
    33   16   17 1    
    34   17   18 1    
    35   17  141 1    
    36   17  142 1    
    37   18   19 1    
    38   18   67 1    
    39   18  143 1    
    40   19   20 am   BACKBONE|DICT|INTERRES
    41   19  144 1    
    42   20   21 2    
    43   20   22 1    
    44   22   23 1    
    45   22   24 1    
    46   22  145 1    
    47   23  146 1    
    48   23  147 1    
    49   23  148 1    
    50   24   25 am   BACKBONE|DICT|INTERRES
    51   24  149 1    
    52   25   26 2    
    53   25   27 1    
    54   27   28 1    
    55   27   29 1    
    56   27  150 1    
    57   28  151 1    
    58   28  152 1    
    59   28  153 1    
    60   29   30 am   BACKBONE|DICT|INTERRES
    61   29  154 1    
    62   30   31 2    
    63   30   32 1    
    64   32   33 1    
    65   32   34 1    
    66   32  155 1    
    67   33  156 1    
    68   33  157 1    
    69   33  158 1    
    70   34   35 am   BACKBONE|DICT|INTERRES
    71   34  159 1    
    72   35   36 2    
    73   35   37 1    
    74   37   38 1    
    75   37   39 1    
    76   37  160 1    
    77   38  161 1    
    78   38  162 1    
    79   38  163 1    
    80   39   40 am   BACKBONE|DICT|INTERRES
    81   39  164 1    
    82   40   41 2    
    83   40   42 1    
    84   42   43 1    
    85   42   44 1    
    86   42  165 1    
    87   43  166 1    
    88   43  167 1    
    89   43  168 1    
    90   44   45 am   BACKBONE|DICT|INTERRES
    91   44  169 1    
    92   45   46 2    
    93   45   47 1    
    94   47   48 1    
    95   47   49 1    
    96   47  170 1    
    97   48  171 1    
    98   48  172 1    
    99   48  173 1    
   100   49   50 am   BACKBONE|DICT|INTERRES
   101   49  174 1    
   102   50   51 2    
   103   50   52 1    
   104   52   53 1    
   105   52   54 1    
   106   52  175 1    
   107   53  176 1    
   108   53  177 1    
   109   53  178 1    
   110   54   55 am   BACKBONE|DICT|INTERRES
   111   54  179 1    
   112   55   56 2    
   113   55   57 1    
   114   57   58 1    
   115   57   59 1    
   116   57  180 1    
   117   58  181 1    
   118   58  182 1    
   119   58  183 1    
   120   59   60 am   BACKBONE|DICT|INTERRES
   121   59  184 1    
   122   60   61 2    
   123   60   62 1    
   124   62   63 1    
   125   62   64 1    
   126   62  185 1    
   127   63  186 1    
   128   63  187 1    
   129   63  188 1    
   130   64   65 am   BACKBONE|DICT|INTERRES
   131   64  189 1    
   132   65   66 2    
   133   67   68 2    
   134   67   69 am   BACKBONE|DICT|INTERRES
   135   69   70 1    
   136   69  190 1    
   137   70   71 1    
   138   70   72 1    
   139   70  191 1    
   140   71  192 1    
   141   71  193 1    
   142   71  194 1    
   143   72   73 2    
   144   72   74 am   BACKBONE|DICT|INTERRES
   145   74   75 1    
   146   74  195 1    
   147   75   76 1    
   148   75   77 1    
   149   75  196 1    
   150   76  197 1    
   151   76  198 1    
   152   76  199 1    
   153   77   78 2    
   154   77   79 am   BACKBONE|DICT|INTERRES
   155   79   80 1    
   156   79  200 1    
   157   80   81 1    
   158   80   82 1    
   159   80  201 1    
   160   81  202 1    
   161   81  203 1    
   162   81  204 1    
   163   82   83 2    
   164   82   84 am   BACKBONE|DICT|INTERRES
   165   84   85 1    
   166   84  205 1    
   167   85   86 1    
   168   85   87 1    
   169   85  206 1    
   170   86  207 1    
   171   86  208 1    
   172   86  209 1    
   173   87   88 2    
   174   87   89 am   BACKBONE|DICT|INTERRES
   175   89   90 1    
   176   89  210 1    
   177   90   91 1    
   178   90   92 1    
   179   90  211 1    
   180   91  212 1    
   181   91  213 1    
   182   91  214 1    
   183   92   93 2    
   184   92   94 am   BACKBONE|DICT|INTERRES
   185   94   95 1    
   186   94  215 1    
   187   95   96 1    
   188   95   97 1    
   189   95  216 1    
   190   96  217 1    
   191   96  218 1    
   192   96  219 1    
   193   97   98 2    
   194   97   99 am   BACKBONE|DICT|INTERRES
   195   99  100 1    
   196   99  220 1    
   197  100  101 1    
   198  100  102 1    
   199  100  221 1    
   200  101  222 1    
   201  101  223 1    
   202  101  224 1    
   203  102  103 2    
   204  102  104 am   BACKBONE|DICT|INTERRES
   205  104  105 1    
   206  104  225 1    
   207  105  106 1    
   208  105  107 1    
   209  105  226 1    
   210  106  227 1    
   211  106  228 1    
   212  106  229 1    
   213  107  108 2    
   214  107  109 am   BACKBONE|DICT|INTERRES
   215  109  110 1    
   216  109  230 1    
   217  110  111 1    
   218  110  112 1    
   219  110  231 1    
   220  111  232 1    
   221  111  233 1    
   222  111  234 1    
   223  112  113 2    
   224  112  114 am   BACKBONE|DICT|INTERRES
   225  114  115 1    
   226  114  235 1    
   227  115  116 1    
   228  115  117 1    
   229  115  236 1    
   230  116  237 1    
   231  116  238 1    
   232  116  239 1    
   233  117  118 2    
   234  117  119 am   BACKBONE|DICT|INTERRES
   235  119  120 1    
   236  119  240 1    
   237  120  121 1    
   238  120  124 1    
   239  120  241 1    
   240  121  122 am   BACKBONE|DICT|INTERRES
   241  121  123 2    
   242  122  242 1    
   243  122  243 1    
   244  124  125 1    
   245  124  244 1    
   246  124  245 1    
   247  125  126 1    
   248  126  246 1    
   249  126  247 1    
@<TRIPOS>SUBSTRUCTURE
     1 UNK         1 GROUP             0       ****    0 ROOT    
