@<TRIPOS>MOLECULE
3R540
247   249    1
SMALL
USER_CHARGES


@<TRIPOS>ATOM
      1 CA         -5.3202  -15.2697  -50.3124 C.3       0 UNK        -0.1800 
      2 C          -3.9398  -15.3507  -49.6769 C.2       0 UNK         0.5000 
      3 O          -3.3737  -16.4367  -49.6010 O.2       0 UNK        -0.5000 
      4 N          -3.4296  -14.2045  -49.2040 N.am      1 UNK        -0.5000 
      5 CA         -2.1140  -13.9539  -48.5879 C.3       1 UNK         0.1400 
      6 C6         -0.9086  -14.0756  -49.5680 C.3       23 UNK        -0.0398 
      7 S7         -0.2373  -15.7518  -49.8633 S.3       23 UNK        -0.2404 
      8 C8          1.5419  -15.3970  -50.0024 C.3       23 UNK        -0.0205 
      9 C9          2.3084  -16.6345  -50.4415 C.ar      23 UNK        -0.0193 
     10 C10         2.5332  -16.8801  -51.7977 C.ar      23 UNK        -0.1150 
     11 C11         3.1890  -18.0445  -52.2080 C.ar      23 UNK        -0.0193 
     12 C12         3.6499  -18.9510  -51.2462 C.ar      23 UNK        -0.1150 
     13 C13         3.4397  -18.7131  -49.8843 C.ar      23 UNK        -0.0193 
     14 C14         2.7770  -17.5455  -49.4927 C.ar      23 UNK        -0.1150 
     15 C15         3.9424  -19.7019  -48.8360 C.3       23 UNK        -0.0205 
     16 S16         3.1373  -21.3394  -48.9281 S.3       23 UNK        -0.2404 
     17 C17         1.3689  -20.9270  -48.7740 C.3       23 UNK        -0.0398 
     18 CA          0.5299  -22.0716  -48.1449 C.3       11 UNK         0.1400 
     19 N           0.7029  -22.1627  -46.6883 N.am      11 UNK        -0.5000 
     20 C           0.1255  -23.0896  -45.9089 C.2       10 UNK         0.5000 
     21 O          -0.5496  -24.0218  -46.3459 O.2       10 UNK        -0.5000 
     22 CA          0.2693  -22.9205  -44.3836 C.3       10 UNK         0.1400 
     23 CB          1.6409  -23.4025  -43.8894 C.3       10 UNK        -0.1800 
     24 N           0.0251  -21.5457  -43.9447 N.am      10 UNK        -0.5000 
     25 C          -1.1600  -20.9248  -44.0445 C.2       9 UNK         0.5000 
     26 O          -2.1811  -21.4719  -44.4576 O.2       9 UNK        -0.5000 
     27 CA         -1.2071  -19.4301  -43.6761 C.3       9 UNK         0.1400 
     28 CB         -1.3752  -19.2414  -42.1617 C.3       9 UNK        -0.1800 
     29 N          -0.0251  -18.7075  -44.1449 N.am      9 UNK        -0.5000 
     30 C           0.3209  -18.5860  -45.4336 C.2       8 UNK         0.5000 
     31 O          -0.3734  -18.9826  -46.3661 O.2       8 UNK        -0.5000 
     32 CA          1.7045  -17.9976  -45.7362 C.3       8 UNK         0.1400 
     33 CB          1.6653  -16.4688  -45.8344 C.3       8 UNK        -0.1800 
     34 N           2.7085  -18.4232  -44.7648 N.am      8 UNK        -0.5000 
     35 C           3.2042  -19.6672  -44.7079 C.2       7 UNK         0.5000 
     36 O           2.8891  -20.5587  -45.4944 O.2       7 UNK        -0.5000 
     37 CA          4.1810  -19.9750  -43.5585 C.3       7 UNK         0.1400 
     38 CB          5.6161  -19.6019  -43.9582 C.3       7 UNK        -0.1800 
     39 N           3.8228  -19.2742  -42.3247 N.am      7 UNK        -0.5000 
     40 C           2.7195  -19.5267  -41.6054 C.2       6 UNK         0.5000 
     41 O           1.9365  -20.4412  -41.8612 O.2       6 UNK        -0.5000 
     42 CA          2.4125  -18.5530  -40.4489 C.3       6 UNK         0.1400 
     43 CB          3.0940  -19.0188  -39.1540 C.3       6 UNK        -0.1800 
     44 N           2.8174  -17.1731  -40.7460 N.am      6 UNK        -0.5000 
     45 C           2.2920  -16.4325  -41.7309 C.2       5 UNK         0.5000 
     46 O           1.3686  -16.8182  -42.4500 O.2       5 UNK        -0.5000 
     47 CA          2.9638  -15.0832  -42.0176 C.3       5 UNK         0.1400 
     48 CB          4.3295  -15.3192  -42.6996 C.3       5 UNK        -0.1800 
     49 N           2.0898  -14.2934  -42.8837 N.am      5 UNK        -0.5000 
     50 C           2.2775  -13.0169  -43.2392 C.2       4 UNK         0.5000 
     51 O           3.2112  -12.3244  -42.8313 O.2       4 UNK        -0.5000 
     52 CA          1.2571  -12.3958  -44.2132 C.3       4 UNK         0.1400 
     53 CB          1.7137  -12.5837  -45.6681 C.3       4 UNK        -0.1800 
     54 N          -0.1113  -12.8987  -44.0610 N.am      4 UNK        -0.5000 
     55 C          -0.8875  -12.6436  -42.9958 C.2       3 UNK         0.5000 
     56 O          -0.4878  -12.0391  -41.9995 O.2       3 UNK        -0.5000 
     57 CA         -2.3650  -13.0853  -43.0452 C.3       3 UNK         0.1400 
     58 CB         -3.2877  -11.8595  -43.1458 C.3       3 UNK        -0.1800 
     59 N          -2.6827  -13.9902  -44.1485 N.am      3 UNK        -0.5000 
     60 C          -2.3984  -15.2976  -44.1683 C.2       2 UNK         0.5000 
     61 O          -1.8242  -15.8818  -43.2520 O.2       2 UNK        -0.5000 
     62 CA         -2.8382  -16.0854  -45.4183 C.3       2 UNK         0.1400 
     63 CB         -4.2218  -16.7067  -45.1690 C.3       2 UNK        -0.1800 
     64 N          -2.8887  -15.3091  -46.6633 N.am      2 UNK        -0.5000 
     65 C          -1.8792  -14.6131  -47.2072 C.2       1 UNK         0.5000 
     66 O          -0.8089  -14.4220  -46.6303 O.2       1 UNK        -0.5000 
     67 C          -0.9588  -21.9281  -48.5335 C.2       11 UNK         0.5000 
     68 O          -1.4535  -22.6908  -49.3645 O.2       11 UNK        -0.5000 
     69 N          -1.6446  -20.9683  -47.9046 N.am      12 UNK        -0.5000 
     70 CA         -3.0300  -20.6291  -48.1900 C.3       12 UNK         0.1400 
     71 CB         -3.3620  -19.2855  -47.5256 C.3       12 UNK        -0.1800 
     72 C          -4.0228  -21.7223  -47.7615 C.2       12 UNK         0.5000 
     73 O          -4.7686  -22.2209  -48.6040 O.2       12 UNK        -0.5000 
     74 N          -4.0514  -22.0447  -46.4629 N.am      13 UNK        -0.5000 
     75 CA         -5.1101  -22.8453  -45.8531 C.3       13 UNK         0.1400 
     76 CB         -5.4132  -22.3088  -44.4448 C.3       13 UNK        -0.1800 
     77 C          -4.7719  -24.3401  -45.8003 C.2       13 UNK         0.5000 
     78 O          -5.6197  -25.1532  -46.1682 O.2       13 UNK        -0.5000 
     79 N          -3.5622  -24.6890  -45.3367 N.am      14 UNK        -0.5000 
     80 CA         -3.1667  -26.0848  -45.1103 C.3       14 UNK         0.1400 
     81 CB         -1.9638  -26.1645  -44.1570 C.3       14 UNK        -0.1800 
     82 C          -2.9017  -26.8379  -46.4250 C.2       14 UNK         0.5000 
     83 O          -3.3844  -27.9589  -46.5895 O.2       14 UNK        -0.5000 
     84 N          -2.1850  -26.1913  -47.3543 N.am      15 UNK        -0.5000 
     85 CA         -1.9847  -26.6776  -48.7230 C.3       15 UNK         0.1400 
     86 CB         -0.6586  -26.1306  -49.2716 C.3       15 UNK        -0.1800 
     87 C          -3.1738  -26.3540  -49.6558 C.2       15 UNK         0.5000 
     88 O          -3.2201  -26.8782  -50.7692 O.2       15 UNK        -0.5000 
     89 N          -4.1222  -25.5339  -49.1752 N.am      16 UNK        -0.5000 
     90 CA         -5.4155  -25.1941  -49.7822 C.3       16 UNK         0.1400 
     91 CB         -6.3205  -26.4421  -49.8507 C.3       16 UNK        -0.1800 
     92 C          -5.3059  -24.4568  -51.1351 C.2       16 UNK         0.5000 
     93 O          -6.1656  -24.6306  -52.0012 O.2       16 UNK        -0.5000 
     94 N          -4.2570  -23.6408  -51.2942 N.am      17 UNK        -0.5000 
     95 CA         -3.9412  -22.9070  -52.5204 C.3       17 UNK         0.1400 
     96 CB         -2.4688  -23.1642  -52.8716 C.3       17 UNK        -0.1800 
     97 C          -4.2806  -21.4035  -52.4336 C.2       17 UNK         0.5000 
     98 O          -3.8916  -20.6465  -53.3265 O.2       17 UNK        -0.5000 
     99 N          -5.0386  -20.9929  -51.4018 N.am      18 UNK        -0.5000 
    100 CA        -5.4970  -19.6172  -51.1517 C.3       18 UNK         0.1400 
    101 CB        -6.4635  -19.6059  -49.9565 C.3       18 UNK        -0.1800 
    102 C         -6.1861  -18.9392  -52.3513 C.2       18 UNK         0.5000 
    103 O         -6.0116  -17.7382  -52.5510 O.2       18 UNK        -0.5000 
    104 N         -6.9202  -19.7253  -53.1516 N.am      19 UNK        -0.5000 
    105 CA        -7.6032  -19.2876  -54.3721 C.3       19 UNK         0.1400 
    106 CB        -8.4582  -20.4477  -54.9042 C.3       19 UNK        -0.1800 
    107 C         -6.6550  -18.7682  -55.4736 C.2       19 UNK         0.5000 
    108 O         -7.0797  -17.9595  -56.2996 O.2       19 UNK        -0.5000 
    109 N         -5.3946  -19.2224  -55.4587 N.am      20 UNK        -0.5000 
    110 CA        -4.3304  -18.7706  -56.3553 C.3       20 UNK         0.1400 
    111 CB        -3.4659  -19.9864  -56.7320 C.3       20 UNK        -0.1800 
    112 C         -3.4599  -17.6663  -55.7211 C.2       20 UNK         0.5000 
    113 O         -2.5459  -17.1778  -56.3865 O.2       20 UNK        -0.5000 
    114 N         -3.7292  -17.3143  -54.4520 N.am      21 UNK        -0.5000 
    115 CA        -2.9413  -16.4275  -53.5867 C.3       21 UNK         0.1400 
    116 CB        -3.0419  -14.9626  -54.0570 C.3       21 UNK        -0.1800 
    117 C         -1.4890  -16.9211  -53.4147 C.2       21 UNK         0.5000 
    118 O         -0.5440  -16.1334  -53.4840 O.2       21 UNK        -0.5000 
    119 N         -1.3521  -18.2364  -53.2265 N.am      22 UNK        -0.5000 
    120 CA        -0.0960  -18.9582  -53.0234 C.3       22 UNK         0.1400 
    121 C         -0.3808  -20.2592  -52.2243 C.2       22 UNK         0.5000 
    122 N          0.3996  -21.3179  -52.3845 N.am      22 UNK        -0.7600 
    123 O         -1.2965  -20.3024  -51.4090 O.2       22 UNK        -0.5000 
    124 C124        0.7018  -19.1020  -54.3566 C.3       23 UNK        -0.0398 
    125 S125        2.4022  -19.7712  -54.2329 S.3       23 UNK        -0.2404 
    126 C126        3.3801  -18.3333  -53.6895 C.3       23 UNK        -0.0205 
    127 H127       -5.2374  -15.3247  -51.3975 H         1 UNK         0.0600 
    128 H128       -5.8311  -14.3416  -50.0558 H         1 UNK         0.0600 
    129 H129       -5.9403  -16.1008  -49.9764 H         1 UNK         0.0600 
    130 H130       -3.9979  -13.3735  -49.2947 H         1 UNK         0.3000 
    131 H131       -2.1692  -12.8923  -48.3420 H         1 UNK         0.0600 
    132 H132       -0.0959  -13.4523  -49.1912 H         1 UNK         0.0800 
    133 H133       -1.1744  -13.6462  -50.5346 H         1 UNK         0.0800 
    134 H134        1.9179  -15.0392  -49.0425 H         1 UNK         0.0800 
    135 H135        1.6962  -14.5897  -50.7201 H         1 UNK         0.0800 
    136 H136        2.1596  -16.1831  -52.5353 H         1 UNK         0.1150 
    137 H137        4.1562  -19.8534  -51.5594 H         1 UNK         0.1150 
    138 H138        2.6184  -17.3339  -48.4490 H         1 UNK         0.1150 
    139 H139        5.0162  -19.8373  -48.9707 H         1 UNK         0.0800 
    140 H140        3.8174  -19.3016  -47.8302 H         1 UNK         0.0800 
    141 H141        1.0231  -20.6917  -49.7792 H         1 UNK         0.0800 
    142 H142        1.2530  -20.0074  -48.2024 H         1 UNK         0.0800 
    143 H143        0.8706  -23.0183  -48.5693 H         1 UNK         0.0600 
    144 H144        1.2980  -21.4623  -46.2566 H         1 UNK         0.3000 
    145 H145       -0.4883  -23.5472  -43.9100 H         1 UNK         0.0600 
    146 H146        1.7233  -23.3127  -42.8060 H         1 UNK         0.0600 
    147 H147        2.4584  -22.8373  -44.3343 H         1 UNK         0.0600 
    148 H148        1.7955  -24.4521  -44.1422 H         1 UNK         0.0600 
    149 H149        0.8073  -21.0429  -43.5415 H         1 UNK         0.3000 
    150 H150       -2.0776  -18.9930  -44.1685 H         1 UNK         0.0600 
    151 H151       -2.3068  -19.6919  -41.8173 H         1 UNK         0.0600 
    152 H152       -1.4057  -18.1853  -41.8944 H         1 UNK         0.0600 
    153 H153       -0.5636  -19.7031  -41.6011 H         1 UNK         0.0600 
    154 H154        0.5595  -18.2684  -43.4400 H         1 UNK         0.3000 
    155 H155        2.0061  -18.3897  -46.7041 H         1 UNK         0.0600 
    156 H156        1.0995  -16.1662  -46.7153 H         1 UNK         0.0600 
    157 H157        2.6650  -16.0458  -45.9319 H         1 UNK         0.0600 
    158 H158        1.1839  -16.0152  -44.9689 H         1 UNK         0.0600 
    159 H159        2.9600  -17.7606  -44.0481 H         1 UNK         0.3000 
    160 H160        4.1451  -21.0496  -43.3669 H         1 UNK         0.0600 
    161 H161        5.7194  -18.5318  -44.1428 H         1 UNK         0.0600 
    162 H162        5.9143  -20.1226  -44.8693 H         1 UNK         0.0600 
    163 H163        6.3268  -19.8789  -43.1794 H         1 UNK         0.0600 
    164 H164        4.4239  -18.5167  -42.0371 H         1 UNK         0.3000 
    165 H165        1.3323  -18.5603  -40.2888 H         1 UNK         0.0600 
    166 H166        2.8205  -18.3811  -38.3132 H         1 UNK         0.0600 
    167 H167        2.7936  -20.0362  -38.8997 H         1 UNK         0.0600 
    168 H168        4.1810  -19.0100  -39.2435 H         1 UNK         0.0600 
    169 H169        3.5746  -16.7958  -40.1941 H         1 UNK         0.3000 
    170 H170        3.1015  -14.5542  -41.0728 H         1 UNK         0.0600 
    171 H171        4.2148  -15.7964  -43.6736 H         1 UNK         0.0600 
    172 H172        4.8716  -14.3864  -42.8511 H         1 UNK         0.0600 
    173 H173        4.9736  -15.9577  -42.0942 H         1 UNK         0.0600 
    174 H174        1.2731  -14.7930  -43.2152 H         1 UNK         0.3000 
    175 H175        1.2354  -11.3224  -44.0125 H         1 UNK         0.0600 
    176 H176        1.7477  -13.6361  -45.9473 H         1 UNK         0.0600 
    177 H177        1.0425  -12.0768  -46.3616 H         1 UNK         0.0600 
    178 H178        2.7119  -12.1720  -45.8215 H         1 UNK         0.0600 
    179 H179       -0.4947  -13.4180  -44.8442 H         1 UNK         0.3000 
    180 H180       -2.5812  -13.5948  -42.1037 H         1 UNK         0.0600 
    181 H181       -4.3375  -12.1518  -43.1141 H         1 UNK         0.0600 
    182 H182       -3.1201  -11.3051  -44.0700 H         1 UNK         0.0600 
    183 H183       -3.1199  -11.1719  -42.3157 H         1 UNK         0.0600 
    184 H184       -3.1491  -13.5892  -44.9485 H         1 UNK         0.3000 
    185 H185       -2.1181  -16.8896  -45.5735 H         1 UNK         0.0600 
    186 H186       -4.9681  -15.9437  -44.9437 H         1 UNK         0.0600 
    187 H187       -4.5760  -17.2644  -46.0340 H         1 UNK         0.0600 
    188 H188       -4.1931  -17.3970  -44.3248 H         1 UNK         0.0600 
    189 H189       -3.7272  -15.4062  -47.2162 H         1 UNK         0.3000 
    190 H190       -1.1584  -20.3597  -47.2490 H         1 UNK         0.3000 
    191 H191       -3.1236  -20.4982  -49.2699 H         1 UNK         0.0600 
    192 H192       -4.3876  -18.9823  -47.7316 H         1 UNK         0.0600 
    193 H193       -2.7117  -18.4938  -47.8991 H         1 UNK         0.0600 
    194 H194       -3.2395  -19.3303  -46.4432 H         1 UNK         0.0600 
    195 H195       -3.3545  -21.6594  -45.8283 H         1 UNK         0.3000 
    196 H196       -6.0255  -22.7359  -46.4395 H         1 UNK         0.0600 
    197 H197       -5.6833  -21.2531  -44.4754 H         1 UNK         0.0600 
    198 H198       -4.5609  -22.4165  -43.7736 H         1 UNK         0.0600 
    199 H199       -6.2502  -22.8456  -43.9966 H         1 UNK         0.0600 
    200 H200       -2.8965  -23.9674  -45.0963 H         1 UNK         0.3000 
    201 H201       -3.9998  -26.5850  -44.6110 H         1 UNK         0.0600 
    202 H202       -2.1334  -25.5808  -43.2521 H         1 UNK         0.0600 
    203 H203       -1.0436  -25.8137  -44.6200 H         1 UNK         0.0600 
    204 H204       -1.7897  -27.1960  -43.8489 H         1 UNK         0.0600 
    205 H205       -1.7594  -25.2990  -47.1125 H         1 UNK         0.3000 
    206 H206       -1.8966  -27.7658  -48.6987 H         1 UNK         0.0600 
    207 H207       -0.6469  -25.0443  -49.2926 H         1 UNK         0.0600 
    208 H208        0.1827  -26.4582  -48.6607 H         1 UNK         0.0600 
    209 H209       -0.4786  -26.4808  -50.2886 H         1 UNK         0.0600 
    210 H210       -3.9693  -25.1531  -48.2529 H         1 UNK         0.3000 
    211 H211       -5.8965  -24.4959  -49.0972 H         1 UNK         0.0600 
    212 H212       -5.9453  -27.1764  -50.5640 H         1 UNK         0.0600 
    213 H213       -7.3332  -26.1765  -50.1562 H         1 UNK         0.0600 
    214 H214       -6.3949  -26.9264  -48.8768 H         1 UNK         0.0600 
    215 H215       -3.6186  -23.5130  -50.5181 H         1 UNK         0.3000 
    216 H216       -4.5354  -23.2910  -53.3516 H         1 UNK         0.0600 
    217 H217       -2.1470  -22.5756  -53.7316 H         1 UNK         0.0600 
    218 H218       -2.3053  -24.2136  -53.1171 H         1 UNK         0.0600 
    219 H219       -1.8184  -22.9193  -52.0341 H         1 UNK         0.0600 
    220 H220       -5.2632  -21.6745  -50.6871 H         1 UNK         0.3000 
    221 H221       -4.6178  -19.0220  -50.8957 H         1 UNK         0.0600 
    222 H222       -7.3427  -20.2230  -50.1456 H         1 UNK         0.0600 
    223 H223       -5.9930  -19.9736  -49.0492 H         1 UNK         0.0600 
    224 H224       -6.8121  -18.5941  -49.7446 H         1 UNK         0.0600 
    225 H225       -6.9990  -20.7035  -52.9152 H         1 UNK         0.3000 
    226 H226       -8.2695  -18.4657  -54.1024 H         1 UNK         0.0600 
    227 H227       -9.1942  -20.7673  -54.1662 H         1 UNK         0.0600 
    228 H228       -9.0060  -20.1514  -55.7998 H         1 UNK         0.0600 
    229 H229       -7.8454  -21.3116  -55.1650 H         1 UNK         0.0600 
    230 H230       -5.1065  -19.8593  -54.7222 H         1 UNK         0.3000 
    231 H231       -4.7593  -18.3632  -57.2730 H         1 UNK         0.0600 
    232 H232       -2.6971  -19.7121  -57.4554 H         1 UNK         0.0600 
    233 H233       -4.0685  -20.7743  -57.1840 H         1 UNK         0.0600 
    234 H234       -2.9604  -20.4076  -55.8623 H         1 UNK         0.0600 
    235 H235       -4.5316  -17.7404  -54.0031 H         1 UNK         0.3000 
    236 H236       -3.3953  -16.4869  -52.5970 H         1 UNK         0.0600 
    237 H237       -2.5678  -14.8143  -55.0275 H         1 UNK         0.0600 
    238 H238       -4.0818  -14.6466  -54.1380 H         1 UNK         0.0600 
    239 H239       -2.5537  -14.2931  -53.3477 H         1 UNK         0.0600 
    240 H240       -2.1802  -18.8141  -53.1434 H         1 UNK         0.3000 
    241 H241        0.4854  -18.3568  -52.3316 H         1 UNK         0.0600 
    242 H242        0.2081  -22.1518  -51.8550 H         1 UNK         0.3800 
    243 H243        1.1856  -21.2829  -53.0178 H         1 UNK         0.3800 
    244 H244        0.7723  -18.1332  -54.8522 H         1 UNK         0.0800 
    245 H245        0.1423  -19.7383  -55.0439 H         1 UNK         0.0800 
    246 H246        4.4357  -18.5372  -53.8740 H         1 UNK         0.0800 
    247 H247        3.1251  -17.4646  -54.2986 H         1 UNK         0.0800 
@<TRIPOS>BOND
     1    1    2 1    
     2    1  127 1    
     3    1  128 1    
     4    1  129 1    
     5    2    3 2    
     6    2    4 am   BACKBONE|DICT|INTERRES
     7    4    5 1    
     8    4  130 1    
     9    5    6 1    
    10    5   65 1    
    11    5  131 1    
    12    6    7 1    
    13    6  132 1    
    14    6  133 1    
    15    7    8 1    
    16    8    9 1    
    17    8  134 1    
    18    8  135 1    
    19    9   10 ar   
    20    9   14 ar   
    21   10   11 ar   
    22   10  136 1    
    23   11   12 ar   
    24   11  126 1    
    25   12   13 ar   
    26   12  137 1    
    27   13   14 ar   
    28   13   15 1    
    29   14  138 1    
    30   15   16 1    
    31   15  139 1    
    32   15  140 1    
    33   16   17 1    
    34   17   18 1    
    35   17  141 1    
    36   17  142 1    
    37   18   19 1    
    38   18   67 1    
    39   18  143 1    
    40   19   20 am   BACKBONE|DICT|INTERRES
    41   19  144 1    
    42   20   21 2    
    43   20   22 1    
    44   22   23 1    
    45   22   24 1    
    46   22  145 1    
    47   23  146 1    
    48   23  147 1    
    49   23  148 1    
    50   24   25 am   BACKBONE|DICT|INTERRES
    51   24  149 1    
    52   25   26 2    
    53   25   27 1    
    54   27   28 1    
    55   27   29 1    
    56   27  150 1    
    57   28  151 1    
    58   28  152 1    
    59   28  153 1    
    60   29   30 am   BACKBONE|DICT|INTERRES
    61   29  154 1    
    62   30   31 2    
    63   30   32 1    
    64   32   33 1    
    65   32   34 1    
    66   32  155 1    
    67   33  156 1    
    68   33  157 1    
    69   33  158 1    
    70   34   35 am   BACKBONE|DICT|INTERRES
    71   34  159 1    
    72   35   36 2    
    73   35   37 1    
    74   37   38 1    
    75   37   39 1    
    76   37  160 1    
    77   38  161 1    
    78   38  162 1    
    79   38  163 1    
    80   39   40 am   BACKBONE|DICT|INTERRES
    81   39  164 1    
    82   40   41 2    
    83   40   42 1    
    84   42   43 1    
    85   42   44 1    
    86   42  165 1    
    87   43  166 1    
    88   43  167 1    
    89   43  168 1    
    90   44   45 am   BACKBONE|DICT|INTERRES
    91   44  169 1    
    92   45   46 2    
    93   45   47 1    
    94   47   48 1    
    95   47   49 1    
    96   47  170 1    
    97   48  171 1    
    98   48  172 1    
    99   48  173 1    
   100   49   50 am   BACKBONE|DICT|INTERRES
   101   49  174 1    
   102   50   51 2    
   103   50   52 1    
   104   52   53 1    
   105   52   54 1    
   106   52  175 1    
   107   53  176 1    
   108   53  177 1    
   109   53  178 1    
   110   54   55 am   BACKBONE|DICT|INTERRES
   111   54  179 1    
   112   55   56 2    
   113   55   57 1    
   114   57   58 1    
   115   57   59 1    
   116   57  180 1    
   117   58  181 1    
   118   58  182 1    
   119   58  183 1    
   120   59   60 am   BACKBONE|DICT|INTERRES
   121   59  184 1    
   122   60   61 2    
   123   60   62 1    
   124   62   63 1    
   125   62   64 1    
   126   62  185 1    
   127   63  186 1    
   128   63  187 1    
   129   63  188 1    
   130   64   65 am   BACKBONE|DICT|INTERRES
   131   64  189 1    
   132   65   66 2    
   133   67   68 2    
   134   67   69 am   BACKBONE|DICT|INTERRES
   135   69   70 1    
   136   69  190 1    
   137   70   71 1    
   138   70   72 1    
   139   70  191 1    
   140   71  192 1    
   141   71  193 1    
   142   71  194 1    
   143   72   73 2    
   144   72   74 am   BACKBONE|DICT|INTERRES
   145   74   75 1    
   146   74  195 1    
   147   75   76 1    
   148   75   77 1    
   149   75  196 1    
   150   76  197 1    
   151   76  198 1    
   152   76  199 1    
   153   77   78 2    
   154   77   79 am   BACKBONE|DICT|INTERRES
   155   79   80 1    
   156   79  200 1    
   157   80   81 1    
   158   80   82 1    
   159   80  201 1    
   160   81  202 1    
   161   81  203 1    
   162   81  204 1    
   163   82   83 2    
   164   82   84 am   BACKBONE|DICT|INTERRES
   165   84   85 1    
   166   84  205 1    
   167   85   86 1    
   168   85   87 1    
   169   85  206 1    
   170   86  207 1    
   171   86  208 1    
   172   86  209 1    
   173   87   88 2    
   174   87   89 am   BACKBONE|DICT|INTERRES
   175   89   90 1    
   176   89  210 1    
   177   90   91 1    
   178   90   92 1    
   179   90  211 1    
   180   91  212 1    
   181   91  213 1    
   182   91  214 1    
   183   92   93 2    
   184   92   94 am   BACKBONE|DICT|INTERRES
   185   94   95 1    
   186   94  215 1    
   187   95   96 1    
   188   95   97 1    
   189   95  216 1    
   190   96  217 1    
   191   96  218 1    
   192   96  219 1    
   193   97   98 2    
   194   97   99 am   BACKBONE|DICT|INTERRES
   195   99  100 1    
   196   99  220 1    
   197  100  101 1    
   198  100  102 1    
   199  100  221 1    
   200  101  222 1    
   201  101  223 1    
   202  101  224 1    
   203  102  103 2    
   204  102  104 am   BACKBONE|DICT|INTERRES
   205  104  105 1    
   206  104  225 1    
   207  105  106 1    
   208  105  107 1    
   209  105  226 1    
   210  106  227 1    
   211  106  228 1    
   212  106  229 1    
   213  107  108 2    
   214  107  109 am   BACKBONE|DICT|INTERRES
   215  109  110 1    
   216  109  230 1    
   217  110  111 1    
   218  110  112 1    
   219  110  231 1    
   220  111  232 1    
   221  111  233 1    
   222  111  234 1    
   223  112  113 2    
   224  112  114 am   BACKBONE|DICT|INTERRES
   225  114  115 1    
   226  114  235 1    
   227  115  116 1    
   228  115  117 1    
   229  115  236 1    
   230  116  237 1    
   231  116  238 1    
   232  116  239 1    
   233  117  118 2    
   234  117  119 am   BACKBONE|DICT|INTERRES
   235  119  120 1    
   236  119  240 1    
   237  120  121 1    
   238  120  124 1    
   239  120  241 1    
   240  121  122 am   BACKBONE|DICT|INTERRES
   241  121  123 2    
   242  122  242 1    
   243  122  243 1    
   244  124  125 1    
   245  124  244 1    
   246  124  245 1    
   247  125  126 1    
   248  126  246 1    
   249  126  247 1    
@<TRIPOS>SUBSTRUCTURE
     1 UNK         1 GROUP             0       ****    0 ROOT    
