@<TRIPOS>MOLECULE
3R540
247   249    1
SMALL
USER_CHARGES


@<TRIPOS>ATOM
      1 CA          2.5674  -16.0262  -46.8393 C.3       0 UNK        -0.1800 
      2 C           1.4708  -14.9908  -47.0395 C.2       0 UNK         0.5000 
      3 O           0.9753  -14.4273  -46.0663 O.2       0 UNK        -0.5000 
      4 N           1.1050  -14.7244  -48.2995 N.am      1 UNK        -0.5000 
      5 CA          0.0142  -13.8252  -48.7087 C.3       1 UNK         0.1400 
      6 C6         -0.2581  -13.9044  -50.2324 C.3       23 UNK        -0.0398 
      7 S7         -0.6626  -15.5964  -50.7779 S.3       23 UNK        -0.2404 
      8 C8          0.9134  -16.1383  -51.5071 C.3       23 UNK        -0.0205 
      9 C9          1.0519  -17.6496  -51.4287 C.ar      23 UNK        -0.0193 
     10 C10         0.4307  -18.4604  -52.3805 C.ar      23 UNK        -0.1150 
     11 C11         0.5445  -19.8526  -52.3153 C.ar      23 UNK        -0.0193 
     12 C12         1.2971  -20.4316  -51.2869 C.ar      23 UNK        -0.1150 
     13 C13         1.9451  -19.6295  -50.3399 C.ar      23 UNK        -0.0193 
     14 C14         1.8124  -18.2396  -50.4150 C.ar      23 UNK        -0.1150 
     15 C15         2.8400  -20.2558  -49.2746 C.3       23 UNK        -0.0205 
     16 S16         2.2521  -19.9629  -47.5739 S.3       23 UNK        -0.2404 
     17 C17         0.7965  -21.0544  -47.5104 C.3       23 UNK        -0.0398 
     18 CA          1.0620  -22.3872  -46.7713 C.3       11 UNK         0.1400 
     19 N           1.3324  -22.1973  -45.3398 N.am      11 UNK        -0.5000 
     20 C           1.7100  -23.1652  -44.4900 C.2       10 UNK         0.5000 
     21 O           1.9285  -24.3279  -44.8328 O.2       10 UNK        -0.5000 
     22 CA          1.8031  -22.7855  -43.0009 C.3       10 UNK         0.1400 
     23 CB          3.1317  -22.0832  -42.6801 C.3       10 UNK        -0.1800 
     24 N           0.6753  -21.9432  -42.5988 N.am      10 UNK        -0.5000 
     25 C          -0.5589  -22.4128  -42.3648 C.2       9 UNK         0.5000 
     26 O          -0.8332  -23.6125  -42.3491 O.2       9 UNK        -0.5000 
     27 CA         -1.6855  -21.3858  -42.1287 C.3       9 UNK         0.1400 
     28 CB         -1.8933  -21.1491  -40.6257 C.3       9 UNK        -0.1800 
     29 N          -1.4595  -20.1019  -42.7938 N.am      9 UNK        -0.5000 
     30 C          -1.4237  -19.9204  -44.1212 C.2       8 UNK         0.5000 
     31 O          -1.6372  -20.8186  -44.9323 O.2       8 UNK        -0.5000 
     32 CA         -1.0070  -18.5230  -44.6219 C.3       8 UNK         0.1400 
     33 CB         -2.2123  -17.5743  -44.6878 C.3       8 UNK        -0.1800 
     34 N           0.0509  -17.9306  -43.7983 N.am      8 UNK        -0.5000 
     35 C           1.2778  -18.4557  -43.6652 C.2       7 UNK         0.5000 
     36 O           1.6500  -19.4668  -44.2574 O.2       7 UNK        -0.5000 
     37 CA          2.2180  -17.7867  -42.6507 C.3       7 UNK         0.1400 
     38 CB          2.8919  -16.5502  -43.2584 C.3       7 UNK        -0.1800 
     39 N           1.4981  -17.4135  -41.4340 N.am      7 UNK        -0.5000 
     40 C           1.1442  -18.2877  -40.4800 C.2       6 UNK         0.5000 
     41 O           1.4474  -19.4805  -40.5072 O.2       6 UNK        -0.5000 
     42 CA          0.2859  -17.7558  -39.3135 C.3       6 UNK         0.1400 
     43 CB          1.1824  -17.2893  -38.1570 C.3       6 UNK        -0.1800 
     44 N          -0.6051  -16.6602  -39.6982 N.am      6 UNK        -0.5000 
     45 C          -1.6019  -16.7593  -40.5886 C.2       5 UNK         0.5000 
     46 O          -1.9272  -17.8164  -41.1260 O.2       5 UNK        -0.5000 
     47 CA         -2.3221  -15.4559  -40.9904 C.3       5 UNK         0.1400 
     48 CB         -3.6251  -15.2983  -40.1932 C.3       5 UNK        -0.1800 
     49 N          -1.5154  -14.2384  -40.8396 N.am      5 UNK        -0.5000 
     50 C          -0.3330  -14.0111  -41.4283 C.2       4 UNK         0.5000 
     51 O           0.2483  -14.8425  -42.1299 O.2       4 UNK        -0.5000 
     52 CA          0.3320  -12.6578  -41.1107 C.3       4 UNK         0.1400 
     53 CB          0.9342  -12.6823  -39.6960 C.3       4 UNK        -0.1800 
     54 N           1.3949  -12.3202  -42.0573 N.am      4 UNK        -0.5000 
     55 C           1.2110  -11.9989  -43.3438 C.2       3 UNK         0.5000 
     56 O           0.0979  -11.8585  -43.8584 O.2       3 UNK        -0.5000 
     57 CA          2.4916  -11.7592  -44.1675 C.3       3 UNK         0.1400 
     58 CB          3.5131  -12.9010  -44.0098 C.3       3 UNK        -0.1800 
     59 N           2.1755  -11.6327  -45.5875 N.am      3 UNK        -0.5000 
     60 C           2.2545  -10.5067  -46.3069 C.2       2 UNK         0.5000 
     61 O           2.5917   -9.4203  -45.8332 O.2       2 UNK        -0.5000 
     62 CA          1.9378  -10.5989  -47.8146 C.3       2 UNK         0.1400 
     63 CB          3.1683  -10.2079  -48.6506 C.3       2 UNK        -0.1800 
     64 N           1.5119  -11.9381  -48.2266 N.am      2 UNK        -0.5000 
     65 C           0.2409  -12.3554  -48.2913 C.2       1 UNK         0.5000 
     66 O          -0.7284  -11.6388  -48.0392 O.2       1 UNK        -0.5000 
     67 C          -0.0988  -23.3729  -47.0267 C.2       11 UNK         0.5000 
     68 O          -0.0444  -24.1215  -48.0030 O.2       11 UNK        -0.5000 
     69 N          -1.1012  -23.3909  -46.1330 N.am      12 UNK        -0.5000 
     70 CA         -2.3177  -24.2132  -46.1805 C.3       12 UNK         0.1400 
     71 CB         -3.2176  -23.8612  -44.9866 C.3       12 UNK        -0.1800 
     72 C          -2.1034  -25.7375  -46.2657 C.2       12 UNK         0.5000 
     73 O          -3.0467  -26.4521  -46.6059 O.2       12 UNK        -0.5000 
     74 N          -0.8762  -26.2111  -46.0086 N.am      13 UNK        -0.5000 
     75 CA         -0.4294  -27.5728  -46.3080 C.3       13 UNK         0.1400 
     76 CB          0.9853  -27.7660  -45.7421 C.3       13 UNK        -0.1800 
     77 C          -0.4591  -27.9028  -47.8180 C.2       13 UNK         0.5000 
     78 O          -0.6297  -29.0696  -48.1739 O.2       13 UNK        -0.5000 
     79 N          -0.3135  -26.8765  -48.6678 N.am      14 UNK        -0.5000 
     80 CA         -0.4551  -26.9477  -50.1191 C.3       14 UNK         0.1400 
     81 CB          0.8140  -26.3862  -50.7829 C.3       14 UNK        -0.1800 
     82 C          -1.7048  -26.1705  -50.5662 C.2       14 UNK         0.5000 
     83 O          -2.5832  -26.7522  -51.2037 O.2       14 UNK        -0.5000 
     84 N          -1.7689  -24.8806  -50.2139 N.am      15 UNK        -0.5000 
     85 CA         -2.8241  -23.9337  -50.5685 C.3       15 UNK         0.1400 
     86 CB         -2.8225  -23.6550  -52.0801 C.3       15 UNK        -0.1800 
     87 C          -2.5667  -22.6396  -49.7882 C.2       15 UNK         0.5000 
     88 O          -1.4492  -22.1305  -49.8442 O.2       15 UNK        -0.5000 
     89 N          -3.5729  -22.1635  -49.0421 N.am      16 UNK        -0.5000 
     90 CA         -3.4240  -21.1090  -48.0335 C.3       16 UNK         0.1400 
     91 CB         -4.7245  -20.9837  -47.2247 C.3       16 UNK        -0.1800 
     92 C          -2.9854  -19.7429  -48.5866 C.2       16 UNK         0.5000 
     93 O          -2.0387  -19.1577  -48.0619 O.2       16 UNK        -0.5000 
     94 N          -3.6829  -19.2621  -49.6208 N.am      17 UNK        -0.5000 
     95 CA         -3.4343  -17.9840  -50.2792 C.3       17 UNK         0.1400 
     96 CB         -3.7032  -16.8048  -49.3171 C.3       17 UNK        -0.1800 
     97 C          -4.3435  -17.8583  -51.5065 C.2       17 UNK         0.5000 
     98 O          -5.4438  -18.4162  -51.5032 O.2       17 UNK        -0.5000 
     99 N          -3.8801  -17.0682  -52.4853 N.am      18 UNK        -0.5000 
    100 CA        -4.5414  -16.6687  -53.7335 C.3       18 UNK         0.1400 
    101 CB        -5.8621  -15.9270  -53.4427 C.3       18 UNK        -0.1800 
    102 C         -4.7681  -17.8162  -54.7370 C.2       18 UNK         0.5000 
    103 O         -4.8196  -18.9910  -54.3696 O.2       18 UNK        -0.5000 
    104 N         -4.9448  -17.4417  -56.0119 N.am      19 UNK        -0.5000 
    105 CA        -5.1643  -18.3483  -57.1460 C.3       19 UNK         0.1400 
    106 CB        -5.2307  -17.5243  -58.4403 C.3       19 UNK        -0.1800 
    107 C         -6.4115  -19.2454  -57.0146 C.2       19 UNK         0.5000 
    108 O         -6.4405  -20.3269  -57.6019 O.2       19 UNK        -0.5000 
    109 N         -7.3932  -18.8076  -56.2136 N.am      20 UNK        -0.5000 
    110 CA        -8.5846  -19.5712  -55.8406 C.3       20 UNK         0.1400 
    111 CB        -9.5099  -18.6732  -55.0053 C.3       20 UNK        -0.1800 
    112 C         -8.2689  -20.8761  -55.0801 C.2       20 UNK         0.5000 
    113 O         -9.0252  -21.8399  -55.2096 O.2       20 UNK        -0.5000 
    114 N         -7.1619  -20.8913  -54.3244 N.am      21 UNK        -0.5000 
    115 CA        -6.6368  -22.0781  -53.6535 C.3       21 UNK         0.1400 
    116 CB        -6.2362  -21.7186  -52.2130 C.3       21 UNK        -0.1800 
    117 C         -5.4311  -22.6424  -54.4208 C.2       21 UNK         0.5000 
    118 O         -5.3565  -23.8546  -54.6228 O.2       21 UNK        -0.5000 
    119 N         -4.5007  -21.7604  -54.8091 N.am      22 UNK        -0.5000 
    120 CA        -3.2100  -22.1135  -55.4201 C.3       22 UNK         0.1400 
    121 C         -3.2883  -22.6128  -56.8921 C.2       22 UNK         0.5000 
    122 N         -4.3655  -22.3788  -57.6307 N.am      22 UNK        -0.7600 
    123 O         -2.3468  -23.2359  -57.3748 O.2       22 UNK        -0.5000 
    124 C124       -2.1813  -20.9608  -55.2896 C.3       23 UNK        -0.0398 
    125 S125       -1.8795  -20.4326  -53.5632 S.3       23 UNK        -0.2404 
    126 C126       -0.0869  -20.7180  -53.3985 C.3       23 UNK        -0.0205 
    127 H127        2.1675  -16.8984  -46.3217 H         1 UNK         0.0600 
    128 H128        2.9924  -16.3583  -47.7860 H         1 UNK         0.0600 
    129 H129        3.3735  -15.6069  -46.2379 H         1 UNK         0.0600 
    130 H130        1.5427  -15.2344  -49.0511 H         1 UNK         0.3000 
    131 H131       -0.8853  -14.1633  -48.1892 H         1 UNK         0.0600 
    132 H132        0.5915  -13.5263  -50.8040 H         1 UNK         0.0800 
    133 H133       -1.1054  -13.2691  -50.4971 H         1 UNK         0.0800 
    134 H134        1.7533  -15.6630  -50.9996 H         1 UNK         0.0800 
    135 H135        0.9605  -15.8103  -52.5467 H         1 UNK         0.0800 
    136 H136       -0.1434  -18.0069  -53.1762 H         1 UNK         0.1150 
    137 H137        1.3992  -21.5067  -51.2391 H         1 UNK         0.1150 
    138 H138        2.3119  -17.6200  -49.6852 H         1 UNK         0.1150 
    139 H139        2.9456  -21.3298  -49.4362 H         1 UNK         0.0800 
    140 H140        3.8416  -19.8351  -49.3716 H         1 UNK         0.0800 
    141 H141        0.4718  -21.2357  -48.5338 H         1 UNK         0.0800 
    142 H142       -0.0177  -20.5108  -47.0334 H         1 UNK         0.0800 
    143 H143        1.9541  -22.8405  -47.2084 H         1 UNK         0.0600 
    144 H144        1.2391  -21.2493  -44.9865 H         1 UNK         0.3000 
    145 H145        1.7722  -23.7085  -42.4177 H         1 UNK         0.0600 
    146 H146        3.1825  -21.7970  -41.6293 H         1 UNK         0.0600 
    147 H147        3.9749  -22.7456  -42.8789 H         1 UNK         0.0600 
    148 H148        3.2791  -21.1851  -43.2783 H         1 UNK         0.0600 
    149 H149        0.8300  -20.9443  -42.5918 H         1 UNK         0.3000 
    150 H150       -2.6054  -21.8111  -42.5350 H         1 UNK         0.0600 
    151 H151       -2.1093  -22.0850  -40.1088 H         1 UNK         0.0600 
    152 H152       -2.7315  -20.4763  -40.4438 H         1 UNK         0.0600 
    153 H153       -1.0078  -20.7148  -40.1618 H         1 UNK         0.0600 
    154 H154       -1.3566  -19.2900  -42.1910 H         1 UNK         0.3000 
    155 H155       -0.6126  -18.6352  -45.6338 H         1 UNK         0.0600 
    156 H156       -2.6754  -17.4370  -43.7109 H         1 UNK         0.0600 
    157 H157       -2.9753  -17.9685  -45.3605 H         1 UNK         0.0600 
    158 H158       -1.9219  -16.5938  -45.0660 H         1 UNK         0.0600 
    159 H159       -0.1804  -17.0986  -43.2736 H         1 UNK         0.3000 
    160 H160        3.0018  -18.5011  -42.3891 H         1 UNK         0.0600 
    161 H161        3.5001  -16.0242  -42.5226 H         1 UNK         0.0600 
    162 H162        2.1573  -15.8484  -43.6534 H         1 UNK         0.0600 
    163 H163        3.5489  -16.8356  -44.0802 H         1 UNK         0.0600 
    164 H164        1.1588  -16.4582  -41.3882 H         1 UNK         0.3000 
    165 H165       -0.3334  -18.5810  -38.9559 H         1 UNK         0.0600 
    166 H166        0.5887  -16.9878  -37.2939 H         1 UNK         0.0600 
    167 H167        1.8458  -18.0910  -37.8295 H         1 UNK         0.0600 
    168 H168        1.8073  -16.4439  -38.4479 H         1 UNK         0.0600 
    169 H169       -0.4059  -15.7527  -39.3050 H         1 UNK         0.3000 
    170 H170       -2.5785  -15.5447  -42.0478 H         1 UNK         0.0600 
    171 H171       -4.2614  -16.1774  -40.3060 H         1 UNK         0.0600 
    172 H172       -3.4314  -15.1678  -39.1278 H         1 UNK         0.0600 
    173 H173       -4.1990  -14.4384  -40.5393 H         1 UNK         0.0600 
    174 H174       -1.9136  -13.5140  -40.2593 H         1 UNK         0.3000 
    175 H175       -0.4314  -11.8785  -41.1580 H         1 UNK         0.0600 
    176 H176        1.6980  -13.4549  -39.5969 H         1 UNK         0.0600 
    177 H177        1.3918  -11.7249  -39.4457 H         1 UNK         0.0600 
    178 H178        0.1701  -12.8782  -38.9428 H         1 UNK         0.0600 
    179 H179        2.3389  -12.4313  -41.7193 H         1 UNK         0.3000 
    180 H180        2.9468  -10.8410  -43.7912 H         1 UNK         0.0600 
    181 H181        3.0981  -13.8520  -44.3393 H         1 UNK         0.0600 
    182 H182        3.8382  -13.0196  -42.9761 H         1 UNK         0.0600 
    183 H183        4.4071  -12.7090  -44.6033 H         1 UNK         0.0600 
    184 H184        1.7772  -12.4616  -46.0137 H         1 UNK         0.3000 
    185 H185        1.1452   -9.8776  -48.0239 H         1 UNK         0.0600 
    186 H186        3.4976   -9.1947  -48.4163 H         1 UNK         0.0600 
    187 H187        4.0094  -10.8774  -48.4665 H         1 UNK         0.0600 
    188 H188        2.9446  -10.2347  -49.7173 H         1 UNK         0.0600 
    189 H189        2.2453  -12.5995  -48.4375 H         1 UNK         0.3000 
    190 H190       -1.0841  -22.6790  -45.4096 H         1 UNK         0.3000 
    191 H191       -2.8507  -23.9365  -47.0889 H         1 UNK         0.0600 
    192 H192       -2.7565  -24.1442  -44.0414 H         1 UNK         0.0600 
    193 H193       -4.1734  -24.3827  -45.0505 H         1 UNK         0.0600 
    194 H194       -3.4368  -22.7946  -44.9504 H         1 UNK         0.0600 
    195 H195       -0.1616  -25.5541  -45.7253 H         1 UNK         0.3000 
    196 H196       -1.1023  -28.2684  -45.8024 H         1 UNK         0.0600 
    197 H197        1.6970  -27.0757  -46.1973 H         1 UNK         0.0600 
    198 H198        1.3453  -28.7792  -45.9249 H         1 UNK         0.0600 
    199 H199        1.0048  -27.6032  -44.6643 H         1 UNK         0.0600 
    200 H200       -0.1934  -25.9424  -48.2833 H         1 UNK         0.3000 
    201 H201       -0.5745  -27.9831  -50.4448 H         1 UNK         0.0600 
    202 H202        1.0169  -25.3599  -50.4739 H         1 UNK         0.0600 
    203 H203        0.7215  -26.3914  -51.8696 H         1 UNK         0.0600 
    204 H204        1.6864  -26.9878  -50.5276 H         1 UNK         0.0600 
    205 H205       -1.0220  -24.4791  -49.6509 H         1 UNK         0.3000 
    206 H206       -3.7898  -24.3497  -50.2748 H         1 UNK         0.0600 
    207 H207       -3.4669  -22.8094  -52.3140 H         1 UNK         0.0600 
    208 H208       -1.8231  -23.4090  -52.4402 H         1 UNK         0.0600 
    209 H209       -3.1857  -24.5102  -52.6495 H         1 UNK         0.0600 
    210 H210       -4.4698  -22.6254  -49.0741 H         1 UNK         0.3000 
    211 H211       -2.6413  -21.4308  -47.3461 H         1 UNK         0.0600 
    212 H212       -5.5650  -20.6869  -47.8531 H         1 UNK         0.0600 
    213 H213       -4.6203  -20.2355  -46.4376 H         1 UNK         0.0600 
    214 H214       -4.9829  -21.9259  -46.7417 H         1 UNK         0.0600 
    215 H215       -4.4491  -19.7941  -50.0123 H         1 UNK         0.3000 
    216 H216       -2.3941  -17.9707  -50.6100 H         1 UNK         0.0600 
    217 H217       -3.6409  -15.8484  -49.8376 H         1 UNK         0.0600 
    218 H218       -2.9750  -16.7673  -48.5074 H         1 UNK         0.0600 
    219 H219       -4.6972  -16.8703  -48.8733 H         1 UNK         0.0600 
    220 H220       -2.9528  -16.6855  -52.3647 H         1 UNK         0.3000 
    221 H221       -3.8587  -15.9621  -54.2079 H         1 UNK         0.0600 
    222 H222       -6.6221  -16.5925  -53.0321 H         1 UNK         0.0600 
    223 H223       -5.7096  -15.1145  -52.7321 H         1 UNK         0.0600 
    224 H224       -6.2752  -15.4869  -54.3508 H         1 UNK         0.0600 
    225 H225       -4.9052  -16.4579  -56.2369 H         1 UNK         0.3000 
    226 H226       -4.2992  -19.0111  -57.2087 H         1 UNK         0.0600 
    227 H227       -4.3109  -16.9608  -58.5979 H         1 UNK         0.0600 
    228 H228       -5.3660  -18.1704  -59.3089 H         1 UNK         0.0600 
    229 H229       -6.0610  -16.8172  -58.4246 H         1 UNK         0.0600 
    230 H230       -7.2786  -17.9067  -55.7743 H         1 UNK         0.3000 
    231 H231       -9.1066  -19.8436  -56.7602 H         1 UNK         0.0600 
    232 H232       -9.8084  -17.7854  -55.5632 H         1 UNK         0.0600 
    233 H233       -9.0269  -18.3455  -54.0837 H         1 UNK         0.0600 
    234 H234      -10.4221  -19.2030  -54.7277 H         1 UNK         0.0600 
    235 H235       -6.5757  -20.0641  -54.2934 H         1 UNK         0.3000 
    236 H236       -7.3990  -22.8583  -53.6013 H         1 UNK         0.0600 
    237 H237       -5.9129  -22.6052  -51.6668 H         1 UNK         0.0600 
    238 H238       -5.4154  -21.0010  -52.1896 H         1 UNK         0.0600 
    239 H239       -7.0737  -21.2856  -51.6660 H         1 UNK         0.0600 
    240 H240       -4.6232  -20.7747  -54.5859 H         1 UNK         0.3000 
    241 H241       -2.8125  -22.9574  -54.8542 H         1 UNK         0.0600 
    242 H242       -4.3917  -22.7214  -58.5776 H         1 UNK         0.3800 
    243 H243       -5.1403  -21.8227  -57.2876 H         1 UNK         0.3800 
    244 H244       -1.2339  -21.2532  -55.7448 H         1 UNK         0.0800 
    245 H245       -2.5231  -20.0884  -55.8479 H         1 UNK         0.0800 
    246 H246        0.0839  -21.7776  -53.2033 H         1 UNK         0.0800 
    247 H247        0.4139  -20.4873  -54.3394 H         1 UNK         0.0800 
@<TRIPOS>BOND
     1    1    2 1    
     2    1  127 1    
     3    1  128 1    
     4    1  129 1    
     5    2    3 2    
     6    2    4 am   BACKBONE|DICT|INTERRES
     7    4    5 1    
     8    4  130 1    
     9    5    6 1    
    10    5   65 1    
    11    5  131 1    
    12    6    7 1    
    13    6  132 1    
    14    6  133 1    
    15    7    8 1    
    16    8    9 1    
    17    8  134 1    
    18    8  135 1    
    19    9   10 ar   
    20    9   14 ar   
    21   10   11 ar   
    22   10  136 1    
    23   11   12 ar   
    24   11  126 1    
    25   12   13 ar   
    26   12  137 1    
    27   13   14 ar   
    28   13   15 1    
    29   14  138 1    
    30   15   16 1    
    31   15  139 1    
    32   15  140 1    
    33   16   17 1    
    34   17   18 1    
    35   17  141 1    
    36   17  142 1    
    37   18   19 1    
    38   18   67 1    
    39   18  143 1    
    40   19   20 am   BACKBONE|DICT|INTERRES
    41   19  144 1    
    42   20   21 2    
    43   20   22 1    
    44   22   23 1    
    45   22   24 1    
    46   22  145 1    
    47   23  146 1    
    48   23  147 1    
    49   23  148 1    
    50   24   25 am   BACKBONE|DICT|INTERRES
    51   24  149 1    
    52   25   26 2    
    53   25   27 1    
    54   27   28 1    
    55   27   29 1    
    56   27  150 1    
    57   28  151 1    
    58   28  152 1    
    59   28  153 1    
    60   29   30 am   BACKBONE|DICT|INTERRES
    61   29  154 1    
    62   30   31 2    
    63   30   32 1    
    64   32   33 1    
    65   32   34 1    
    66   32  155 1    
    67   33  156 1    
    68   33  157 1    
    69   33  158 1    
    70   34   35 am   BACKBONE|DICT|INTERRES
    71   34  159 1    
    72   35   36 2    
    73   35   37 1    
    74   37   38 1    
    75   37   39 1    
    76   37  160 1    
    77   38  161 1    
    78   38  162 1    
    79   38  163 1    
    80   39   40 am   BACKBONE|DICT|INTERRES
    81   39  164 1    
    82   40   41 2    
    83   40   42 1    
    84   42   43 1    
    85   42   44 1    
    86   42  165 1    
    87   43  166 1    
    88   43  167 1    
    89   43  168 1    
    90   44   45 am   BACKBONE|DICT|INTERRES
    91   44  169 1    
    92   45   46 2    
    93   45   47 1    
    94   47   48 1    
    95   47   49 1    
    96   47  170 1    
    97   48  171 1    
    98   48  172 1    
    99   48  173 1    
   100   49   50 am   BACKBONE|DICT|INTERRES
   101   49  174 1    
   102   50   51 2    
   103   50   52 1    
   104   52   53 1    
   105   52   54 1    
   106   52  175 1    
   107   53  176 1    
   108   53  177 1    
   109   53  178 1    
   110   54   55 am   BACKBONE|DICT|INTERRES
   111   54  179 1    
   112   55   56 2    
   113   55   57 1    
   114   57   58 1    
   115   57   59 1    
   116   57  180 1    
   117   58  181 1    
   118   58  182 1    
   119   58  183 1    
   120   59   60 am   BACKBONE|DICT|INTERRES
   121   59  184 1    
   122   60   61 2    
   123   60   62 1    
   124   62   63 1    
   125   62   64 1    
   126   62  185 1    
   127   63  186 1    
   128   63  187 1    
   129   63  188 1    
   130   64   65 am   BACKBONE|DICT|INTERRES
   131   64  189 1    
   132   65   66 2    
   133   67   68 2    
   134   67   69 am   BACKBONE|DICT|INTERRES
   135   69   70 1    
   136   69  190 1    
   137   70   71 1    
   138   70   72 1    
   139   70  191 1    
   140   71  192 1    
   141   71  193 1    
   142   71  194 1    
   143   72   73 2    
   144   72   74 am   BACKBONE|DICT|INTERRES
   145   74   75 1    
   146   74  195 1    
   147   75   76 1    
   148   75   77 1    
   149   75  196 1    
   150   76  197 1    
   151   76  198 1    
   152   76  199 1    
   153   77   78 2    
   154   77   79 am   BACKBONE|DICT|INTERRES
   155   79   80 1    
   156   79  200 1    
   157   80   81 1    
   158   80   82 1    
   159   80  201 1    
   160   81  202 1    
   161   81  203 1    
   162   81  204 1    
   163   82   83 2    
   164   82   84 am   BACKBONE|DICT|INTERRES
   165   84   85 1    
   166   84  205 1    
   167   85   86 1    
   168   85   87 1    
   169   85  206 1    
   170   86  207 1    
   171   86  208 1    
   172   86  209 1    
   173   87   88 2    
   174   87   89 am   BACKBONE|DICT|INTERRES
   175   89   90 1    
   176   89  210 1    
   177   90   91 1    
   178   90   92 1    
   179   90  211 1    
   180   91  212 1    
   181   91  213 1    
   182   91  214 1    
   183   92   93 2    
   184   92   94 am   BACKBONE|DICT|INTERRES
   185   94   95 1    
   186   94  215 1    
   187   95   96 1    
   188   95   97 1    
   189   95  216 1    
   190   96  217 1    
   191   96  218 1    
   192   96  219 1    
   193   97   98 2    
   194   97   99 am   BACKBONE|DICT|INTERRES
   195   99  100 1    
   196   99  220 1    
   197  100  101 1    
   198  100  102 1    
   199  100  221 1    
   200  101  222 1    
   201  101  223 1    
   202  101  224 1    
   203  102  103 2    
   204  102  104 am   BACKBONE|DICT|INTERRES
   205  104  105 1    
   206  104  225 1    
   207  105  106 1    
   208  105  107 1    
   209  105  226 1    
   210  106  227 1    
   211  106  228 1    
   212  106  229 1    
   213  107  108 2    
   214  107  109 am   BACKBONE|DICT|INTERRES
   215  109  110 1    
   216  109  230 1    
   217  110  111 1    
   218  110  112 1    
   219  110  231 1    
   220  111  232 1    
   221  111  233 1    
   222  111  234 1    
   223  112  113 2    
   224  112  114 am   BACKBONE|DICT|INTERRES
   225  114  115 1    
   226  114  235 1    
   227  115  116 1    
   228  115  117 1    
   229  115  236 1    
   230  116  237 1    
   231  116  238 1    
   232  116  239 1    
   233  117  118 2    
   234  117  119 am   BACKBONE|DICT|INTERRES
   235  119  120 1    
   236  119  240 1    
   237  120  121 1    
   238  120  124 1    
   239  120  241 1    
   240  121  122 am   BACKBONE|DICT|INTERRES
   241  121  123 2    
   242  122  242 1    
   243  122  243 1    
   244  124  125 1    
   245  124  244 1    
   246  124  245 1    
   247  125  126 1    
   248  126  246 1    
   249  126  247 1    
@<TRIPOS>SUBSTRUCTURE
     1 UNK         1 GROUP             0       ****    0 ROOT    
