@<TRIPOS>MOLECULE
3R540
247   249    1
SMALL
USER_CHARGES


@<TRIPOS>ATOM
      1 CA         -4.3228  -13.8004  -51.3359 C.3       0 UNK        -0.1800 
      2 C          -3.2537  -14.3544  -50.4052 C.2       0 UNK         0.5000 
      3 O          -3.2627  -15.5481  -50.1229 O.2       0 UNK        -0.5000 
      4 N          -2.3597  -13.4805  -49.9210 N.am      1 UNK        -0.5000 
      5 CA         -1.1639  -13.6951  -49.0828 C.3       1 UNK         0.1400 
      6 C6          0.0388  -14.3260  -49.8388 C.3       23 UNK        -0.0398 
      7 S7         -0.0126  -16.1360  -50.0894 S.3       23 UNK        -0.2404 
      8 C8          1.7439  -16.5705  -49.9061 C.3       23 UNK        -0.0205 
      9 C9          2.0531  -17.9526  -50.4656 C.ar      23 UNK        -0.0193 
     10 C10         1.9103  -18.1946  -51.8354 C.ar      23 UNK        -0.1150 
     11 C11         2.2523  -19.4344  -52.3816 C.ar      23 UNK        -0.0193 
     12 C12         2.7484  -20.4372  -51.5453 C.ar      23 UNK        -0.1150 
     13 C13         2.8971  -20.2109  -50.1734 C.ar      23 UNK        -0.0193 
     14 C14         2.5386  -18.9695  -49.6360 C.ar      23 UNK        -0.1150 
     15 C15         3.4946  -21.2974  -49.2924 C.3       23 UNK        -0.0205 
     16 S16         2.2583  -22.5373  -48.8037 S.3       23 UNK        -0.2404 
     17 C17         1.5525  -21.7602  -47.3143 C.3       23 UNK        -0.0398 
     18 CA          0.5716  -22.7072  -46.5817 C.3       11 UNK         0.1400 
     19 N           0.4475  -22.3968  -45.1550 N.am      11 UNK        -0.5000 
     20 C          -0.2244  -23.1481  -44.2692 C.2       10 UNK         0.5000 
     21 O          -0.7640  -24.2182  -44.5493 O.2       10 UNK        -0.5000 
     22 CA         -0.3675  -22.5847  -42.8448 C.3       10 UNK         0.1400 
     23 CB          0.9046  -22.8375  -42.0225 C.3       10 UNK        -0.1800 
     24 N          -0.6854  -21.1570  -42.8423 N.am      10 UNK        -0.5000 
     25 C          -1.8111  -20.6285  -43.3439 C.2       9 UNK         0.5000 
     26 O          -2.7353  -21.3013  -43.8015 O.2       9 UNK        -0.5000 
     27 CA         -1.8949  -19.0905  -43.3831 C.3       9 UNK         0.1400 
     28 CB         -2.2799  -18.5366  -42.0028 C.3       9 UNK        -0.1800 
     29 N          -0.6466  -18.4735  -43.8394 N.am      9 UNK        -0.5000 
     30 C          -0.1042  -18.6615  -45.0517 C.2       8 UNK         0.5000 
     31 O          -0.6289  -19.3307  -45.9391 O.2       8 UNK        -0.5000 
     32 CA          1.2858  -18.0541  -45.3002 C.3       8 UNK         0.1400 
     33 CB          1.1860  -16.5814  -45.7214 C.3       8 UNK        -0.1800 
     34 N           2.1496  -18.1877  -44.1281 N.am      8 UNK        -0.5000 
     35 C           2.6553  -19.3545  -43.7023 C.2       7 UNK         0.5000 
     36 O           2.4802  -20.4251  -44.2834 O.2       7 UNK        -0.5000 
     37 CA          3.4494  -19.3271  -42.3837 C.3       7 UNK         0.1400 
     38 CB          4.9029  -18.8995  -42.6354 C.3       7 UNK        -0.1800 
     39 N           2.8474  -18.4391  -41.3888 N.am      7 UNK        -0.5000 
     40 C           1.6525  -18.6416  -40.8150 C.2       6 UNK         0.5000 
     41 O           0.9620  -19.6395  -41.0149 O.2       6 UNK        -0.5000 
     42 CA          1.1176  -17.5169  -39.9074 C.3       6 UNK         0.1400 
     43 CB          1.5506  -17.7468  -38.4521 C.3       6 UNK        -0.1800 
     44 N           1.5440  -16.1816  -40.3370 N.am      6 UNK        -0.5000 
     45 C           1.2131  -15.6185  -41.5062 C.2       5 UNK         0.5000 
     46 O           0.4883  -16.1561  -42.3466 O.2       5 UNK        -0.5000 
     47 CA          1.8704  -14.2705  -41.8162 C.3       5 UNK         0.1400 
     48 CB          3.3024  -14.4914  -42.3437 C.3       5 UNK        -0.1800 
     49 N           1.0774  -13.5537  -42.8101 N.am      5 UNK        -0.5000 
     50 C           1.1809  -12.2446  -43.0674 C.2       4 UNK         0.5000 
     51 O           1.9402  -11.4892  -42.4582 O.2       4 UNK        -0.5000 
     52 CA          0.3083  -11.6707  -44.1975 C.3       4 UNK         0.1400 
     53 CB          1.0953  -11.6562  -45.5174 C.3       4 UNK        -0.1800 
     54 N          -0.9612  -12.3773  -44.3898 N.am      4 UNK        -0.5000 
     55 C          -2.0126  -12.2618  -43.5635 C.2       3 UNK         0.5000 
     56 O          -1.9714  -11.6284  -42.5076 O.2       3 UNK        -0.5000 
     57 CA         -3.3488  -12.9097  -43.9840 C.3       3 UNK         0.1400 
     58 CB         -4.3718  -11.8263  -44.3624 C.3       3 UNK        -0.1800 
     59 N          -3.2274  -13.8380  -45.1069 N.am      3 UNK        -0.5000 
     60 C          -2.8327  -15.1120  -44.9996 C.2       2 UNK         0.5000 
     61 O          -2.5510  -15.6466  -43.9297 O.2       2 UNK        -0.5000 
     62 CA         -2.7295  -15.9246  -46.3056 C.3       2 UNK         0.1400 
     63 CB         -4.0319  -16.7012  -46.5466 C.3       2 UNK        -0.1800 
     64 N          -2.4253  -15.1414  -47.5074 N.am      2 UNK        -0.5000 
     65 C          -1.3819  -14.3234  -47.6863 C.2       1 UNK         0.5000 
     66 O          -0.6005  -14.0289  -46.7833 O.2       1 UNK        -0.5000 
     67 C          -0.8031  -22.7452  -47.2770 C.2       11 UNK         0.5000 
     68 O          -1.0981  -23.7116  -47.9773 O.2       11 UNK        -0.5000 
     69 N          -1.6353  -21.7246  -47.0291 N.am      12 UNK        -0.5000 
     70 CA         -3.0047  -21.6084  -47.5284 C.3       12 UNK         0.1400 
     71 CB         -3.5938  -20.2634  -47.0850 C.3       12 UNK        -0.1800 
     72 C          -3.9089  -22.7786  -47.1116 C.2       12 UNK         0.5000 
     73 O          -4.6589  -23.2854  -47.9447 O.2       12 UNK        -0.5000 
     74 N          -3.7917  -23.2132  -45.8507 N.am      13 UNK        -0.5000 
     75 CA         -4.4886  -24.3832  -45.3205 C.3       13 UNK         0.1400 
     76 CB         -4.3390  -24.4141  -43.7917 C.3       13 UNK        -0.1800 
     77 C          -4.0032  -25.7059  -45.9464 C.2       13 UNK         0.5000 
     78 O          -4.8281  -26.5665  -46.2556 O.2       13 UNK        -0.5000 
     79 N          -2.6815  -25.8490  -46.1108 N.am      14 UNK        -0.5000 
     80 CA         -2.0379  -27.0620  -46.6121 C.3       14 UNK         0.1400 
     81 CB         -0.5556  -27.0551  -46.2047 C.3       14 UNK        -0.1800 
     82 C          -2.1784  -27.2498  -48.1331 C.2       14 UNK         0.5000 
     83 O          -2.5728  -28.3291  -48.5771 O.2       14 UNK        -0.5000 
     84 N          -1.8172  -26.2174  -48.9048 N.am      15 UNK        -0.5000 
     85 CA         -1.6903  -26.2807  -50.3624 C.3       15 UNK         0.1400 
     86 CB         -0.5572  -25.3393  -50.8036 C.3       15 UNK        -0.1800 
     87 C          -2.9880  -25.9281  -51.1072 C.2       15 UNK         0.5000 
     88 O          -3.0802  -26.2105  -52.3028 O.2       15 UNK        -0.5000 
     89 N          -3.9460  -25.2933  -50.4155 N.am      16 UNK        -0.5000 
     90 CA         -5.2399  -24.7863  -50.8939 C.3       16 UNK         0.1400 
     91 CB         -6.1205  -25.9090  -51.4757 C.3       16 UNK        -0.1800 
     92 C          -5.1180  -23.5979  -51.8673 C.2       16 UNK         0.5000 
     93 O          -5.7081  -22.5485  -51.6159 O.2       16 UNK        -0.5000 
     94 N          -4.3315  -23.7558  -52.9404 N.am      17 UNK        -0.5000 
     95 CA         -4.0723  -22.7376  -53.9643 C.3       17 UNK         0.1400 
     96 CB         -3.2406  -23.3594  -55.0954 C.3       17 UNK        -0.1800 
     97 C          -3.3711  -21.4845  -53.4088 C.2       17 UNK         0.5000 
     98 O          -3.6238  -20.3749  -53.8813 O.2       17 UNK        -0.5000 
     99 N          -2.5425  -21.6737  -52.3737 N.am      18 UNK        -0.5000 
    100 CA        -1.8542  -20.6096  -51.6437 C.3       18 UNK         0.1400 
    101 CB        -0.8136  -21.2297  -50.7021 C.3       18 UNK        -0.1800 
    102 C         -2.7990  -19.6436  -50.9010 C.2       18 UNK         0.5000 
    103 O         -2.3712  -18.5406  -50.5809 O.2       18 UNK        -0.5000 
    104 N         -4.0750  -20.0167  -50.7041 N.am      19 UNK        -0.5000 
    105 CA        -5.1231  -19.1233  -50.1950 C.3       19 UNK         0.1400 
    106 CB        -6.3519  -19.9562  -49.7979 C.3       19 UNK        -0.1800 
    107 C         -5.5252  -18.0169  -51.1944 C.2       19 UNK         0.5000 
    108 O         -6.1567  -17.0404  -50.7901 O.2       19 UNK        -0.5000 
    109 N         -5.1593  -18.1897  -52.4711 N.am      20 UNK        -0.5000 
    110 CA        -5.3011  -17.2076  -53.5437 C.3       20 UNK         0.1400 
    111 CB        -6.1384  -17.8390  -54.6698 C.3       20 UNK        -0.1800 
    112 C         -3.9199  -16.7452  -54.0545 C.2       20 UNK         0.5000 
    113 O         -3.8425  -16.1712  -55.1409 O.2       20 UNK        -0.5000 
    114 N         -2.8576  -17.0102  -53.2765 N.am      21 UNK        -0.5000 
    115 CA        -1.4440  -16.7615  -53.5791 C.3       21 UNK         0.1400 
    116 CB        -1.1474  -15.2493  -53.6575 C.3       21 UNK        -0.1800 
    117 C         -0.9129  -17.5484  -54.7991 C.2       21 UNK         0.5000 
    118 O          0.0178  -17.0903  -55.4648 O.2       21 UNK        -0.5000 
    119 N         -1.4840  -18.7363  -55.0396 N.am      22 UNK        -0.5000 
    120 CA        -1.1209  -19.6962  -56.0964 C.3       22 UNK         0.1400 
    121 C         -1.4782  -19.2155  -57.5374 C.2       22 UNK         0.5000 
    122 N         -1.0832  -19.9490  -58.5708 N.am      22 UNK        -0.7600 
    123 O         -2.1496  -18.2071  -57.7431 O.2       22 UNK        -0.5000 
    124 C124        0.3373  -20.2347  -55.9758 C.3       23 UNK        -0.0398 
    125 S125        0.7681  -20.8019  -54.2913 S.3       23 UNK        -0.2404 
    126 C126        2.1325  -19.6678  -53.8796 C.3       23 UNK        -0.0205 
    127 H127       -4.1521  -14.1549  -52.3521 H         1 UNK         0.0600 
    128 H128       -4.3254  -12.7103  -51.3500 H         1 UNK         0.0600 
    129 H129       -5.3092  -14.1390  -51.0181 H         1 UNK         0.0600 
    130 H130       -2.4841  -12.5142  -50.1889 H         1 UNK         0.3000 
    131 H131       -0.8537  -12.6734  -48.8566 H         1 UNK         0.0600 
    132 H132        0.9551  -14.0837  -49.2976 H         1 UNK         0.0800 
    133 H133        0.1483  -13.8545  -50.8160 H         1 UNK         0.0800 
    134 H134        2.0195  -16.5035  -48.8527 H         1 UNK         0.0800 
    135 H135        2.3556  -15.8389  -50.4360 H         1 UNK         0.0800 
    136 H136        1.5487  -17.4048  -52.4786 H         1 UNK         0.1150 
    137 H137        3.0276  -21.3933  -51.9655 H         1 UNK         0.1150 
    138 H138        2.6657  -18.7867  -48.5785 H         1 UNK         0.1150 
    139 H139        4.2932  -21.8020  -49.8382 H         1 UNK         0.0800 
    140 H140        3.9649  -20.8646  -48.4081 H         1 UNK         0.0800 
    141 H141        1.0840  -20.8100  -47.5777 H         1 UNK         0.0800 
    142 H142        2.3883  -21.5163  -46.6583 H         1 UNK         0.0800 
    143 H143        0.9822  -23.7184  -46.6274 H         1 UNK         0.0600 
    144 H144        0.9058  -21.5516  -44.8307 H         1 UNK         0.3000 
    145 H145       -1.1936  -23.1106  -42.3616 H         1 UNK         0.0600 
    146 H146        0.7783  -22.5072  -40.9914 H         1 UNK         0.0600 
    147 H147        1.7655  -22.3134  -42.4374 H         1 UNK         0.0600 
    148 H148        1.1475  -23.9005  -41.9966 H         1 UNK         0.0600 
    149 H149       -0.0011  -20.5384  -42.4162 H         1 UNK         0.3000 
    150 H150       -2.6766  -18.8104  -44.0917 H         1 UNK         0.0600 
    151 H151       -3.2682  -18.8902  -41.7072 H         1 UNK         0.0600 
    152 H152       -2.3102  -17.4475  -42.0027 H         1 UNK         0.0600 
    153 H153       -1.5789  -18.8492  -41.2300 H         1 UNK         0.0600 
    154 H154       -0.1830  -17.8435  -43.1925 H         1 UNK         0.3000 
    155 H155        1.7466  -18.6039  -46.1238 H         1 UNK         0.0600 
    156 H156        0.6311  -16.4903  -46.6557 H         1 UNK         0.0600 
    157 H157        2.1713  -16.1460  -45.8874 H         1 UNK         0.0600 
    158 H158        0.6704  -15.9744  -44.9773 H         1 UNK         0.0600 
    159 H159        2.2812  -17.3619  -43.5640 H         1 UNK         0.3000 
    160 H160        3.4556  -20.3405  -41.9764 H         1 UNK         0.0600 
    161 H161        4.9643  -17.8804  -43.0194 H         1 UNK         0.0600 
    162 H162        5.3811  -19.5548  -43.3647 H         1 UNK         0.0600 
    163 H163        5.4924  -18.9496  -41.7198 H         1 UNK         0.0600 
    164 H164        3.3555  -17.5986  -41.1581 H         1 UNK         0.3000 
    165 H165        0.0272  -17.5486  -39.9482 H         1 UNK         0.0600 
    166 H166        1.1122  -17.0020  -37.7876 H         1 UNK         0.0600 
    167 H167        1.2257  -18.7265  -38.0989 H         1 UNK         0.0600 
    168 H168        2.6347  -17.7007  -38.3413 H         1 UNK         0.0600 
    169 H169        2.1512  -15.6799  -39.7047 H         1 UNK         0.3000 
    170 H170        1.9020  -13.6848  -40.8950 H         1 UNK         0.0600 
    171 H171        3.3020  -15.0463  -43.2829 H         1 UNK         0.0600 
    172 H172        3.8144  -13.5452  -42.5180 H         1 UNK         0.0600 
    173 H173        3.9064  -15.0522  -41.6295 H         1 UNK         0.0600 
    174 H174        0.4018  -14.1187  -43.3098 H         1 UNK         0.3000 
    175 H175        0.0790  -10.6345  -43.9390 H         1 UNK         0.0600 
    176 H176        1.4234  -12.6569  -45.8012 H         1 UNK         0.0600 
    177 H177        0.4959  -11.2532  -46.3339 H         1 UNK         0.0600 
    178 H178        1.9875  -11.0350  -45.4309 H         1 UNK         0.0600 
    179 H179       -1.0357  -12.9523  -45.2240 H         1 UNK         0.3000 
    180 H180       -3.7348  -13.4500  -43.1169 H         1 UNK         0.0600 
    181 H181       -5.3404  -12.2651  -44.6030 H         1 UNK         0.0600 
    182 H182       -4.0420  -11.2451  -45.2245 H         1 UNK         0.0600 
    183 H183       -4.5295  -11.1297  -43.5379 H         1 UNK         0.0600 
    184 H184       -3.4317  -13.4754  -46.0265 H         1 UNK         0.3000 
    185 H185       -1.9198  -16.6442  -46.1815 H         1 UNK         0.0600 
    186 H186       -4.8875  -16.0309  -46.6375 H         1 UNK         0.0600 
    187 H187       -3.9746  -17.2878  -47.4624 H         1 UNK         0.0600 
    188 H188       -4.2355  -17.3903  -45.7261 H         1 UNK         0.0600 
    189 H189       -2.9545  -15.3720  -48.3464 H         1 UNK         0.3000 
    190 H190       -1.2961  -20.9427  -46.4718 H         1 UNK         0.3000 
    191 H191       -2.9650  -21.6146  -48.6166 H         1 UNK         0.0600 
    192 H192       -4.6325  -20.1615  -47.3958 H         1 UNK         0.0600 
    193 H193       -3.0332  -19.4379  -47.5235 H         1 UNK         0.0600 
    194 H194       -3.5694  -20.1455  -46.0031 H         1 UNK         0.0600 
    195 H195       -3.1859  -22.7072  -45.2123 H         1 UNK         0.3000 
    196 H196       -5.5502  -24.2760  -45.5531 H         1 UNK         0.0600 
    197 H197       -4.7474  -23.5107  -43.3382 H         1 UNK         0.0600 
    198 H198       -3.2944  -24.4949  -43.4897 H         1 UNK         0.0600 
    199 H199       -4.8722  -25.2639  -43.3638 H         1 UNK         0.0600 
    200 H200       -2.0655  -25.1063  -45.7947 H         1 UNK         0.3000 
    201 H201       -2.5077  -27.9215  -46.1290 H         1 UNK         0.0600 
    202 H202       -0.4466  -27.0311  -45.1203 H         1 UNK         0.0600 
    203 H203       -0.0293  -26.1902  -46.6107 H         1 UNK         0.0600 
    204 H204       -0.0455  -27.9500  -46.5632 H         1 UNK         0.0600 
    205 H205       -1.5286  -25.3421  -48.4661 H         1 UNK         0.3000 
    206 H206       -1.4121  -27.2952  -50.6558 H         1 UNK         0.0600 
    207 H207       -0.7898  -24.2975  -50.5852 H         1 UNK         0.0600 
    208 H208        0.3785  -25.5835  -50.3003 H         1 UNK         0.0600 
    209 H209       -0.3785  -25.4158  -51.8768 H         1 UNK         0.0600 
    210 H210       -3.7476  -25.0845  -49.4457 H         1 UNK         0.3000 
    211 H211       -5.7560  -24.4115  -50.0097 H         1 UNK         0.0600 
    212 H212       -5.7063  -26.3283  -52.3926 H         1 UNK         0.0600 
    213 H213       -7.1164  -25.5335  -51.7139 H         1 UNK         0.0600 
    214 H214       -6.2428  -26.7223  -50.7604 H         1 UNK         0.0600 
    215 H215       -3.8614  -24.6516  -53.0427 H         1 UNK         0.3000 
    216 H216       -5.0341  -22.4230  -54.3743 H         1 UNK         0.0600 
    217 H217       -3.0756  -22.6419  -55.8999 H         1 UNK         0.0600 
    218 H218       -3.7483  -24.2206  -55.5302 H         1 UNK         0.0600 
    219 H219       -2.2630  -23.6898  -54.7416 H         1 UNK         0.0600 
    220 H220       -2.3981  -22.6169  -52.0469 H         1 UNK         0.3000 
    221 H221       -1.3150  -20.0012  -52.3713 H         1 UNK         0.0600 
    222 H222       -1.2568  -21.9836  -50.0567 H         1 UNK         0.0600 
    223 H223       -0.0133  -21.7092  -51.2658 H         1 UNK         0.0600 
    224 H224       -0.3492  -20.4742  -50.0662 H         1 UNK         0.0600 
    225 H225       -4.3836  -20.9279  -51.0225 H         1 UNK         0.3000 
    226 H226       -4.7398  -18.6272  -49.3023 H         1 UNK         0.0600 
    227 H227       -6.0816  -20.7977  -49.1600 H         1 UNK         0.0600 
    228 H228       -7.0716  -19.3472  -49.2498 H         1 UNK         0.0600 
    229 H229       -6.8648  -20.3550  -50.6736 H         1 UNK         0.0600 
    230 H230       -4.6633  -19.0371  -52.7263 H         1 UNK         0.3000 
    231 H231       -5.8204  -16.3168  -53.1851 H         1 UNK         0.0600 
    232 H232       -6.3257  -17.1238  -55.4715 H         1 UNK         0.0600 
    233 H233       -7.1087  -18.1706  -54.3001 H         1 UNK         0.0600 
    234 H234       -5.6340  -18.7014  -55.1081 H         1 UNK         0.0600 
    235 H235       -3.0269  -17.4240  -52.3661 H         1 UNK         0.3000 
    236 H236       -0.8959  -17.1552  -52.7233 H         1 UNK         0.0600 
    237 H237       -1.6150  -14.7877  -54.5273 H         1 UNK         0.0600 
    238 H238       -1.5035  -14.7316  -52.7681 H         1 UNK         0.0600 
    239 H239       -0.0748  -15.0651  -53.7252 H         1 UNK         0.0600 
    240 H240       -2.2751  -19.0197  -54.4730 H         1 UNK         0.3000 
    241 H241       -1.7845  -20.5429  -55.9257 H         1 UNK         0.0600 
    242 H242       -1.3289  -19.6454  -59.5006 H         1 UNK         0.3800 
    243 H243       -0.5591  -20.8020  -58.4567 H         1 UNK         0.3800 
    244 H244        1.0485  -19.4797  -56.3130 H         1 UNK         0.0800 
    245 H245        0.4801  -21.0892  -56.6378 H         1 UNK         0.0800 
    246 H246        3.0672  -20.0794  -54.2628 H         1 UNK         0.0800 
    247 H247        1.9902  -18.7128  -54.3865 H         1 UNK         0.0800 
@<TRIPOS>BOND
     1    1    2 1    
     2    1  127 1    
     3    1  128 1    
     4    1  129 1    
     5    2    3 2    
     6    2    4 am   BACKBONE|DICT|INTERRES
     7    4    5 1    
     8    4  130 1    
     9    5    6 1    
    10    5   65 1    
    11    5  131 1    
    12    6    7 1    
    13    6  132 1    
    14    6  133 1    
    15    7    8 1    
    16    8    9 1    
    17    8  134 1    
    18    8  135 1    
    19    9   10 ar   
    20    9   14 ar   
    21   10   11 ar   
    22   10  136 1    
    23   11   12 ar   
    24   11  126 1    
    25   12   13 ar   
    26   12  137 1    
    27   13   14 ar   
    28   13   15 1    
    29   14  138 1    
    30   15   16 1    
    31   15  139 1    
    32   15  140 1    
    33   16   17 1    
    34   17   18 1    
    35   17  141 1    
    36   17  142 1    
    37   18   19 1    
    38   18   67 1    
    39   18  143 1    
    40   19   20 am   BACKBONE|DICT|INTERRES
    41   19  144 1    
    42   20   21 2    
    43   20   22 1    
    44   22   23 1    
    45   22   24 1    
    46   22  145 1    
    47   23  146 1    
    48   23  147 1    
    49   23  148 1    
    50   24   25 am   BACKBONE|DICT|INTERRES
    51   24  149 1    
    52   25   26 2    
    53   25   27 1    
    54   27   28 1    
    55   27   29 1    
    56   27  150 1    
    57   28  151 1    
    58   28  152 1    
    59   28  153 1    
    60   29   30 am   BACKBONE|DICT|INTERRES
    61   29  154 1    
    62   30   31 2    
    63   30   32 1    
    64   32   33 1    
    65   32   34 1    
    66   32  155 1    
    67   33  156 1    
    68   33  157 1    
    69   33  158 1    
    70   34   35 am   BACKBONE|DICT|INTERRES
    71   34  159 1    
    72   35   36 2    
    73   35   37 1    
    74   37   38 1    
    75   37   39 1    
    76   37  160 1    
    77   38  161 1    
    78   38  162 1    
    79   38  163 1    
    80   39   40 am   BACKBONE|DICT|INTERRES
    81   39  164 1    
    82   40   41 2    
    83   40   42 1    
    84   42   43 1    
    85   42   44 1    
    86   42  165 1    
    87   43  166 1    
    88   43  167 1    
    89   43  168 1    
    90   44   45 am   BACKBONE|DICT|INTERRES
    91   44  169 1    
    92   45   46 2    
    93   45   47 1    
    94   47   48 1    
    95   47   49 1    
    96   47  170 1    
    97   48  171 1    
    98   48  172 1    
    99   48  173 1    
   100   49   50 am   BACKBONE|DICT|INTERRES
   101   49  174 1    
   102   50   51 2    
   103   50   52 1    
   104   52   53 1    
   105   52   54 1    
   106   52  175 1    
   107   53  176 1    
   108   53  177 1    
   109   53  178 1    
   110   54   55 am   BACKBONE|DICT|INTERRES
   111   54  179 1    
   112   55   56 2    
   113   55   57 1    
   114   57   58 1    
   115   57   59 1    
   116   57  180 1    
   117   58  181 1    
   118   58  182 1    
   119   58  183 1    
   120   59   60 am   BACKBONE|DICT|INTERRES
   121   59  184 1    
   122   60   61 2    
   123   60   62 1    
   124   62   63 1    
   125   62   64 1    
   126   62  185 1    
   127   63  186 1    
   128   63  187 1    
   129   63  188 1    
   130   64   65 am   BACKBONE|DICT|INTERRES
   131   64  189 1    
   132   65   66 2    
   133   67   68 2    
   134   67   69 am   BACKBONE|DICT|INTERRES
   135   69   70 1    
   136   69  190 1    
   137   70   71 1    
   138   70   72 1    
   139   70  191 1    
   140   71  192 1    
   141   71  193 1    
   142   71  194 1    
   143   72   73 2    
   144   72   74 am   BACKBONE|DICT|INTERRES
   145   74   75 1    
   146   74  195 1    
   147   75   76 1    
   148   75   77 1    
   149   75  196 1    
   150   76  197 1    
   151   76  198 1    
   152   76  199 1    
   153   77   78 2    
   154   77   79 am   BACKBONE|DICT|INTERRES
   155   79   80 1    
   156   79  200 1    
   157   80   81 1    
   158   80   82 1    
   159   80  201 1    
   160   81  202 1    
   161   81  203 1    
   162   81  204 1    
   163   82   83 2    
   164   82   84 am   BACKBONE|DICT|INTERRES
   165   84   85 1    
   166   84  205 1    
   167   85   86 1    
   168   85   87 1    
   169   85  206 1    
   170   86  207 1    
   171   86  208 1    
   172   86  209 1    
   173   87   88 2    
   174   87   89 am   BACKBONE|DICT|INTERRES
   175   89   90 1    
   176   89  210 1    
   177   90   91 1    
   178   90   92 1    
   179   90  211 1    
   180   91  212 1    
   181   91  213 1    
   182   91  214 1    
   183   92   93 2    
   184   92   94 am   BACKBONE|DICT|INTERRES
   185   94   95 1    
   186   94  215 1    
   187   95   96 1    
   188   95   97 1    
   189   95  216 1    
   190   96  217 1    
   191   96  218 1    
   192   96  219 1    
   193   97   98 2    
   194   97   99 am   BACKBONE|DICT|INTERRES
   195   99  100 1    
   196   99  220 1    
   197  100  101 1    
   198  100  102 1    
   199  100  221 1    
   200  101  222 1    
   201  101  223 1    
   202  101  224 1    
   203  102  103 2    
   204  102  104 am   BACKBONE|DICT|INTERRES
   205  104  105 1    
   206  104  225 1    
   207  105  106 1    
   208  105  107 1    
   209  105  226 1    
   210  106  227 1    
   211  106  228 1    
   212  106  229 1    
   213  107  108 2    
   214  107  109 am   BACKBONE|DICT|INTERRES
   215  109  110 1    
   216  109  230 1    
   217  110  111 1    
   218  110  112 1    
   219  110  231 1    
   220  111  232 1    
   221  111  233 1    
   222  111  234 1    
   223  112  113 2    
   224  112  114 am   BACKBONE|DICT|INTERRES
   225  114  115 1    
   226  114  235 1    
   227  115  116 1    
   228  115  117 1    
   229  115  236 1    
   230  116  237 1    
   231  116  238 1    
   232  116  239 1    
   233  117  118 2    
   234  117  119 am   BACKBONE|DICT|INTERRES
   235  119  120 1    
   236  119  240 1    
   237  120  121 1    
   238  120  124 1    
   239  120  241 1    
   240  121  122 am   BACKBONE|DICT|INTERRES
   241  121  123 2    
   242  122  242 1    
   243  122  243 1    
   244  124  125 1    
   245  124  244 1    
   246  124  245 1    
   247  125  126 1    
   248  126  246 1    
   249  126  247 1    
@<TRIPOS>SUBSTRUCTURE
     1 UNK         1 GROUP             0       ****    0 ROOT    
