@<TRIPOS>MOLECULE
3R540
247   249    1
SMALL
USER_CHARGES


@<TRIPOS>ATOM
      1 CA         -0.7359  -12.7387  -48.2409 C.3       0 UNK        -0.1800 
      2 C           0.5280  -12.9678  -49.0510 C.2       0 UNK         0.5000 
      3 O           1.6188  -12.6521  -48.5789 O.2       0 UNK        -0.5000 
      4 N           0.3880  -13.5244  -50.2625 N.am      1 UNK        -0.5000 
      5 CA          1.4927  -13.7486  -51.2049 C.3       1 UNK         0.1400 
      6 C6          0.9920  -14.0108  -52.6472 C.3       23 UNK        -0.0398 
      7 S7          0.1651  -15.6147  -52.9329 S.3       23 UNK        -0.2404 
      8 C8         -1.5966  -15.2540  -52.6202 C.3       23 UNK        -0.0205 
      9 C9         -2.0879  -15.8203  -51.2922 C.ar      23 UNK        -0.0193 
     10 C10        -2.8572  -15.0372  -50.4250 C.ar      23 UNK        -0.1150 
     11 C11        -3.3480  -15.5695  -49.2267 C.ar      23 UNK        -0.0193 
     12 C12        -3.0767  -16.9034  -48.9053 C.ar      23 UNK        -0.1150 
     13 C13        -2.3119  -17.6959  -49.7652 C.ar      23 UNK        -0.0193 
     14 C14        -1.8185  -17.1489  -50.9504 C.ar      23 UNK        -0.1150 
     15 C15        -2.0260  -19.1495  -49.4377 C.3       23 UNK        -0.0205 
     16 S16        -0.5003  -19.3129  -48.4633 S.3       23 UNK        -0.2404 
     17 C17        -1.1592  -19.6575  -46.8044 C.3       23 UNK        -0.0398 
     18 CA         -1.1412  -21.1660  -46.4720 C.3       11 UNK         0.1400 
     19 N          -1.2208  -21.3959  -45.0309 N.am      11 UNK        -0.5000 
     20 C          -1.1029  -22.5853  -44.4264 C.2       10 UNK         0.5000 
     21 O          -0.8655  -23.6377  -45.0178 O.2       10 UNK        -0.5000 
     22 CA         -1.3586  -22.6029  -42.9106 C.3       10 UNK         0.1400 
     23 CB         -0.1261  -22.1118  -42.1354 C.3       10 UNK        -0.1800 
     24 N          -2.5223  -21.7901  -42.5546 N.am      10 UNK        -0.5000 
     25 C          -3.7849  -22.0937  -42.8883 C.2       9 UNK         0.5000 
     26 O          -4.1066  -23.1221  -43.4845 O.2       9 UNK        -0.5000 
     27 CA         -4.8597  -21.0506  -42.5296 C.3       9 UNK         0.1400 
     28 CB         -5.3081  -21.2143  -41.0697 C.3       9 UNK        -0.1800 
     29 N          -4.4072  -19.6741  -42.7480 N.am      9 UNK        -0.5000 
     30 C          -4.1518  -19.1473  -43.9540 C.2       8 UNK         0.5000 
     31 O          -4.2791  -19.7633  -45.0097 O.2       8 UNK        -0.5000 
     32 CA         -3.6030  -17.7100  -43.9861 C.3       8 UNK         0.1400 
     33 CB         -4.7441  -16.6839  -43.9374 C.3       8 UNK        -0.1800 
     34 N          -2.6356  -17.4324  -42.9188 N.am      8 UNK        -0.5000 
     35 C          -1.4658  -18.0701  -42.7857 C.2       7 UNK         0.5000 
     36 O          -1.0974  -18.9787  -43.5359 O.2       7 UNK        -0.5000 
     37 CA         -0.5719  -17.6575  -41.6102 C.3       7 UNK         0.1400 
     38 CB         -1.0552  -18.2998  -40.2986 C.3       7 UNK        -0.1800 
     39 N           0.7782  -18.1102  -41.9140 N.am      7 UNK        -0.5000 
     40 C           1.9174  -17.5738  -41.4707 C.2       6 UNK         0.5000 
     41 O           1.9713  -16.6621  -40.6436 O.2       6 UNK        -0.5000 
     42 CA          3.2215  -18.1324  -42.0621 C.3       6 UNK         0.1400 
     43 CB          3.0525  -19.4412  -42.8667 C.3       6 UNK        -0.1800 
     44 N           3.8168  -17.1086  -42.9143 N.am      6 UNK        -0.5000 
     45 C           5.1305  -16.9439  -43.1155 C.2       5 UNK         0.5000 
     46 O           5.9889  -17.6311  -42.5593 O.2       5 UNK        -0.5000 
     47 CA          5.5799  -15.8513  -44.1083 C.3       5 UNK         0.1400 
     48 CB          6.3568  -16.4706  -45.2825 C.3       5 UNK        -0.1800 
     49 N           4.4606  -15.0779  -44.6482 N.am      5 UNK        -0.5000 
     50 C           3.9972  -13.9343  -44.1232 C.2       4 UNK         0.5000 
     51 O           4.4935  -13.3886  -43.1371 O.2       4 UNK        -0.5000 
     52 CA          2.7666  -13.2906  -44.7984 C.3       4 UNK         0.1400 
     53 CB          3.1993  -12.1351  -45.7125 C.3       4 UNK        -0.1800 
     54 N           1.9546  -14.2353  -45.5705 N.am      4 UNK        -0.5000 
     55 C           1.2770  -15.2605  -45.0347 C.2       3 UNK         0.5000 
     56 O           1.2200  -15.4717  -43.8251 O.2       3 UNK        -0.5000 
     57 CA          0.5916  -16.2494  -45.9947 C.3       3 UNK         0.1400 
     58 CB         -0.9115  -15.9543  -46.0873 C.3       3 UNK        -0.1800 
     59 N           1.1663  -16.2936  -47.3432 N.am      3 UNK        -0.5000 
     60 C           2.4252  -16.6670  -47.6287 C.2       2 UNK         0.5000 
     61 O           3.2494  -16.9621  -46.7630 O.2       2 UNK        -0.5000 
     62 CA          2.8610  -16.6688  -49.1053 C.3       2 UNK         0.1400 
     63 CB          2.8203  -18.0827  -49.7027 C.3       2 UNK        -0.1800 
     64 N           2.0425  -15.7623  -49.9112 N.am      2 UNK        -0.5000 
     65 C           2.5179  -14.7925  -50.7024 C.2       1 UNK         0.5000 
     66 O           3.7083  -14.6604  -50.9915 O.2       1 UNK        -0.5000 
     67 C          -2.2371  -21.9310  -47.2408 C.2       11 UNK         0.5000 
     68 O          -1.9335  -22.5560  -48.2561 O.2       11 UNK        -0.5000 
     69 N          -3.4755  -21.8984  -46.7285 N.am      12 UNK        -0.5000 
     70 CA         -4.6247  -22.6138  -47.2811 C.3       12 UNK         0.1400 
     71 CB         -5.8963  -22.2154  -46.5193 C.3       12 UNK        -0.1800 
     72 C          -4.4441  -24.1410  -47.2636 C.2       12 UNK         0.5000 
     73 O          -4.7936  -24.8030  -48.2406 O.2       12 UNK        -0.5000 
     74 N          -3.8847  -24.6646  -46.1639 N.am      13 UNK        -0.5000 
     75 CA         -3.5600  -26.0802  -45.9978 C.3       13 UNK         0.1400 
     76 CB         -3.2365  -26.3593  -44.5219 C.3       13 UNK        -0.1800 
     77 C          -2.4044  -26.5332  -46.9097 C.2       13 UNK         0.5000 
     78 O          -2.4851  -27.6111  -47.5003 O.2       13 UNK        -0.5000 
     79 N          -1.3547  -25.7065  -47.0079 N.am      14 UNK        -0.5000 
     80 CA         -0.1688  -25.9688  -47.8234 C.3       14 UNK         0.1400 
     81 CB          0.9649  -25.0333  -47.3735 C.3       14 UNK        -0.1800 
     82 C          -0.4123  -25.8077  -49.3352 C.2       14 UNK         0.5000 
     83 O           0.2117  -26.5215  -50.1212 O.2       14 UNK        -0.5000 
     84 N          -1.2779  -24.8518  -49.7056 N.am      15 UNK        -0.5000 
     85 CA         -1.4971  -24.3234  -51.0564 C.3       15 UNK         0.1400 
     86 CB         -2.1520  -25.3730  -51.9768 C.3       15 UNK        -0.1800 
     87 C          -0.2030  -23.7084  -51.6299 C.2       15 UNK         0.5000 
     88 O           0.2037  -24.0234  -52.7504 O.2       15 UNK        -0.5000 
     89 N           0.4479  -22.8735  -50.8093 N.am      16 UNK        -0.5000 
     90 CA          1.6871  -22.1798  -51.1443 C.3       16 UNK         0.1400 
     91 CB          2.3973  -21.7720  -49.8446 C.3       16 UNK        -0.1800 
     92 C           1.4005  -20.9515  -52.0231 C.2       16 UNK         0.5000 
     93 O           0.4818  -20.1904  -51.7181 O.2       16 UNK        -0.5000 
     94 N           2.1958  -20.7829  -53.0894 N.am      17 UNK        -0.5000 
     95 CA          2.2028  -19.6944  -54.0826 C.3       17 UNK         0.1400 
     96 CB          2.5627  -18.3493  -53.4262 C.3       17 UNK        -0.1800 
     97 C           0.9376  -19.5614  -54.9597 C.2       17 UNK         0.5000 
     98 O           1.0613  -19.2279  -56.1393 O.2       17 UNK        -0.5000 
     99 N          -0.2389  -19.8367  -54.3959 N.am      18 UNK        -0.5000 
    100 CA        -1.5396  -19.8467  -55.0499 C.3       18 UNK         0.1400 
    101 CB        -2.2775  -18.5445  -54.7019 C.3       18 UNK        -0.1800 
    102 C         -2.3301  -21.0727  -54.5704 C.2       18 UNK         0.5000 
    103 O         -1.9911  -21.6686  -53.5440 O.2       18 UNK        -0.5000 
    104 N         -3.3889  -21.4218  -55.3117 N.am      19 UNK        -0.5000 
    105 CA        -4.2961  -22.5382  -55.0339 C.3       19 UNK         0.1400 
    106 CB        -5.1022  -22.8475  -56.3080 C.3       19 UNK        -0.1800 
    107 C         -5.2019  -22.2546  -53.8170 C.2       19 UNK         0.5000 
    108 O         -6.3962  -21.9957  -53.9742 O.2       19 UNK        -0.5000 
    109 N         -4.5880  -22.2492  -52.6279 N.am      20 UNK        -0.5000 
    110 CA        -5.1263  -21.9785  -51.2890 C.3       20 UNK         0.1400 
    111 CB        -6.2621  -22.9513  -50.9221 C.3       20 UNK        -0.1800 
    112 C         -5.5396  -20.5144  -51.0425 C.2       20 UNK         0.5000 
    113 O         -5.3436  -20.0322  -49.9270 O.2       20 UNK        -0.5000 
    114 N         -6.0766  -19.8420  -52.0718 N.am      21 UNK        -0.5000 
    115 CA        -6.4642  -18.4293  -52.1471 C.3       21 UNK         0.1400 
    116 CB        -5.2124  -17.5456  -52.3095 C.3       21 UNK        -0.1800 
    117 C         -7.3713  -17.9885  -50.9820 C.2       21 UNK         0.5000 
    118 O         -8.5861  -18.1801  -51.0579 O.2       21 UNK        -0.5000 
    119 N         -6.7657  -17.4225  -49.9310 N.am      22 UNK        -0.5000 
    120 CA        -7.4255  -17.0423  -48.6733 C.3       22 UNK         0.1400 
    121 C         -7.9690  -18.2412  -47.8419 C.2       22 UNK         0.5000 
    122 N         -7.5063  -19.4647  -48.0642 N.am      22 UNK        -0.7600 
    123 O         -8.8296  -18.0550  -46.9860 O.2       22 UNK        -0.5000 
    124 C124       -6.5121  -16.1584  -47.7883 C.3       23 UNK        -0.0398 
    125 S125       -5.9187  -14.6591  -48.6448 S.3       23 UNK        -0.2404 
    126 C126       -4.1386  -14.6880  -48.2681 C.3       23 UNK        -0.0205 
    127 H127       -1.1933  -11.7883  -48.5151 H         1 UNK         0.0600 
    128 H128       -0.5093  -12.7141  -47.1747 H         1 UNK         0.0600 
    129 H129       -1.4547  -13.5345  -48.4171 H         1 UNK         0.0600 
    130 H130       -0.5297  -13.7878  -50.5903 H         1 UNK         0.3000 
    131 H131        2.0408  -12.8045  -51.2479 H         1 UNK         0.0600 
    132 H132        0.3319  -13.2028  -52.9643 H         1 UNK         0.0800 
    133 H133        1.8407  -13.9651  -53.3316 H         1 UNK         0.0800 
    134 H134       -2.1864  -15.7077  -53.4173 H         1 UNK         0.0800 
    135 H135       -1.7807  -14.1809  -52.6828 H         1 UNK         0.0800 
    136 H136       -3.0821  -14.0114  -50.6817 H         1 UNK         0.1150 
    137 H137       -3.4508  -17.3263  -47.9843 H         1 UNK         0.1150 
    138 H138       -1.2317  -17.7688  -51.6147 H         1 UNK         0.1150 
    139 H139       -2.8756  -19.5911  -48.9163 H         1 UNK         0.0800 
    140 H140       -1.9129  -19.7230  -50.3594 H         1 UNK         0.0800 
    141 H141       -2.1526  -19.2238  -46.6824 H         1 UNK         0.0800 
    142 H142       -0.5139  -19.1272  -46.1058 H         1 UNK         0.0800 
    143 H143       -0.1786  -21.5724  -46.7907 H         1 UNK         0.0600 
    144 H144       -1.3730  -20.5728  -44.4538 H         1 UNK         0.3000 
    145 H145       -1.5584  -23.6354  -42.6160 H         1 UNK         0.0600 
    146 H146       -0.2862  -22.1758  -41.0591 H         1 UNK         0.0600 
    147 H147        0.7486  -22.7195  -42.3706 H         1 UNK         0.0600 
    148 H148        0.1205  -21.0780  -42.3756 H         1 UNK         0.0600 
    149 H149       -2.3413  -20.9083  -42.1003 H         1 UNK         0.3000 
    150 H150       -5.7234  -21.2300  -43.1737 H         1 UNK         0.0600 
    151 H151       -5.6653  -22.2280  -40.8831 H         1 UNK         0.0600 
    152 H152       -6.1255  -20.5340  -40.8301 H         1 UNK         0.0600 
    153 H153       -4.4930  -21.0195  -40.3717 H         1 UNK         0.0600 
    154 H154       -4.2708  -19.0998  -41.9295 H         1 UNK         0.3000 
    155 H155       -3.0889  -17.5896  -44.9409 H         1 UNK         0.0600 
    156 H156       -5.2763  -16.7167  -42.9860 H         1 UNK         0.0600 
    157 H157       -4.3683  -15.6704  -44.0789 H         1 UNK         0.0600 
    158 H158       -5.4723  -16.8718  -44.7277 H         1 UNK         0.0600 
    159 H159       -2.8799  -16.7040  -42.2632 H         1 UNK         0.3000 
    160 H160       -0.5845  -16.5687  -41.5267 H         1 UNK         0.0600 
    161 H161       -1.0514  -19.3889  -40.3588 H         1 UNK         0.0600 
    162 H162       -2.0709  -17.9853  -40.0560 H         1 UNK         0.0600 
    163 H163       -0.4196  -18.0109  -39.4614 H         1 UNK         0.0600 
    164 H164        0.8095  -18.8151  -42.6397 H         1 UNK         0.3000 
    165 H165        3.8795  -18.3327  -41.2139 H         1 UNK         0.0600 
    166 H166        4.0204  -19.8305  -43.1828 H         1 UNK         0.0600 
    167 H167        2.5800  -20.2181  -42.2643 H         1 UNK         0.0600 
    168 H168        2.4510  -19.2949  -43.7651 H         1 UNK         0.0600 
    169 H169        3.1649  -16.4645  -43.3463 H         1 UNK         0.3000 
    170 H170        6.2609  -15.1874  -43.5721 H         1 UNK         0.0600 
    171 H171        7.2512  -16.9868  -44.9315 H         1 UNK         0.0600 
    172 H172        5.7535  -17.1974  -45.8271 H         1 UNK         0.0600 
    173 H173        6.6812  -15.7063  -45.9889 H         1 UNK         0.0600 
    174 H174        3.9822  -15.4891  -45.4423 H         1 UNK         0.3000 
    175 H175        2.1397  -12.8794  -44.0045 H         1 UNK         0.0600 
    176 H176        2.3347  -11.6004  -46.1061 H         1 UNK         0.0600 
    177 H177        3.7881  -12.4911  -46.5589 H         1 UNK         0.0600 
    178 H178        3.8072  -11.4103  -45.1695 H         1 UNK         0.0600 
    179 H179        1.9552  -14.1175  -46.5744 H         1 UNK         0.3000 
    180 H180        0.7157  -17.2400  -45.5535 H         1 UNK         0.0600 
    181 H181       -1.1101  -15.0120  -46.5932 H         1 UNK         0.0600 
    182 H182       -1.3592  -15.8882  -45.0955 H         1 UNK         0.0600 
    183 H183       -1.4323  -16.7420  -46.6278 H         1 UNK         0.0600 
    184 H184        0.5304  -16.0943  -48.0971 H         1 UNK         0.3000 
    185 H185        3.9010  -16.3356  -49.1053 H         1 UNK         0.0600 
    186 H186        3.2466  -18.8176  -49.0187 H         1 UNK         0.0600 
    187 H187        1.8034  -18.3951  -49.9366 H         1 UNK         0.0600 
    188 H188        3.3996  -18.1276  -50.6231 H         1 UNK         0.0600 
    189 H189        1.0432  -15.8149  -49.7909 H         1 UNK         0.3000 
    190 H190       -3.6624  -21.2988  -45.9291 H         1 UNK         0.3000 
    191 H191       -4.7364  -22.2968  -48.3175 H         1 UNK         0.0600 
    192 H192       -5.8654  -22.5434  -45.4803 H         1 UNK         0.0600 
    193 H193       -6.7808  -22.6580  -46.9787 H         1 UNK         0.0600 
    194 H194       -6.0309  -21.1351  -46.5191 H         1 UNK         0.0600 
    195 H195       -3.6662  -24.0505  -45.3876 H         1 UNK         0.3000 
    196 H196       -4.4437  -26.6633  -46.2653 H         1 UNK         0.0600 
    197 H197       -3.0134  -27.4150  -44.3637 H         1 UNK         0.0600 
    198 H198       -4.0796  -26.1044  -43.8794 H         1 UNK         0.0600 
    199 H199       -2.3738  -25.7860  -44.1814 H         1 UNK         0.0600 
    200 H200       -1.3381  -24.8648  -46.4384 H         1 UNK         0.3000 
    201 H201        0.1499  -26.9980  -47.6453 H         1 UNK         0.0600 
    202 H202        1.2110  -25.1890  -46.3230 H         1 UNK         0.0600 
    203 H203        0.6944  -23.9842  -47.5011 H         1 UNK         0.0600 
    204 H204        1.8733  -25.2109  -47.9507 H         1 UNK         0.0600 
    205 H205       -1.6835  -24.2809  -48.9684 H         1 UNK         0.3000 
    206 H206       -2.2023  -23.4984  -50.9502 H         1 UNK         0.0600 
    207 H207       -2.4059  -24.9349  -52.9427 H         1 UNK         0.0600 
    208 H208       -1.4922  -26.2199  -52.1656 H         1 UNK         0.0600 
    209 H209       -3.0748  -25.7553  -51.5403 H         1 UNK         0.0600 
    210 H210        0.0153  -22.6277  -49.9298 H         1 UNK         0.3000 
    211 H211        2.3395  -22.8674  -51.6868 H         1 UNK         0.0600 
    212 H212        1.7871  -21.0945  -49.2470 H         1 UNK         0.0600 
    213 H213        3.3385  -21.2639  -50.0578 H         1 UNK         0.0600 
    214 H214        2.6285  -22.6429  -49.2310 H         1 UNK         0.0600 
    215 H215        2.8920  -21.4954  -53.2588 H         1 UNK         0.3000 
    216 H216        3.0136  -19.9395  -54.7704 H         1 UNK         0.0600 
    217 H217        2.5725  -17.5429  -54.1606 H         1 UNK         0.0600 
    218 H218        3.5541  -18.3868  -52.9762 H         1 UNK         0.0600 
    219 H219        1.8493  -18.0724  -52.6501 H         1 UNK         0.0600 
    220 H220       -0.2428  -20.1204  -53.4176 H         1 UNK         0.3000 
    221 H221       -1.4182  -19.9219  -56.1324 H         1 UNK         0.0600 
    222 H222       -2.4372  -18.4541  -53.6272 H         1 UNK         0.0600 
    223 H223       -1.7107  -17.6725  -55.0287 H         1 UNK         0.0600 
    224 H224       -3.2526  -18.4995  -55.1877 H         1 UNK         0.0600 
    225 H225       -3.6165  -20.8631  -56.1214 H         1 UNK         0.3000 
    226 H226       -3.6981  -23.4214  -54.7987 H         1 UNK         0.0600 
    227 H227       -4.4450  -23.1248  -57.1324 H         1 UNK         0.0600 
    228 H228       -5.7855  -23.6820  -56.1447 H         1 UNK         0.0600 
    229 H229       -5.6985  -21.9919  -56.6277 H         1 UNK         0.0600 
    230 H230       -3.5749  -22.3212  -52.6708 H         1 UNK         0.3000 
    231 H231       -4.2965  -22.1757  -50.6092 H         1 UNK         0.0600 
    232 H232       -6.5915  -22.7959  -49.8941 H         1 UNK         0.0600 
    233 H233       -5.9327  -23.9873  -51.0023 H         1 UNK         0.0600 
    234 H234       -7.1350  -22.8234  -51.5623 H         1 UNK         0.0600 
    235 H235       -6.2597  -20.3888  -52.9077 H         1 UNK         0.3000 
    236 H236       -7.0592  -18.3197  -53.0550 H         1 UNK         0.0600 
    237 H237       -4.7198  -17.7444  -53.2597 H         1 UNK         0.0600 
    238 H238       -5.4661  -16.4847  -52.2952 H         1 UNK         0.0600 
    239 H239       -4.4885  -17.7250  -51.5175 H         1 UNK         0.0600 
    240 H240       -5.7605  -17.3309  -49.9492 H         1 UNK         0.3000 
    241 H241       -8.2974  -16.4440  -48.9443 H         1 UNK         0.0600 
    242 H242       -6.7653  -19.6188  -48.7433 H         1 UNK         0.3800 
    243 H243       -7.8726  -20.2344  -47.5302 H         1 UNK         0.3800 
    244 H244       -7.0498  -15.8312  -46.8965 H         1 UNK         0.0800 
    245 H245       -5.6634  -16.7413  -47.4294 H         1 UNK         0.0800 
    246 H246       -3.7712  -13.6632  -48.3279 H         1 UNK         0.0800 
    247 H247       -3.9775  -15.0013  -47.2353 H         1 UNK         0.0800 
@<TRIPOS>BOND
     1    1    2 1    
     2    1  127 1    
     3    1  128 1    
     4    1  129 1    
     5    2    3 2    
     6    2    4 am   BACKBONE|DICT|INTERRES
     7    4    5 1    
     8    4  130 1    
     9    5    6 1    
    10    5   65 1    
    11    5  131 1    
    12    6    7 1    
    13    6  132 1    
    14    6  133 1    
    15    7    8 1    
    16    8    9 1    
    17    8  134 1    
    18    8  135 1    
    19    9   10 ar   
    20    9   14 ar   
    21   10   11 ar   
    22   10  136 1    
    23   11   12 ar   
    24   11  126 1    
    25   12   13 ar   
    26   12  137 1    
    27   13   14 ar   
    28   13   15 1    
    29   14  138 1    
    30   15   16 1    
    31   15  139 1    
    32   15  140 1    
    33   16   17 1    
    34   17   18 1    
    35   17  141 1    
    36   17  142 1    
    37   18   19 1    
    38   18   67 1    
    39   18  143 1    
    40   19   20 am   BACKBONE|DICT|INTERRES
    41   19  144 1    
    42   20   21 2    
    43   20   22 1    
    44   22   23 1    
    45   22   24 1    
    46   22  145 1    
    47   23  146 1    
    48   23  147 1    
    49   23  148 1    
    50   24   25 am   BACKBONE|DICT|INTERRES
    51   24  149 1    
    52   25   26 2    
    53   25   27 1    
    54   27   28 1    
    55   27   29 1    
    56   27  150 1    
    57   28  151 1    
    58   28  152 1    
    59   28  153 1    
    60   29   30 am   BACKBONE|DICT|INTERRES
    61   29  154 1    
    62   30   31 2    
    63   30   32 1    
    64   32   33 1    
    65   32   34 1    
    66   32  155 1    
    67   33  156 1    
    68   33  157 1    
    69   33  158 1    
    70   34   35 am   BACKBONE|DICT|INTERRES
    71   34  159 1    
    72   35   36 2    
    73   35   37 1    
    74   37   38 1    
    75   37   39 1    
    76   37  160 1    
    77   38  161 1    
    78   38  162 1    
    79   38  163 1    
    80   39   40 am   BACKBONE|DICT|INTERRES
    81   39  164 1    
    82   40   41 2    
    83   40   42 1    
    84   42   43 1    
    85   42   44 1    
    86   42  165 1    
    87   43  166 1    
    88   43  167 1    
    89   43  168 1    
    90   44   45 am   BACKBONE|DICT|INTERRES
    91   44  169 1    
    92   45   46 2    
    93   45   47 1    
    94   47   48 1    
    95   47   49 1    
    96   47  170 1    
    97   48  171 1    
    98   48  172 1    
    99   48  173 1    
   100   49   50 am   BACKBONE|DICT|INTERRES
   101   49  174 1    
   102   50   51 2    
   103   50   52 1    
   104   52   53 1    
   105   52   54 1    
   106   52  175 1    
   107   53  176 1    
   108   53  177 1    
   109   53  178 1    
   110   54   55 am   BACKBONE|DICT|INTERRES
   111   54  179 1    
   112   55   56 2    
   113   55   57 1    
   114   57   58 1    
   115   57   59 1    
   116   57  180 1    
   117   58  181 1    
   118   58  182 1    
   119   58  183 1    
   120   59   60 am   BACKBONE|DICT|INTERRES
   121   59  184 1    
   122   60   61 2    
   123   60   62 1    
   124   62   63 1    
   125   62   64 1    
   126   62  185 1    
   127   63  186 1    
   128   63  187 1    
   129   63  188 1    
   130   64   65 am   BACKBONE|DICT|INTERRES
   131   64  189 1    
   132   65   66 2    
   133   67   68 2    
   134   67   69 am   BACKBONE|DICT|INTERRES
   135   69   70 1    
   136   69  190 1    
   137   70   71 1    
   138   70   72 1    
   139   70  191 1    
   140   71  192 1    
   141   71  193 1    
   142   71  194 1    
   143   72   73 2    
   144   72   74 am   BACKBONE|DICT|INTERRES
   145   74   75 1    
   146   74  195 1    
   147   75   76 1    
   148   75   77 1    
   149   75  196 1    
   150   76  197 1    
   151   76  198 1    
   152   76  199 1    
   153   77   78 2    
   154   77   79 am   BACKBONE|DICT|INTERRES
   155   79   80 1    
   156   79  200 1    
   157   80   81 1    
   158   80   82 1    
   159   80  201 1    
   160   81  202 1    
   161   81  203 1    
   162   81  204 1    
   163   82   83 2    
   164   82   84 am   BACKBONE|DICT|INTERRES
   165   84   85 1    
   166   84  205 1    
   167   85   86 1    
   168   85   87 1    
   169   85  206 1    
   170   86  207 1    
   171   86  208 1    
   172   86  209 1    
   173   87   88 2    
   174   87   89 am   BACKBONE|DICT|INTERRES
   175   89   90 1    
   176   89  210 1    
   177   90   91 1    
   178   90   92 1    
   179   90  211 1    
   180   91  212 1    
   181   91  213 1    
   182   91  214 1    
   183   92   93 2    
   184   92   94 am   BACKBONE|DICT|INTERRES
   185   94   95 1    
   186   94  215 1    
   187   95   96 1    
   188   95   97 1    
   189   95  216 1    
   190   96  217 1    
   191   96  218 1    
   192   96  219 1    
   193   97   98 2    
   194   97   99 am   BACKBONE|DICT|INTERRES
   195   99  100 1    
   196   99  220 1    
   197  100  101 1    
   198  100  102 1    
   199  100  221 1    
   200  101  222 1    
   201  101  223 1    
   202  101  224 1    
   203  102  103 2    
   204  102  104 am   BACKBONE|DICT|INTERRES
   205  104  105 1    
   206  104  225 1    
   207  105  106 1    
   208  105  107 1    
   209  105  226 1    
   210  106  227 1    
   211  106  228 1    
   212  106  229 1    
   213  107  108 2    
   214  107  109 am   BACKBONE|DICT|INTERRES
   215  109  110 1    
   216  109  230 1    
   217  110  111 1    
   218  110  112 1    
   219  110  231 1    
   220  111  232 1    
   221  111  233 1    
   222  111  234 1    
   223  112  113 2    
   224  112  114 am   BACKBONE|DICT|INTERRES
   225  114  115 1    
   226  114  235 1    
   227  115  116 1    
   228  115  117 1    
   229  115  236 1    
   230  116  237 1    
   231  116  238 1    
   232  116  239 1    
   233  117  118 2    
   234  117  119 am   BACKBONE|DICT|INTERRES
   235  119  120 1    
   236  119  240 1    
   237  120  121 1    
   238  120  124 1    
   239  120  241 1    
   240  121  122 am   BACKBONE|DICT|INTERRES
   241  121  123 2    
   242  122  242 1    
   243  122  243 1    
   244  124  125 1    
   245  124  244 1    
   246  124  245 1    
   247  125  126 1    
   248  126  246 1    
   249  126  247 1    
@<TRIPOS>SUBSTRUCTURE
     1 UNK         1 GROUP             0       ****    0 ROOT    
