@<TRIPOS>MOLECULE
3R540
247   249    1
SMALL
USER_CHARGES


@<TRIPOS>ATOM
      1 CA          0.8493  -18.5035  -51.7531 C.3       0 UNK        -0.1800 
      2 C           1.2558  -17.0394  -51.7969 C.2       0 UNK         0.5000 
      3 O           1.9300  -16.6195  -52.7379 O.2       0 UNK        -0.5000 
      4 N           0.8494  -16.2643  -50.7887 N.am      1 UNK        -0.5000 
      5 CA          1.1045  -14.8340  -50.6739 C.3       1 UNK         0.1400 
      6 C6          2.5052  -14.5214  -50.0693 C.3       23 UNK        -0.0398 
      7 S7          2.7007  -14.6982  -48.2554 S.3       23 UNK        -0.2404 
      8 C8          3.4416  -16.3587  -48.0583 C.3       23 UNK        -0.0205 
      9 C9          2.4576  -17.5226  -48.1748 C.ar      23 UNK        -0.0193 
     10 C10         1.1167  -17.3916  -47.7951 C.ar      23 UNK        -0.1150 
     11 C11         0.2197  -18.4523  -47.9356 C.ar      23 UNK        -0.0193 
     12 C12         0.6913  -19.6810  -48.4021 C.ar      23 UNK        -0.1150 
     13 C13         2.0309  -19.8417  -48.7624 C.ar      23 UNK        -0.0193 
     14 C14         2.9073  -18.7579  -48.6528 C.ar      23 UNK        -0.1150 
     15 C15         2.5136  -21.1809  -49.3002 C.3       23 UNK        -0.0205 
     16 S16         3.5567  -22.0944  -48.1173 S.3       23 UNK        -0.2404 
     17 C17         2.5343  -22.1415  -46.6067 C.3       23 UNK        -0.0398 
     18 CA          1.6243  -23.3904  -46.5032 C.3       11 UNK         0.1400 
     19 N           1.3926  -23.7539  -45.1056 N.am      11 UNK        -0.5000 
     20 C           0.9884  -24.9542  -44.6728 C.2       10 UNK         0.5000 
     21 O           0.8286  -25.9293  -45.4063 O.2       10 UNK        -0.5000 
     22 CA          0.6916  -25.0720  -43.1646 C.3       10 UNK         0.1400 
     23 CB          1.9519  -25.5024  -42.3995 C.3       10 UNK        -0.1800 
     24 N           0.1801  -23.8250  -42.5870 N.am      10 UNK        -0.5000 
     25 C          -1.0284  -23.3142  -42.8596 C.2       9 UNK         0.5000 
     26 O          -1.8459  -23.8640  -43.5973 O.2       9 UNK        -0.5000 
     27 CA         -1.3624  -21.9384  -42.2487 C.3       9 UNK         0.1400 
     28 CB         -1.9298  -22.1028  -40.8312 C.3       9 UNK        -0.1800 
     29 N          -0.2391  -20.9944  -42.2119 N.am      9 UNK        -0.5000 
     30 C           0.4833  -20.5941  -43.2682 C.2       8 UNK         0.5000 
     31 O           0.3244  -21.0560  -44.3963 O.2       8 UNK        -0.5000 
     32 CA          1.5565  -19.5076  -43.0495 C.3       8 UNK         0.1400 
     33 CB          1.6292  -18.5430  -44.2467 C.3       8 UNK        -0.1800 
     34 N           1.3538  -18.7321  -41.8223 N.am      8 UNK        -0.5000 
     35 C           1.8245  -19.0704  -40.6131 C.2       7 UNK         0.5000 
     36 O           2.4234  -20.1252  -40.3982 O.2       7 UNK        -0.5000 
     37 CA          1.5548  -18.0884  -39.4497 C.3       7 UNK         0.1400 
     38 CB          2.6233  -18.1716  -38.3392 C.3       7 UNK        -0.1800 
     39 N           1.3551  -16.6991  -39.8814 N.am      7 UNK        -0.5000 
     40 C           2.2372  -15.9074  -40.5085 C.2       6 UNK         0.5000 
     41 O           3.3909  -16.2351  -40.7927 O.2       6 UNK        -0.5000 
     42 CA          1.7138  -14.5215  -40.9277 C.3       6 UNK         0.1400 
     43 CB          2.6705  -13.4006  -40.4901 C.3       6 UNK        -0.1800 
     44 N           1.5162  -14.4396  -42.3733 N.am      6 UNK        -0.5000 
     45 C           0.6646  -15.1722  -43.1004 C.2       5 UNK         0.5000 
     46 O          -0.0704  -16.0281  -42.6020 O.2       5 UNK        -0.5000 
     47 CA          0.6138  -14.9130  -44.6283 C.3       5 UNK         0.1400 
     48 CB         -0.7463  -15.3252  -45.2213 C.3       5 UNK        -0.1800 
     49 N           0.8725  -13.5289  -45.0402 N.am      5 UNK        -0.5000 
     50 C           2.0237  -12.8466  -44.9771 C.2       4 UNK         0.5000 
     51 O           3.0524  -13.3052  -44.4793 O.2       4 UNK        -0.5000 
     52 CA          2.0332  -11.4100  -45.5444 C.3       4 UNK         0.1400 
     53 CB          3.1702  -11.2168  -46.5615 C.3       4 UNK        -0.1800 
     54 N           0.7746  -11.0175  -46.1824 N.am      4 UNK        -0.5000 
     55 C          -0.3330  -10.5975  -45.5634 C.2       3 UNK         0.5000 
     56 O          -0.4287  -10.5070  -44.3396 O.2       3 UNK        -0.5000 
     57 CA         -1.5494  -10.2431  -46.4460 C.3       3 UNK         0.1400 
     58 CB         -1.4894   -8.7704  -46.8941 C.3       3 UNK        -0.1800 
     59 N          -1.7888  -11.1368  -47.5930 N.am      3 UNK        -0.5000 
     60 C          -1.0353  -11.3356  -48.6839 C.2       2 UNK         0.5000 
     61 O           0.0602  -10.8015  -48.8759 O.2       2 UNK        -0.5000 
     62 CA         -1.6147  -12.2766  -49.7515 C.3       2 UNK         0.1400 
     63 CB         -2.3640  -11.4772  -50.8279 C.3       2 UNK        -0.1800 
     64 N          -0.5413  -13.0377  -50.3864 N.am      2 UNK        -0.5000 
     65 C          -0.0789  -14.2019  -49.9194 C.2       1 UNK         0.5000 
     66 O          -0.5608  -14.7812  -48.9437 O.2       1 UNK        -0.5000 
     67 C           0.2785  -23.1911  -47.2304 C.2       11 UNK         0.5000 
     68 O           0.1117  -23.6713  -48.3499 O.2       11 UNK        -0.5000 
     69 N          -0.6750  -22.5296  -46.5566 N.am      12 UNK        -0.5000 
     70 CA         -2.0517  -22.3118  -47.0044 C.3       12 UNK         0.1400 
     71 CB         -2.7992  -21.4670  -45.9599 C.3       12 UNK        -0.1800 
     72 C          -2.7897  -23.6341  -47.2762 C.2       12 UNK         0.5000 
     73 O          -3.4174  -23.7813  -48.3262 O.2       12 UNK        -0.5000 
     74 N          -2.6448  -24.5859  -46.3430 N.am      13 UNK        -0.5000 
     75 CA         -3.1828  -25.9434  -46.4229 C.3       13 UNK         0.1400 
     76 CB         -2.9499  -26.6545  -45.0815 C.3       13 UNK        -0.1800 
     77 C          -2.6046  -26.7802  -47.5805 C.2       13 UNK         0.5000 
     78 O          -3.2897  -27.6796  -48.0691 O.2       13 UNK        -0.5000 
     79 N          -1.3853  -26.4598  -48.0368 N.am      14 UNK        -0.5000 
     80 CA         -0.7144  -27.0864  -49.1785 C.3       14 UNK         0.1400 
     81 CB          0.8102  -26.9638  -49.0022 C.3       14 UNK        -0.1800 
     82 C          -1.2184  -26.5143  -50.5229 C.2       14 UNK         0.5000 
     83 O          -0.4214  -26.0899  -51.3601 O.2       14 UNK        -0.5000 
     84 N          -2.5480  -26.5100  -50.6900 N.am      15 UNK        -0.5000 
     85 CA         -3.3428  -26.1100  -51.8571 C.3       15 UNK         0.1400 
     86 CB         -2.9883  -26.9701  -53.0860 C.3       15 UNK        -0.1800 
     87 C          -3.3342  -24.6075  -52.2066 C.2       15 UNK         0.5000 
     88 O          -4.1088  -24.2062  -53.0751 O.2       15 UNK        -0.5000 
     89 N          -2.5174  -23.7848  -51.5361 N.am      16 UNK        -0.5000 
     90 CA         -2.4148  -22.3461  -51.7956 C.3       16 UNK         0.1400 
     91 CB         -1.1963  -21.7728  -51.0637 C.3       16 UNK        -0.1800 
     92 C          -3.6990  -21.5695  -51.4478 C.2       16 UNK         0.5000 
     93 O          -4.0526  -20.6342  -52.1679 O.2       16 UNK        -0.5000 
     94 N          -4.4053  -21.9965  -50.3910 N.am      17 UNK        -0.5000 
     95 CA         -5.7176  -21.4649  -50.0206 C.3       17 UNK         0.1400 
     96 CB         -6.0754  -21.9069  -48.5954 C.3       17 UNK        -0.1800 
     97 C          -6.8214  -21.8901  -51.0053 C.2       17 UNK         0.5000 
     98 O          -7.7057  -21.0879  -51.3022 O.2       17 UNK        -0.5000 
     99 N          -6.7359  -23.1267  -51.5183 N.am      18 UNK        -0.5000 
    100 CA        -7.6603  -23.6818  -52.5122 C.3       18 UNK         0.1400 
    101 CB        -7.4621  -25.2024  -52.6106 C.3       18 UNK        -0.1800 
    102 C         -7.5036  -23.0135  -53.8907 C.2       18 UNK         0.5000 
    103 O         -8.5013  -22.7645  -54.5677 O.2       18 UNK        -0.5000 
    104 N         -6.2553  -22.6900  -54.2535 N.am      19 UNK        -0.5000 
    105 CA        -5.8897  -21.9025  -55.4324 C.3       19 UNK         0.1400 
    106 CB        -4.3863  -22.0890  -55.6934 C.3       19 UNK        -0.1800 
    107 C         -6.2239  -20.4013  -55.2957 C.2       19 UNK         0.5000 
    108 O         -6.1617  -19.6813  -56.2926 O.2       19 UNK        -0.5000 
    109 N         -6.5442  -19.9581  -54.0699 N.am      20 UNK        -0.5000 
    110 CA        -6.8258  -18.5822  -53.6463 C.3       20 UNK         0.1400 
    111 CB        -8.0706  -18.0192  -54.3623 C.3       20 UNK        -0.1800 
    112 C         -5.6028  -17.6460  -53.7435 C.2       20 UNK         0.5000 
    113 O         -5.7632  -16.4243  -53.7652 O.2       20 UNK        -0.5000 
    114 N         -4.3944  -18.2255  -53.7512 N.am      21 UNK        -0.5000 
    115 CA        -3.1177  -17.5110  -53.7909 C.3       21 UNK         0.1400 
    116 CB        -1.9997  -18.5080  -54.1245 C.3       21 UNK        -0.1800 
    117 C         -2.8222  -16.7654  -52.4759 C.2       21 UNK         0.5000 
    118 O         -2.1280  -15.7493  -52.4941 O.2       21 UNK        -0.5000 
    119 N         -3.3953  -17.2638  -51.3735 N.am      22 UNK        -0.5000 
    120 CA        -3.4141  -16.6112  -50.0564 C.3       22 UNK         0.1400 
    121 C         -4.3862  -15.3961  -49.9514 C.2       22 UNK         0.5000 
    122 N         -5.1837  -15.0748  -50.9648 N.am      22 UNK        -0.7600 
    123 O         -4.4165  -14.7222  -48.9260 O.2       22 UNK        -0.5000 
    124 C124       -3.6667  -17.6321  -48.9172 C.3       23 UNK        -0.0398 
    125 S125       -2.3774  -18.9205  -48.8571 S.3       23 UNK        -0.2404 
    126 C126       -1.2497  -18.2530  -47.5853 C.3       23 UNK        -0.0205 
    127 H127        1.6978  -19.1171  -51.4550 H         1 UNK         0.0600 
    128 H128        0.5254  -18.8416  -52.7356 H         1 UNK         0.0600 
    129 H129        0.0340  -18.6661  -51.0486 H         1 UNK         0.0600 
    130 H130        0.3007  -16.6466  -50.0287 H         1 UNK         0.3000 
    131 H131        1.0848  -14.4196  -51.6845 H         1 UNK         0.0600 
    132 H132        3.2696  -15.1160  -50.5707 H         1 UNK         0.0800 
    133 H133        2.7564  -13.4860  -50.3028 H         1 UNK         0.0800 
    134 H134        4.2523  -16.4715  -48.7795 H         1 UNK         0.0800 
    135 H135        3.9002  -16.4088  -47.0701 H         1 UNK         0.0800 
    136 H136        0.7598  -16.4477  -47.4140 H         1 UNK         0.1150 
    137 H137        0.0074  -20.5097  -48.5031 H         1 UNK         0.1150 
    138 H138        3.9421  -18.8807  -48.9401 H         1 UNK         0.1150 
    139 H139        3.0866  -21.0129  -50.2130 H         1 UNK         0.0800 
    140 H140        1.6686  -21.8065  -49.5903 H         1 UNK         0.0800 
    141 H141        1.9745  -21.2156  -46.4791 H         1 UNK         0.0800 
    142 H142        3.2483  -22.1464  -45.7819 H         1 UNK         0.0800 
    143 H143        2.1358  -24.2311  -46.9775 H         1 UNK         0.0600 
    144 H144        1.4164  -22.9919  -44.4425 H         1 UNK         0.3000 
    145 H145       -0.0675  -25.8467  -43.0359 H         1 UNK         0.0600 
    146 H146        2.3457  -26.4406  -42.7930 H         1 UNK         0.0600 
    147 H147        1.7369  -25.6596  -41.3423 H         1 UNK         0.0600 
    148 H148        2.7441  -24.7565  -42.4745 H         1 UNK         0.0600 
    149 H149        0.7960  -23.3134  -41.9718 H         1 UNK         0.3000 
    150 H150       -2.1377  -21.4887  -42.8715 H         1 UNK         0.0600 
    151 H151       -1.1846  -22.5037  -40.1431 H         1 UNK         0.0600 
    152 H152       -2.7814  -22.7846  -40.8274 H         1 UNK         0.0600 
    153 H153       -2.2776  -21.1497  -40.4321 H         1 UNK         0.0600 
    154 H154       -0.0288  -20.5786  -41.3172 H         1 UNK         0.3000 
    155 H155        2.5169  -20.0231  -42.9892 H         1 UNK         0.0600 
    156 H156        2.3682  -17.7591  -44.0807 H         1 UNK         0.0600 
    157 H157        0.6664  -18.0691  -44.4355 H         1 UNK         0.0600 
    158 H158        1.9168  -19.0654  -45.1600 H         1 UNK         0.0600 
    159 H159        0.8422  -17.8618  -41.9204 H         1 UNK         0.3000 
    160 H160        0.6070  -18.4043  -39.0118 H         1 UNK         0.0600 
    161 H161        3.6205  -17.9449  -38.7172 H         1 UNK         0.0600 
    162 H162        2.6598  -19.1710  -37.9041 H         1 UNK         0.0600 
    163 H163        2.4052  -17.4759  -37.5289 H         1 UNK         0.0600 
    164 H164        0.4205  -16.3395  -39.7420 H         1 UNK         0.3000 
    165 H165        0.7494  -14.3457  -40.4466 H         1 UNK         0.0600 
    166 H166        2.2589  -12.4183  -40.7227 H         1 UNK         0.0600 
    167 H167        2.8446  -13.4342  -39.4139 H         1 UNK         0.0600 
    168 H168        3.6401  -13.4818  -40.9833 H         1 UNK         0.0600 
    169 H169        2.1494  -13.8337  -42.8854 H         1 UNK         0.3000 
    170 H170        1.3855  -15.5380  -45.0815 H         1 UNK         0.0600 
    171 H171       -1.5677  -14.7878  -44.7458 H         1 UNK         0.0600 
    172 H172       -0.9321  -16.3911  -45.0883 H         1 UNK         0.0600 
    173 H173       -0.7946  -15.1188  -46.2897 H         1 UNK         0.0600 
    174 H174        0.0868  -13.0437  -45.4453 H         1 UNK         0.3000 
    175 H175        2.2194  -10.7408  -44.7021 H         1 UNK         0.0600 
    176 H176        4.1374  -11.4830  -46.1333 H         1 UNK         0.0600 
    177 H177        3.0223  -11.8309  -47.4499 H         1 UNK         0.0600 
    178 H178        3.2355  -10.1774  -46.8836 H         1 UNK         0.0600 
    179 H179        0.7515  -11.0400  -47.1996 H         1 UNK         0.3000 
    180 H180       -2.4288  -10.3499  -45.8087 H         1 UNK         0.0600 
    181 H181       -0.6249   -8.5709  -47.5278 H         1 UNK         0.0600 
    182 H182       -1.4205   -8.1046  -46.0329 H         1 UNK         0.0600 
    183 H183       -2.3845   -8.4905  -47.4497 H         1 UNK         0.0600 
    184 H184       -2.6563  -11.6530  -47.5368 H         1 UNK         0.3000 
    185 H185       -2.3229  -12.9605  -49.2793 H         1 UNK         0.0600 
    186 H186       -3.1855  -10.9084  -50.3905 H         1 UNK         0.0600 
    187 H187       -1.7081  -10.7696  -51.3367 H         1 UNK         0.0600 
    188 H188       -2.7931  -12.1399  -51.5801 H         1 UNK         0.0600 
    189 H189       -0.0796  -12.5921  -51.1656 H         1 UNK         0.3000 
    190 H190       -0.4212  -22.1112  -45.6643 H         1 UNK         0.3000 
    191 H191       -2.0134  -21.7426  -47.9314 H         1 UNK         0.0600 
    192 H192       -2.1946  -20.6302  -45.6137 H         1 UNK         0.0600 
    193 H193       -3.7137  -21.0499  -46.3783 H         1 UNK         0.0600 
    194 H194       -3.0802  -22.0513  -45.0846 H         1 UNK         0.0600 
    195 H195       -2.1518  -24.3489  -45.4870 H         1 UNK         0.3000 
    196 H196       -4.2593  -25.8624  -46.5856 H         1 UNK         0.0600 
    197 H197       -3.3572  -27.6662  -45.0972 H         1 UNK         0.0600 
    198 H198       -3.4353  -26.1220  -44.2634 H         1 UNK         0.0600 
    199 H199       -1.8874  -26.7304  -44.8477 H         1 UNK         0.0600 
    200 H200       -0.9091  -25.6689  -47.6237 H         1 UNK         0.3000 
    201 H201       -0.9521  -28.1521  -49.1800 H         1 UNK         0.0600 
    202 H202        1.3371  -27.5176  -49.7801 H         1 UNK         0.0600 
    203 H203        1.1305  -27.3688  -48.0420 H         1 UNK         0.0600 
    204 H204        1.1461  -25.9289  -49.0565 H         1 UNK         0.0600 
    205 H205       -3.0889  -26.8694  -49.9099 H         1 UNK         0.3000 
    206 H206       -4.3754  -26.3394  -51.5905 H         1 UNK         0.0600 
    207 H207       -3.0571  -28.0336  -52.8571 H         1 UNK         0.0600 
    208 H208       -3.6729  -26.7730  -53.9120 H         1 UNK         0.0600 
    209 H209       -1.9796  -26.7676  -53.4465 H         1 UNK         0.0600 
    210 H210       -1.9086  -24.1736  -50.8298 H         1 UNK         0.3000 
    211 H211       -2.2457  -22.2136  -52.8663 H         1 UNK         0.0600 
    212 H212       -1.2419  -21.9730  -49.9962 H         1 UNK         0.0600 
    213 H213       -1.1336  -20.6931  -51.1955 H         1 UNK         0.0600 
    214 H214       -0.2694  -22.2037  -51.4424 H         1 UNK         0.0600 
    215 H215       -4.0365  -22.7515  -49.8181 H         1 UNK         0.3000 
    216 H216       -5.6613  -20.3742  -50.0324 H         1 UNK         0.0600 
    217 H217       -7.0501  -21.5182  -48.2975 H         1 UNK         0.0600 
    218 H218       -5.3469  -21.5352  -47.8779 H         1 UNK         0.0600 
    219 H219       -6.1120  -22.9933  -48.5056 H         1 UNK         0.0600 
    220 H220       -5.9551  -23.7055  -51.2488 H         1 UNK         0.3000 
    221 H221       -8.6795  -23.4958  -52.1665 H         1 UNK         0.0600 
    222 H222       -6.4673  -25.4614  -52.9728 H         1 UNK         0.0600 
    223 H223       -7.6036  -25.6831  -51.6425 H         1 UNK         0.0600 
    224 H224       -8.1835  -25.6428  -53.3000 H         1 UNK         0.0600 
    225 H225       -5.4854  -23.0193  -53.6768 H         1 UNK         0.3000 
    226 H226       -6.4415  -22.2878  -56.2921 H         1 UNK         0.0600 
    227 H227       -4.0739  -21.5568  -56.5927 H         1 UNK         0.0600 
    228 H228       -3.7862  -21.7132  -54.8639 H         1 UNK         0.0600 
    229 H229       -4.1379  -23.1410  -55.8355 H         1 UNK         0.0600 
    230 H230       -6.5579  -20.6416  -53.3252 H         1 UNK         0.3000 
    231 H231       -7.0637  -18.6442  -52.5837 H         1 UNK         0.0600 
    232 H232       -7.8857  -17.8425  -55.4221 H         1 UNK         0.0600 
    233 H233       -8.3773  -17.0691  -53.9236 H         1 UNK         0.0600 
    234 H234       -8.9160  -18.7019  -54.2771 H         1 UNK         0.0600 
    235 H235       -4.3456  -19.2292  -53.6130 H         1 UNK         0.3000 
    236 H236       -3.1671  -16.7699  -54.5913 H         1 UNK         0.0600 
    237 H237       -1.0496  -17.9895  -54.2556 H         1 UNK         0.0600 
    238 H238       -1.8720  -19.2492  -53.3346 H         1 UNK         0.0600 
    239 H239       -2.2085  -19.0402  -55.0527 H         1 UNK         0.0600 
    240 H240       -3.9160  -18.1251  -51.4565 H         1 UNK         0.3000 
    241 H241       -2.4205  -16.1965  -49.8971 H         1 UNK         0.0600 
    242 H242       -5.8005  -14.2840  -50.8685 H         1 UNK         0.3800 
    243 H243       -5.1748  -15.5934  -51.8329 H         1 UNK         0.3800 
    244 H244       -4.6321  -18.1209  -49.0556 H         1 UNK         0.0800 
    245 H245       -3.7188  -17.1371  -47.9460 H         1 UNK         0.0800 
    246 H246       -1.4568  -18.7215  -46.6244 H         1 UNK         0.0800 
    247 H247       -1.4497  -17.1885  -47.4606 H         1 UNK         0.0800 
@<TRIPOS>BOND
     1    1    2 1    
     2    1  127 1    
     3    1  128 1    
     4    1  129 1    
     5    2    3 2    
     6    2    4 am   BACKBONE|DICT|INTERRES
     7    4    5 1    
     8    4  130 1    
     9    5    6 1    
    10    5   65 1    
    11    5  131 1    
    12    6    7 1    
    13    6  132 1    
    14    6  133 1    
    15    7    8 1    
    16    8    9 1    
    17    8  134 1    
    18    8  135 1    
    19    9   10 ar   
    20    9   14 ar   
    21   10   11 ar   
    22   10  136 1    
    23   11   12 ar   
    24   11  126 1    
    25   12   13 ar   
    26   12  137 1    
    27   13   14 ar   
    28   13   15 1    
    29   14  138 1    
    30   15   16 1    
    31   15  139 1    
    32   15  140 1    
    33   16   17 1    
    34   17   18 1    
    35   17  141 1    
    36   17  142 1    
    37   18   19 1    
    38   18   67 1    
    39   18  143 1    
    40   19   20 am   BACKBONE|DICT|INTERRES
    41   19  144 1    
    42   20   21 2    
    43   20   22 1    
    44   22   23 1    
    45   22   24 1    
    46   22  145 1    
    47   23  146 1    
    48   23  147 1    
    49   23  148 1    
    50   24   25 am   BACKBONE|DICT|INTERRES
    51   24  149 1    
    52   25   26 2    
    53   25   27 1    
    54   27   28 1    
    55   27   29 1    
    56   27  150 1    
    57   28  151 1    
    58   28  152 1    
    59   28  153 1    
    60   29   30 am   BACKBONE|DICT|INTERRES
    61   29  154 1    
    62   30   31 2    
    63   30   32 1    
    64   32   33 1    
    65   32   34 1    
    66   32  155 1    
    67   33  156 1    
    68   33  157 1    
    69   33  158 1    
    70   34   35 am   BACKBONE|DICT|INTERRES
    71   34  159 1    
    72   35   36 2    
    73   35   37 1    
    74   37   38 1    
    75   37   39 1    
    76   37  160 1    
    77   38  161 1    
    78   38  162 1    
    79   38  163 1    
    80   39   40 am   BACKBONE|DICT|INTERRES
    81   39  164 1    
    82   40   41 2    
    83   40   42 1    
    84   42   43 1    
    85   42   44 1    
    86   42  165 1    
    87   43  166 1    
    88   43  167 1    
    89   43  168 1    
    90   44   45 am   BACKBONE|DICT|INTERRES
    91   44  169 1    
    92   45   46 2    
    93   45   47 1    
    94   47   48 1    
    95   47   49 1    
    96   47  170 1    
    97   48  171 1    
    98   48  172 1    
    99   48  173 1    
   100   49   50 am   BACKBONE|DICT|INTERRES
   101   49  174 1    
   102   50   51 2    
   103   50   52 1    
   104   52   53 1    
   105   52   54 1    
   106   52  175 1    
   107   53  176 1    
   108   53  177 1    
   109   53  178 1    
   110   54   55 am   BACKBONE|DICT|INTERRES
   111   54  179 1    
   112   55   56 2    
   113   55   57 1    
   114   57   58 1    
   115   57   59 1    
   116   57  180 1    
   117   58  181 1    
   118   58  182 1    
   119   58  183 1    
   120   59   60 am   BACKBONE|DICT|INTERRES
   121   59  184 1    
   122   60   61 2    
   123   60   62 1    
   124   62   63 1    
   125   62   64 1    
   126   62  185 1    
   127   63  186 1    
   128   63  187 1    
   129   63  188 1    
   130   64   65 am   BACKBONE|DICT|INTERRES
   131   64  189 1    
   132   65   66 2    
   133   67   68 2    
   134   67   69 am   BACKBONE|DICT|INTERRES
   135   69   70 1    
   136   69  190 1    
   137   70   71 1    
   138   70   72 1    
   139   70  191 1    
   140   71  192 1    
   141   71  193 1    
   142   71  194 1    
   143   72   73 2    
   144   72   74 am   BACKBONE|DICT|INTERRES
   145   74   75 1    
   146   74  195 1    
   147   75   76 1    
   148   75   77 1    
   149   75  196 1    
   150   76  197 1    
   151   76  198 1    
   152   76  199 1    
   153   77   78 2    
   154   77   79 am   BACKBONE|DICT|INTERRES
   155   79   80 1    
   156   79  200 1    
   157   80   81 1    
   158   80   82 1    
   159   80  201 1    
   160   81  202 1    
   161   81  203 1    
   162   81  204 1    
   163   82   83 2    
   164   82   84 am   BACKBONE|DICT|INTERRES
   165   84   85 1    
   166   84  205 1    
   167   85   86 1    
   168   85   87 1    
   169   85  206 1    
   170   86  207 1    
   171   86  208 1    
   172   86  209 1    
   173   87   88 2    
   174   87   89 am   BACKBONE|DICT|INTERRES
   175   89   90 1    
   176   89  210 1    
   177   90   91 1    
   178   90   92 1    
   179   90  211 1    
   180   91  212 1    
   181   91  213 1    
   182   91  214 1    
   183   92   93 2    
   184   92   94 am   BACKBONE|DICT|INTERRES
   185   94   95 1    
   186   94  215 1    
   187   95   96 1    
   188   95   97 1    
   189   95  216 1    
   190   96  217 1    
   191   96  218 1    
   192   96  219 1    
   193   97   98 2    
   194   97   99 am   BACKBONE|DICT|INTERRES
   195   99  100 1    
   196   99  220 1    
   197  100  101 1    
   198  100  102 1    
   199  100  221 1    
   200  101  222 1    
   201  101  223 1    
   202  101  224 1    
   203  102  103 2    
   204  102  104 am   BACKBONE|DICT|INTERRES
   205  104  105 1    
   206  104  225 1    
   207  105  106 1    
   208  105  107 1    
   209  105  226 1    
   210  106  227 1    
   211  106  228 1    
   212  106  229 1    
   213  107  108 2    
   214  107  109 am   BACKBONE|DICT|INTERRES
   215  109  110 1    
   216  109  230 1    
   217  110  111 1    
   218  110  112 1    
   219  110  231 1    
   220  111  232 1    
   221  111  233 1    
   222  111  234 1    
   223  112  113 2    
   224  112  114 am   BACKBONE|DICT|INTERRES
   225  114  115 1    
   226  114  235 1    
   227  115  116 1    
   228  115  117 1    
   229  115  236 1    
   230  116  237 1    
   231  116  238 1    
   232  116  239 1    
   233  117  118 2    
   234  117  119 am   BACKBONE|DICT|INTERRES
   235  119  120 1    
   236  119  240 1    
   237  120  121 1    
   238  120  124 1    
   239  120  241 1    
   240  121  122 am   BACKBONE|DICT|INTERRES
   241  121  123 2    
   242  122  242 1    
   243  122  243 1    
   244  124  125 1    
   245  124  244 1    
   246  124  245 1    
   247  125  126 1    
   248  126  246 1    
   249  126  247 1    
@<TRIPOS>SUBSTRUCTURE
     1 UNK         1 GROUP             0       ****    0 ROOT    
