@<TRIPOS>MOLECULE
3R540
247   249    1
SMALL
USER_CHARGES


@<TRIPOS>ATOM
      1 CA          0.5945  -12.7893  -48.6513 C.3       0 UNK        -0.1800 
      2 C           1.6929  -12.2134  -49.5459 C.2       0 UNK         0.5000 
      3 O           1.4532  -12.0760  -50.7431 O.2       0 UNK        -0.5000 
      4 N           2.8940  -11.8438  -49.0650 N.am      1 UNK        -0.5000 
      5 CA          3.4750  -11.8971  -47.7105 C.3       1 UNK         0.1400 
      6 C6          4.2751  -13.1984  -47.4021 C.3       23 UNK        -0.0398 
      7 S7          3.3448  -14.7678  -47.4801 S.3       23 UNK        -0.2404 
      8 C8          3.8890  -15.4009  -49.0966 C.3       23 UNK        -0.0205 
      9 C9          3.0051  -16.5433  -49.5668 C.ar      23 UNK        -0.0193 
     10 C10         1.7235  -16.2682  -50.0468 C.ar      23 UNK        -0.1150 
     11 C11         0.8841  -17.3007  -50.4666 C.ar      23 UNK        -0.0193 
     12 C12         1.3547  -18.6155  -50.4545 C.ar      23 UNK        -0.1150 
     13 C13         2.6347  -18.9082  -49.9718 C.ar      23 UNK        -0.0193 
     14 C14         3.4545  -17.8667  -49.5234 C.ar      23 UNK        -0.1150 
     15 C15         3.1326  -20.3472  -49.9367 C.3       23 UNK        -0.0205 
     16 S16         2.6250  -21.2170  -48.4167 S.3       23 UNK        -0.2404 
     17 C17         0.8462  -21.4543  -48.7310 C.3       23 UNK        -0.0398 
     18 CA          0.1977  -22.5309  -47.8301 C.3       11 UNK         0.1400 
     19 N           0.1078  -22.1241  -46.4229 N.am      11 UNK        -0.5000 
     20 C          -0.3407  -22.9075  -45.4302 C.2       10 UNK         0.5000 
     21 O          -0.6640  -24.0850  -45.5806 O.2       10 UNK        -0.5000 
     22 CA         -0.5167  -22.2610  -44.0454 C.3       10 UNK         0.1400 
     23 CB          0.8208  -22.1913  -43.2938 C.3       10 UNK        -0.1800 
     24 N          -1.1295  -20.9340  -44.1162 N.am      10 UNK        -0.5000 
     25 C          -2.3696  -20.6958  -44.5692 C.2       9 UNK         0.5000 
     26 O          -3.1443  -21.5800  -44.9326 O.2       9 UNK        -0.5000 
     27 CA         -2.8066  -19.2236  -44.6798 C.3       9 UNK         0.1400 
     28 CB         -3.2435  -18.6755  -43.3138 C.3       9 UNK        -0.1800 
     29 N          -1.7627  -18.3687  -45.2425 N.am      9 UNK        -0.5000 
     30 C          -1.2576  -18.4980  -46.4777 C.2       8 UNK         0.5000 
     31 O          -1.6591  -19.3189  -47.3035 O.2       8 UNK        -0.5000 
     32 CA         -0.0645  -17.5913  -46.8241 C.3       8 UNK         0.1400 
     33 CB         -0.5410  -16.1860  -47.2189 C.3       8 UNK        -0.1800 
     34 N           0.8992  -17.4955  -45.7270 N.am      8 UNK        -0.5000 
     35 C           1.6024  -18.5303  -45.2459 C.2       7 UNK         0.5000 
     36 O           1.5280  -19.6741  -45.6907 O.2       7 UNK        -0.5000 
     37 CA          2.4866  -18.2524  -44.0189 C.3       7 UNK         0.1400 
     38 CB          3.7813  -17.5347  -44.4297 C.3       7 UNK        -0.1800 
     39 N           1.7802  -17.4668  -43.0060 N.am      7 UNK        -0.5000 
     40 C           0.7353  -17.9197  -42.2944 C.2       6 UNK         0.5000 
     41 O           0.3056  -19.0690  -42.3780 O.2       6 UNK        -0.5000 
     42 CA          0.0148  -16.9197  -41.3658 C.3       6 UNK         0.1400 
     43 CB          0.6285  -16.9557  -39.9586 C.3       6 UNK        -0.1800 
     44 N           0.0411  -15.5454  -41.8650 N.am      6 UNK        -0.5000 
     45 C          -0.4520  -15.1453  -43.0446 C.2       5 UNK         0.5000 
     46 O          -1.1209  -15.8737  -43.7785 O.2       5 UNK        -0.5000 
     47 CA         -0.0971  -13.7186  -43.5133 C.3       5 UNK         0.1400 
     48 CB         -1.3193  -12.7963  -43.3963 C.3       5 UNK        -0.1800 
     49 N           1.0423  -13.0891  -42.8308 N.am      5 UNK        -0.5000 
     50 C           2.2943  -13.5699  -42.7631 C.2       4 UNK         0.5000 
     51 O           2.6196  -14.6876  -43.1661 O.2       4 UNK        -0.5000 
     52 CA          3.3465  -12.6269  -42.1576 C.3       4 UNK         0.1400 
     53 CB          4.7868  -13.1514  -42.3073 C.3       4 UNK        -0.1800 
     54 N           3.2344  -11.3215  -42.8004 N.am      4 UNK        -0.5000 
     55 C           3.3587  -10.1346  -42.1938 C.2       3 UNK         0.5000 
     56 O           3.5976  -10.0085  -40.9920 O.2       3 UNK        -0.5000 
     57 CA          3.1959   -8.8684  -43.0637 C.3       3 UNK         0.1400 
     58 CB          4.5647   -8.2233  -43.3309 C.3       3 UNK        -0.1800 
     59 N           2.5361   -9.1132  -44.3484 N.am      3 UNK        -0.5000 
     60 C           1.2409   -9.4189  -44.5032 C.2       2 UNK         0.5000 
     61 O           0.4349   -9.4575  -43.5735 O.2       2 UNK        -0.5000 
     62 CA          0.7733   -9.7807  -45.9288 C.3       2 UNK         0.1400 
     63 CB          0.1244   -8.5651  -46.6070 C.3       2 UNK        -0.1800 
     64 N           1.8186  -10.3173  -46.8115 N.am      2 UNK        -0.5000 
     65 C           2.5450  -11.4200  -46.5740 C.2       1 UNK         0.5000 
     66 O           2.4866  -12.0479  -45.5199 O.2       1 UNK        -0.5000 
     67 C          -1.1803  -22.9291  -48.3958 C.2       11 UNK         0.5000 
     68 O          -1.2991  -24.0031  -48.9850 O.2       11 UNK        -0.5000 
     69 N          -2.1964  -22.0795  -48.1821 N.am      12 UNK        -0.5000 
     70 CA         -3.5779  -22.3185  -48.6056 C.3       12 UNK         0.1400 
     71 CB         -4.4279  -21.0722  -48.3210 C.3       12 UNK        -0.1800 
     72 C          -4.1961  -23.5701  -47.9577 C.2       12 UNK         0.5000 
     73 O          -4.8518  -24.3474  -48.6523 O.2       12 UNK        -0.5000 
     74 N          -3.9459  -23.7609  -46.6547 N.am      13 UNK        -0.5000 
     75 CA         -4.3682  -24.9317  -45.8877 C.3       13 UNK         0.1400 
     76 CB         -4.1105  -24.6946  -44.3921 C.3       13 UNK        -0.1800 
     77 C          -3.6894  -26.2280  -46.3630 C.2       13 UNK         0.5000 
     78 O          -4.3793  -27.2272  -46.5657 O.2       13 UNK        -0.5000 
     79 N          -2.3650  -26.1845  -46.5703 N.am      14 UNK        -0.5000 
     80 CA         -1.5612  -27.3042  -47.0706 C.3       14 UNK         0.1400 
     81 CB         -0.0703  -26.9423  -46.9965 C.3       14 UNK        -0.1800 
     82 C          -1.9443  -27.7276  -48.5004 C.2       14 UNK         0.5000 
     83 O          -1.9694  -28.9224  -48.7976 O.2       14 UNK        -0.5000 
     84 N          -2.2724  -26.7423  -49.3449 N.am      15 UNK        -0.5000 
     85 CA         -2.7774  -26.9346  -50.7034 C.3       15 UNK         0.1400 
     86 CB         -2.5388  -25.6430  -51.4977 C.3       15 UNK        -0.1800 
     87 C          -4.2687  -27.3234  -50.7604 C.2       15 UNK         0.5000 
     88 O          -4.7685  -27.5942  -51.8524 O.2       15 UNK        -0.5000 
     89 N          -4.9683  -27.3009  -49.6146 N.am      16 UNK        -0.5000 
     90 CA         -6.4055  -27.5498  -49.4424 C.3       16 UNK         0.1400 
     91 CB         -6.7205  -29.0429  -49.6669 C.3       16 UNK        -0.1800 
     92 C          -7.2873  -26.6141  -50.3002 C.2       16 UNK         0.5000 
     93 O          -8.3354  -27.0304  -50.7964 O.2       16 UNK        -0.5000 
     94 N          -6.8119  -25.3738  -50.4864 N.am      17 UNK        -0.5000 
     95 CA         -7.3553  -24.3072  -51.3332 C.3       17 UNK         0.1400 
     96 CB         -8.7272  -23.8394  -50.8064 C.3       17 UNK        -0.1800 
     97 C          -7.3855  -24.6209  -52.8486 C.2       17 UNK         0.5000 
     98 O          -7.9691  -23.8434  -53.6056 O.2       17 UNK        -0.5000 
     99 N          -6.7439  -25.7155  -53.2888 N.am      18 UNK        -0.5000 
    100 CA        -6.6083  -26.0805  -54.7049 C.3       18 UNK         0.1400 
    101 CB        -6.3460  -27.5900  -54.8171 C.3       18 UNK        -0.1800 
    102 C         -5.4951  -25.2817  -55.4132 C.2       18 UNK         0.5000 
    103 O         -5.4747  -25.2139  -56.6428 O.2       18 UNK        -0.5000 
    104 N         -4.6047  -24.6824  -54.6198 N.am      19 UNK        -0.5000 
    105 CA        -3.5613  -23.7443  -55.0046 C.3       19 UNK         0.1400 
    106 CB        -2.2731  -24.5091  -55.3612 C.3       19 UNK        -0.1800 
    107 C         -3.3647  -22.7744  -53.8267 C.2       19 UNK         0.5000 
    108 O         -4.0401  -22.9174  -52.8019 O.2       19 UNK        -0.5000 
    109 N         -2.4564  -21.8019  -53.9946 N.am      20 UNK        -0.5000 
    110 CA        -2.1419  -20.7368  -53.0316 C.3       20 UNK         0.1400 
    111 CB        -1.4486  -21.3080  -51.7769 C.3       20 UNK        -0.1800 
    112 C         -3.3661  -19.8504  -52.7163 C.2       20 UNK         0.5000 
    113 O         -3.6221  -19.5090  -51.5601 O.2       20 UNK        -0.5000 
    114 N         -4.0929  -19.4758  -53.7810 N.am      21 UNK        -0.5000 
    115 CA        -5.3100  -18.6541  -53.7583 C.3       21 UNK         0.1400 
    116 CB        -5.8861  -18.5867  -55.1810 C.3       21 UNK        -0.1800 
    117 C         -5.1166  -17.2354  -53.1814 C.2       21 UNK         0.5000 
    118 O         -6.0990  -16.5904  -52.8130 O.2       21 UNK        -0.5000 
    119 N         -3.8572  -16.7932  -53.0854 N.am      22 UNK        -0.5000 
    120 CA        -3.4104  -15.6333  -52.3049 C.3       22 UNK         0.1400 
    121 C         -3.6643  -15.7353  -50.7686 C.2       22 UNK         0.5000 
    122 N         -3.8958  -16.9146  -50.2008 N.am      22 UNK        -0.7600 
    123 O         -3.6512  -14.7191  -50.0805 O.2       22 UNK        -0.5000 
    124 C124       -1.9304  -15.2723  -52.6206 C.3       23 UNK        -0.0398 
    125 S125       -0.7548  -16.6820  -52.6302 S.3       23 UNK        -0.2404 
    126 C126       -0.5515  -16.9935  -50.8520 C.3       23 UNK        -0.0205 
    127 H127       -0.0213  -13.4902  -49.2149 H         1 UNK         0.0600 
    128 H128        0.9810  -13.3219  -47.7870 H         1 UNK         0.0600 
    129 H129       -0.0567  -11.9901  -48.2981 H         1 UNK         0.0600 
    130 H130        3.5324  -11.4568  -49.7457 H         1 UNK         0.3000 
    131 H131        4.2331  -11.1127  -47.7360 H         1 UNK         0.0600 
    132 H132        5.1199  -13.2640  -48.0887 H         1 UNK         0.0800 
    133 H133        4.7297  -13.1342  -46.4118 H         1 UNK         0.0800 
    134 H134        3.8558  -14.5988  -49.8355 H         1 UNK         0.0800 
    135 H135        4.9303  -15.7190  -49.0284 H         1 UNK         0.0800 
    136 H136        1.3685  -15.2485  -50.0636 H         1 UNK         0.1150 
    137 H137        0.7136  -19.4138  -50.7949 H         1 UNK         0.1150 
    138 H138        4.4423  -18.0865  -49.1436 H         1 UNK         0.1150 
    139 H139        2.7771  -20.8910  -50.8131 H         1 UNK         0.0800 
    140 H140        4.2218  -20.3617  -49.9969 H         1 UNK         0.0800 
    141 H141        0.7389  -21.7296  -49.7814 H         1 UNK         0.0800 
    142 H142        0.3384  -20.4978  -48.6059 H         1 UNK         0.0800 
    143 H143        0.8246  -23.4244  -47.8668 H         1 UNK         0.0600 
    144 H144        0.4169  -21.1808  -46.2024 H         1 UNK         0.3000 
    145 H145       -1.1882  -22.9003  -43.4687 H         1 UNK         0.0600 
    146 H146        0.6817  -21.8245  -42.2768 H         1 UNK         0.0600 
    147 H147        1.2797  -23.1781  -43.2228 H         1 UNK         0.0600 
    148 H148        1.5329  -21.5340  -43.7919 H         1 UNK         0.0600 
    149 H149       -0.5652  -20.1572  -43.7863 H         1 UNK         0.3000 
    150 H150       -3.6652  -19.1811  -45.3530 H         1 UNK         0.0600 
    151 H151       -4.0706  -19.2589  -42.9076 H         1 UNK         0.0600 
    152 H152       -3.5800  -17.6414  -43.3916 H         1 UNK         0.0600 
    153 H153       -2.4318  -18.7099  -42.5878 H         1 UNK         0.0600 
    154 H154       -1.4013  -17.6297  -44.6468 H         1 UNK         0.3000 
    155 H155        0.4489  -18.0336  -47.6795 H         1 UNK         0.0600 
    156 H156        0.2866  -15.5901  -47.5996 H         1 UNK         0.0600 
    157 H157       -0.9811  -15.6501  -46.3789 H         1 UNK         0.0600 
    158 H158       -1.2990  -16.2349  -48.0007 H         1 UNK         0.0600 
    159 H159        0.9963  -16.5958  -45.2809 H         1 UNK         0.3000 
    160 H160        2.7579  -19.2126  -43.5751 H         1 UNK         0.0600 
    161 H161        3.5792  -16.5649  -44.8857 H         1 UNK         0.0600 
    162 H162        4.3405  -18.1262  -45.1558 H         1 UNK         0.0600 
    163 H163        4.4316  -17.3702  -43.5706 H         1 UNK         0.0600 
    164 H164        2.0596  -16.4929  -42.9159 H         1 UNK         0.3000 
    165 H165       -1.0301  -17.2262  -41.2925 H         1 UNK         0.0600 
    166 H166        1.6699  -16.6308  -39.9656 H         1 UNK         0.0600 
    167 H167        0.0793  -16.3119  -39.2713 H         1 UNK         0.0600 
    168 H168        0.6021  -17.9658  -39.5475 H         1 UNK         0.0600 
    169 H169        0.5826  -14.8806  -41.3333 H         1 UNK         0.3000 
    170 H170        0.1699  -13.7942  -44.5696 H         1 UNK         0.0600 
    171 H171       -2.1796  -13.2161  -43.9196 H         1 UNK         0.0600 
    172 H172       -1.6087  -12.6447  -42.3558 H         1 UNK         0.0600 
    173 H173       -1.1207  -11.8191  -43.8361 H         1 UNK         0.0600 
    174 H174        0.8814  -12.1555  -42.4801 H         1 UNK         0.3000 
    175 H175        3.1156  -12.5436  -41.0939 H         1 UNK         0.0600 
    176 H176        5.5045  -12.4685  -41.8526 H         1 UNK         0.0600 
    177 H177        4.9048  -14.1193  -41.8188 H         1 UNK         0.0600 
    178 H178        5.0589  -13.2751  -43.3563 H         1 UNK         0.0600 
    179 H179        2.9956  -11.3561  -43.7886 H         1 UNK         0.3000 
    180 H180        2.5883   -8.1597  -42.4971 H         1 UNK         0.0600 
    181 H181        5.2150   -8.8842  -43.9055 H         1 UNK         0.0600 
    182 H182        5.0769   -7.9899  -42.3965 H         1 UNK         0.0600 
    183 H183        4.4603   -7.2895  -43.8836 H         1 UNK         0.0600 
    184 H184        3.1241   -9.1047  -45.1686 H         1 UNK         0.3000 
    185 H185        0.0121  -10.5566  -45.8247 H         1 UNK         0.0600 
    186 H186       -0.3105   -8.8353  -47.5695 H         1 UNK         0.0600 
    187 H187       -0.6793   -8.1565  -45.9929 H         1 UNK         0.0600 
    188 H188        0.8475   -7.7662  -46.7759 H         1 UNK         0.0600 
    189 H189        1.9353   -9.8510  -47.6999 H         1 UNK         0.3000 
    190 H190       -2.0134  -21.1982  -47.7096 H         1 UNK         0.3000 
    191 H191       -3.5766  -22.4820  -49.6842 H         1 UNK         0.0600 
    192 H192       -4.0326  -20.2010  -48.8441 H         1 UNK         0.0600 
    193 H193       -5.4553  -21.2152  -48.6580 H         1 UNK         0.0600 
    194 H194       -4.4577  -20.8376  -47.2569 H         1 UNK         0.0600 
    195 H195       -3.4413  -23.0414  -46.1436 H         1 UNK         0.3000 
    196 H196       -5.4445  -25.0501  -46.0294 H         1 UNK         0.0600 
    197 H197       -4.4307  -25.5522  -43.7991 H         1 UNK         0.0600 
    198 H198       -4.6610  -23.8257  -44.0313 H         1 UNK         0.0600 
    199 H199       -3.0530  -24.5282  -44.1862 H         1 UNK         0.0600 
    200 H200       -1.8583  -25.3299  -46.3507 H         1 UNK         0.3000 
    201 H201       -1.7368  -28.1591  -46.4145 H         1 UNK         0.0600 
    202 H202        0.2332  -26.7328  -45.9707 H         1 UNK         0.0600 
    203 H203        0.1599  -26.0630  -47.5993 H         1 UNK         0.0600 
    204 H204        0.5510  -27.7624  -47.3584 H         1 UNK         0.0600 
    205 H205       -2.1586  -25.7794  -49.0398 H         1 UNK         0.3000 
    206 H206       -2.2127  -27.7382  -51.1801 H         1 UNK         0.0600 
    207 H207       -1.4798  -25.3874  -51.5339 H         1 UNK         0.0600 
    208 H208       -2.8836  -25.7499  -52.5252 H         1 UNK         0.0600 
    209 H209       -3.0716  -24.7993  -51.0569 H         1 UNK         0.0600 
    210 H210       -4.4755  -27.0442  -48.7684 H         1 UNK         0.3000 
    211 H211       -6.6339  -27.3136  -48.4023 H         1 UNK         0.0600 
    212 H212       -6.5647  -29.3374  -50.7052 H         1 UNK         0.0600 
    213 H213       -7.7573  -29.2673  -49.4144 H         1 UNK         0.0600 
    214 H214       -6.0912  -29.6754  -49.0406 H         1 UNK         0.0600 
    215 H215       -5.9657  -25.1245  -49.9778 H         1 UNK         0.3000 
    216 H216       -6.6623  -23.4715  -51.2235 H         1 UNK         0.0600 
    217 H217       -8.6789  -23.5950  -49.7452 H         1 UNK         0.0600 
    218 H218       -9.4949  -24.6015  -50.9417 H         1 UNK         0.0600 
    219 H219       -9.0633  -22.9427  -51.3281 H         1 UNK         0.0600 
    220 H220       -6.2733  -26.3179  -52.6222 H         1 UNK         0.3000 
    221 H221       -7.5488  -25.8641  -55.2159 H         1 UNK         0.0600 
    222 H222       -5.3759  -27.8635  -54.4015 H         1 UNK         0.0600 
    223 H223       -7.1106  -28.1654  -54.2949 H         1 UNK         0.0600 
    224 H224       -6.3536  -27.9086  -55.8601 H         1 UNK         0.0600 
    225 H225       -4.7531  -24.7263  -53.6193 H         1 UNK         0.3000 
    226 H226       -3.8956  -23.1637  -55.8667 H         1 UNK         0.0600 
    227 H227       -2.4554  -25.2422  -56.1472 H         1 UNK         0.0600 
    228 H228       -1.5008  -23.8327  -55.7278 H         1 UNK         0.0600 
    229 H229       -1.8628  -25.0384  -54.5015 H         1 UNK         0.0600 
    230 H230       -1.9487  -21.7640  -54.8676 H         1 UNK         0.3000 
    231 H231       -1.4236  -20.0759  -53.5191 H         1 UNK         0.0600 
    232 H232       -1.2746  -20.5338  -51.0298 H         1 UNK         0.0600 
    233 H233       -0.4817  -21.7415  -52.0309 H         1 UNK         0.0600 
    234 H234       -2.0412  -22.0867  -51.3015 H         1 UNK         0.0600 
    235 H235       -3.8013  -19.8051  -54.6894 H         1 UNK         0.3000 
    236 H236       -6.0346  -19.1621  -53.1187 H         1 UNK         0.0600 
    237 H237       -6.8139  -18.0133  -55.2015 H         1 UNK         0.0600 
    238 H238       -5.1909  -18.1105  -55.8736 H         1 UNK         0.0600 
    239 H239       -6.1143  -19.5821  -55.5628 H         1 UNK         0.0600 
    240 H240       -3.1192  -17.3944  -53.4194 H         1 UNK         0.3000 
    241 H241       -4.0193  -14.7897  -52.6355 H         1 UNK         0.0600 
    242 H242       -3.8748  -17.7752  -50.7410 H         1 UNK         0.3800 
    243 H243       -4.0701  -16.9573  -49.2105 H         1 UNK         0.3800 
    244 H244       -1.8898  -14.8300  -53.6167 H         1 UNK         0.0800 
    245 H245       -1.5587  -14.4925  -51.9528 H         1 UNK         0.0800 
    246 H246       -0.8827  -16.1225  -50.2872 H         1 UNK         0.0800 
    247 H247       -1.2028  -17.8169  -50.5538 H         1 UNK         0.0800 
@<TRIPOS>BOND
     1    1    2 1    
     2    1  127 1    
     3    1  128 1    
     4    1  129 1    
     5    2    3 2    
     6    2    4 am   BACKBONE|DICT|INTERRES
     7    4    5 1    
     8    4  130 1    
     9    5    6 1    
    10    5   65 1    
    11    5  131 1    
    12    6    7 1    
    13    6  132 1    
    14    6  133 1    
    15    7    8 1    
    16    8    9 1    
    17    8  134 1    
    18    8  135 1    
    19    9   10 ar   
    20    9   14 ar   
    21   10   11 ar   
    22   10  136 1    
    23   11   12 ar   
    24   11  126 1    
    25   12   13 ar   
    26   12  137 1    
    27   13   14 ar   
    28   13   15 1    
    29   14  138 1    
    30   15   16 1    
    31   15  139 1    
    32   15  140 1    
    33   16   17 1    
    34   17   18 1    
    35   17  141 1    
    36   17  142 1    
    37   18   19 1    
    38   18   67 1    
    39   18  143 1    
    40   19   20 am   BACKBONE|DICT|INTERRES
    41   19  144 1    
    42   20   21 2    
    43   20   22 1    
    44   22   23 1    
    45   22   24 1    
    46   22  145 1    
    47   23  146 1    
    48   23  147 1    
    49   23  148 1    
    50   24   25 am   BACKBONE|DICT|INTERRES
    51   24  149 1    
    52   25   26 2    
    53   25   27 1    
    54   27   28 1    
    55   27   29 1    
    56   27  150 1    
    57   28  151 1    
    58   28  152 1    
    59   28  153 1    
    60   29   30 am   BACKBONE|DICT|INTERRES
    61   29  154 1    
    62   30   31 2    
    63   30   32 1    
    64   32   33 1    
    65   32   34 1    
    66   32  155 1    
    67   33  156 1    
    68   33  157 1    
    69   33  158 1    
    70   34   35 am   BACKBONE|DICT|INTERRES
    71   34  159 1    
    72   35   36 2    
    73   35   37 1    
    74   37   38 1    
    75   37   39 1    
    76   37  160 1    
    77   38  161 1    
    78   38  162 1    
    79   38  163 1    
    80   39   40 am   BACKBONE|DICT|INTERRES
    81   39  164 1    
    82   40   41 2    
    83   40   42 1    
    84   42   43 1    
    85   42   44 1    
    86   42  165 1    
    87   43  166 1    
    88   43  167 1    
    89   43  168 1    
    90   44   45 am   BACKBONE|DICT|INTERRES
    91   44  169 1    
    92   45   46 2    
    93   45   47 1    
    94   47   48 1    
    95   47   49 1    
    96   47  170 1    
    97   48  171 1    
    98   48  172 1    
    99   48  173 1    
   100   49   50 am   BACKBONE|DICT|INTERRES
   101   49  174 1    
   102   50   51 2    
   103   50   52 1    
   104   52   53 1    
   105   52   54 1    
   106   52  175 1    
   107   53  176 1    
   108   53  177 1    
   109   53  178 1    
   110   54   55 am   BACKBONE|DICT|INTERRES
   111   54  179 1    
   112   55   56 2    
   113   55   57 1    
   114   57   58 1    
   115   57   59 1    
   116   57  180 1    
   117   58  181 1    
   118   58  182 1    
   119   58  183 1    
   120   59   60 am   BACKBONE|DICT|INTERRES
   121   59  184 1    
   122   60   61 2    
   123   60   62 1    
   124   62   63 1    
   125   62   64 1    
   126   62  185 1    
   127   63  186 1    
   128   63  187 1    
   129   63  188 1    
   130   64   65 am   BACKBONE|DICT|INTERRES
   131   64  189 1    
   132   65   66 2    
   133   67   68 2    
   134   67   69 am   BACKBONE|DICT|INTERRES
   135   69   70 1    
   136   69  190 1    
   137   70   71 1    
   138   70   72 1    
   139   70  191 1    
   140   71  192 1    
   141   71  193 1    
   142   71  194 1    
   143   72   73 2    
   144   72   74 am   BACKBONE|DICT|INTERRES
   145   74   75 1    
   146   74  195 1    
   147   75   76 1    
   148   75   77 1    
   149   75  196 1    
   150   76  197 1    
   151   76  198 1    
   152   76  199 1    
   153   77   78 2    
   154   77   79 am   BACKBONE|DICT|INTERRES
   155   79   80 1    
   156   79  200 1    
   157   80   81 1    
   158   80   82 1    
   159   80  201 1    
   160   81  202 1    
   161   81  203 1    
   162   81  204 1    
   163   82   83 2    
   164   82   84 am   BACKBONE|DICT|INTERRES
   165   84   85 1    
   166   84  205 1    
   167   85   86 1    
   168   85   87 1    
   169   85  206 1    
   170   86  207 1    
   171   86  208 1    
   172   86  209 1    
   173   87   88 2    
   174   87   89 am   BACKBONE|DICT|INTERRES
   175   89   90 1    
   176   89  210 1    
   177   90   91 1    
   178   90   92 1    
   179   90  211 1    
   180   91  212 1    
   181   91  213 1    
   182   91  214 1    
   183   92   93 2    
   184   92   94 am   BACKBONE|DICT|INTERRES
   185   94   95 1    
   186   94  215 1    
   187   95   96 1    
   188   95   97 1    
   189   95  216 1    
   190   96  217 1    
   191   96  218 1    
   192   96  219 1    
   193   97   98 2    
   194   97   99 am   BACKBONE|DICT|INTERRES
   195   99  100 1    
   196   99  220 1    
   197  100  101 1    
   198  100  102 1    
   199  100  221 1    
   200  101  222 1    
   201  101  223 1    
   202  101  224 1    
   203  102  103 2    
   204  102  104 am   BACKBONE|DICT|INTERRES
   205  104  105 1    
   206  104  225 1    
   207  105  106 1    
   208  105  107 1    
   209  105  226 1    
   210  106  227 1    
   211  106  228 1    
   212  106  229 1    
   213  107  108 2    
   214  107  109 am   BACKBONE|DICT|INTERRES
   215  109  110 1    
   216  109  230 1    
   217  110  111 1    
   218  110  112 1    
   219  110  231 1    
   220  111  232 1    
   221  111  233 1    
   222  111  234 1    
   223  112  113 2    
   224  112  114 am   BACKBONE|DICT|INTERRES
   225  114  115 1    
   226  114  235 1    
   227  115  116 1    
   228  115  117 1    
   229  115  236 1    
   230  116  237 1    
   231  116  238 1    
   232  116  239 1    
   233  117  118 2    
   234  117  119 am   BACKBONE|DICT|INTERRES
   235  119  120 1    
   236  119  240 1    
   237  120  121 1    
   238  120  124 1    
   239  120  241 1    
   240  121  122 am   BACKBONE|DICT|INTERRES
   241  121  123 2    
   242  122  242 1    
   243  122  243 1    
   244  124  125 1    
   245  124  244 1    
   246  124  245 1    
   247  125  126 1    
   248  126  246 1    
   249  126  247 1    
@<TRIPOS>SUBSTRUCTURE
     1 UNK         1 GROUP             0       ****    0 ROOT    
