@<TRIPOS>MOLECULE
3R540
247   249    1
SMALL
USER_CHARGES


@<TRIPOS>ATOM
      1 CA          7.9664  -10.4195  -45.7185 C.3       0 UNK        -0.1800 
      2 C           6.6212  -11.1292  -45.7774 C.2       0 UNK         0.5000 
      3 O           5.8525  -11.0648  -44.8189 O.2       0 UNK        -0.5000 
      4 N           6.3326  -11.8003  -46.9005 N.am      1 UNK        -0.5000 
      5 CA          5.0831  -12.5361  -47.1429 C.3       1 UNK         0.1400 
      6 C6          5.2953  -13.6701  -48.1771 C.3       23 UNK        -0.0398 
      7 S7          4.1777  -15.0931  -47.9218 S.3       23 UNK        -0.2404 
      8 C8          3.3440  -15.1763  -49.5423 C.3       23 UNK        -0.0205 
      9 C9          2.6570  -16.5147  -49.7920 C.ar      23 UNK        -0.0193 
     10 C10         1.3454  -16.5585  -50.2782 C.ar      23 UNK        -0.1150 
     11 C11         0.7319  -17.7825  -50.5690 C.ar      23 UNK        -0.0193 
     12 C12         1.4452  -18.9682  -50.3678 C.ar      23 UNK        -0.1150 
     13 C13         2.7504  -18.9425  -49.8645 C.ar      23 UNK        -0.0193 
     14 C14         3.3503  -17.7124  -49.5894 C.ar      23 UNK        -0.1150 
     15 C15         3.5270  -20.2334  -49.6322 C.3       23 UNK        -0.0205 
     16 S16         3.1072  -21.0149  -48.0376 S.3       23 UNK        -0.2404 
     17 C17         1.4445  -21.6342  -48.4310 C.3       23 UNK        -0.0398 
     18 CA          0.9533  -22.7866  -47.5272 C.3       11 UNK         0.1400 
     19 N           0.5965  -22.3403  -46.1766 N.am      11 UNK        -0.5000 
     20 C           0.1428  -23.1398  -45.1987 C.2       10 UNK         0.5000 
     21 O           0.0794  -24.3670  -45.2875 O.2       10 UNK        -0.5000 
     22 CA         -0.3998  -22.4487  -43.9343 C.3       10 UNK         0.1400 
     23 CB          0.7406  -22.0493  -42.9863 C.3       10 UNK        -0.1800 
     24 N          -1.2339  -21.2838  -44.2444 N.am      10 UNK        -0.5000 
     25 C          -2.3964  -21.3483  -44.9113 C.2       9 UNK         0.5000 
     26 O          -2.9012  -22.4020  -45.2954 O.2       9 UNK        -0.5000 
     27 CA         -3.1076  -20.0229  -45.2341 C.3       9 UNK         0.1400 
     28 CB         -3.9288  -19.5433  -44.0287 C.3       9 UNK        -0.1800 
     29 N          -2.1865  -18.9718  -45.6637 N.am      9 UNK        -0.5000 
     30 C          -1.4593  -19.0061  -46.7906 C.2       8 UNK         0.5000 
     31 O          -1.5414  -19.9084  -47.6251 O.2       8 UNK        -0.5000 
     32 CA         -0.4126  -17.8877  -46.9770 C.3       8 UNK         0.1400 
     33 CB         -1.0446  -16.5918  -47.5016 C.3       8 UNK        -0.1800 
     34 N           0.3092  -17.5868  -45.7439 N.am      8 UNK        -0.5000 
     35 C           1.0899  -18.4518  -45.0849 C.2       7 UNK         0.5000 
     36 O           1.3027  -19.6059  -45.4535 O.2       7 UNK        -0.5000 
     37 CA          1.6810  -17.9545  -43.7568 C.3       7 UNK         0.1400 
     38 CB          2.9142  -17.0707  -44.0019 C.3       7 UNK        -0.1800 
     39 N           0.6879  -17.2190  -42.9719 N.am      7 UNK        -0.5000 
     40 C          -0.3675  -17.7883  -42.3722 C.2       6 UNK         0.5000 
     41 O          -0.5903  -18.9986  -42.3878 O.2       6 UNK        -0.5000 
     42 CA         -1.3589  -16.8441  -41.6667 C.3       6 UNK         0.1400 
     43 CB         -0.8506  -16.4709  -40.2662 C.3       6 UNK        -0.1800 
     44 N          -1.6216  -15.6230  -42.4300 N.am      6 UNK        -0.5000 
     45 C          -2.2584  -15.5921  -43.6091 C.2       5 UNK         0.5000 
     46 O          -2.7147  -16.5890  -44.1643 O.2       5 UNK        -0.5000 
     47 CA         -2.3674  -14.2267  -44.3115 C.3       5 UNK         0.1400 
     48 CB         -3.6243  -13.4779  -43.8452 C.3       5 UNK        -0.1800 
     49 N          -1.1968  -13.3647  -44.1327 N.am      5 UNK        -0.5000 
     50 C           0.0629  -13.6839  -44.4558 C.2       4 UNK         0.5000 
     51 O           0.3961  -14.7875  -44.8912 O.2       4 UNK        -0.5000 
     52 CA          1.1058  -12.5651  -44.2815 C.3       4 UNK         0.1400 
     53 CB          2.5470  -13.0883  -44.3920 C.3       4 UNK        -0.1800 
     54 N           0.8888  -11.5127  -45.2759 N.am      4 UNK        -0.5000 
     55 C          -0.0198  -10.5316  -45.1632 C.2       3 UNK         0.5000 
     56 O          -0.7438  -10.4058  -44.1730 O.2       3 UNK        -0.5000 
     57 CA         -0.1877   -9.5603  -46.3543 C.3       3 UNK         0.1400 
     58 CB         -0.5939   -8.1390  -45.9102 C.3       3 UNK        -0.1800 
     59 N           0.9599   -9.5222  -47.2682 N.am      3 UNK        -0.5000 
     60 C           2.2005   -9.0901  -47.0032 C.2       2 UNK         0.5000 
     61 O           2.5588   -8.6087  -45.9267 O.2       2 UNK        -0.5000 
     62 CA          3.2291   -9.2788  -48.1353 C.3       2 UNK         0.1400 
     63 CB          3.9827   -7.9721  -48.4319 C.3       2 UNK        -0.1800 
     64 N           4.1978  -10.3266  -47.8132 N.am      2 UNK        -0.5000 
     65 C           3.9076  -11.6069  -47.5351 C.2       1 UNK         0.5000 
     66 O           2.7623  -12.0589  -47.5779 O.2       1 UNK        -0.5000 
     67 C          -0.2378  -23.4748  -48.2183 C.2       11 UNK         0.5000 
     68 O          -0.0900  -24.5935  -48.7090 O.2       11 UNK        -0.5000 
     69 N          -1.3934  -22.7956  -48.2379 N.am      12 UNK        -0.5000 
     70 CA         -2.6150  -23.2737  -48.8783 C.3       12 UNK         0.1400 
     71 CB         -3.6886  -22.1842  -48.8287 C.3       12 UNK        -0.1800 
     72 C          -3.1512  -24.5832  -48.2825 C.2       12 UNK         0.5000 
     73 O          -3.5705  -25.4545  -49.0424 O.2       12 UNK        -0.5000 
     74 N          -3.0963  -24.7123  -46.9509 N.am      13 UNK        -0.5000 
     75 CA         -3.4720  -25.9180  -46.2149 C.3       13 UNK         0.1400 
     76 CB         -3.4772  -25.6167  -44.7086 C.3       13 UNK        -0.1800 
     77 C          -2.5567  -27.1153  -46.5267 C.2       13 UNK         0.5000 
     78 O          -3.0538  -28.2320  -46.6751 O.2       13 UNK        -0.5000 
     79 N          -1.2454  -26.8613  -46.6406 N.am      14 UNK        -0.5000 
     80 CA         -0.2414  -27.8646  -46.9947 C.3       14 UNK         0.1400 
     81 CB          1.1600  -27.3185  -46.6803 C.3       14 UNK        -0.1800 
     82 C          -0.3411  -28.3052  -48.4669 C.2       14 UNK         0.5000 
     83 O          -0.2521  -29.4999  -48.7530 O.2       14 UNK        -0.5000 
     84 N          -0.5267  -27.3348  -49.3707 N.am      15 UNK        -0.5000 
     85 CA         -0.6210  -27.5475  -50.8158 C.3       15 UNK         0.1400 
     86 CB         -0.3258  -26.2166  -51.5257 C.3       15 UNK        -0.1800 
     87 C          -1.9836  -28.0978  -51.2787 C.2       15 UNK         0.5000 
     88 O          -2.0586  -28.6513  -52.3763 O.2       15 UNK        -0.5000 
     89 N          -3.0297  -27.9017  -50.4617 N.am      16 UNK        -0.5000 
     90 CA         -4.4516  -28.0993  -50.7707 C.3       16 UNK         0.1400 
     91 CB         -4.7740  -29.5858  -51.0302 C.3       16 UNK        -0.1800 
     92 C          -4.9128  -27.1557  -51.9038 C.2       16 UNK         0.5000 
     93 O          -5.5759  -27.5840  -52.8509 O.2       16 UNK        -0.5000 
     94 N          -4.5035  -25.8855  -51.7946 N.am      17 UNK        -0.5000 
     95 CA         -4.7519  -24.8299  -52.7745 C.3       17 UNK         0.1400 
     96 CB         -3.6588  -23.7594  -52.6294 C.3       17 UNK        -0.1800 
     97 C          -6.1497  -24.2021  -52.6170 C.2       17 UNK         0.5000 
     98 O          -6.8386  -24.4393  -51.6208 O.2       17 UNK        -0.5000 
     99 N          -6.5329  -23.3906  -53.6105 N.am      18 UNK        -0.5000 
    100 CA        -7.7806  -22.6307  -53.6491 C.3       18 UNK         0.1400 
    101 CB        -8.0518  -22.1946  -55.0995 C.3       18 UNK        -0.1800 
    102 C         -7.7336  -21.4310  -52.6824 C.2       18 UNK         0.5000 
    103 O         -7.3213  -20.3374  -53.0811 O.2       18 UNK        -0.5000 
    104 N         -8.1439  -21.6843  -51.4305 N.am      19 UNK        -0.5000 
    105 CA        -8.2146  -20.7623  -50.2893 C.3       19 UNK         0.1400 
    106 CB        -9.2002  -19.6121  -50.5904 C.3       19 UNK        -0.1800 
    107 C         -6.8370  -20.2320  -49.8402 C.2       19 UNK         0.5000 
    108 O         -5.8118  -20.5649  -50.4350 O.2       19 UNK        -0.5000 
    109 N         -6.8277  -19.3776  -48.8058 N.am      20 UNK        -0.5000 
    110 CA        -5.6281  -18.6995  -48.2914 C.3       20 UNK         0.1400 
    111 CB        -5.9748  -17.9698  -46.9849 C.3       20 UNK        -0.1800 
    112 C         -4.9723  -17.7341  -49.3024 C.2       20 UNK         0.5000 
    113 O         -3.8170  -17.3592  -49.1212 O.2       20 UNK        -0.5000 
    114 N         -5.7016  -17.3871  -50.3715 N.am      21 UNK        -0.5000 
    115 CA        -5.1951  -16.7044  -51.5617 C.3       21 UNK         0.1400 
    116 CB        -6.3985  -16.2190  -52.3861 C.3       21 UNK        -0.1800 
    117 C         -4.2629  -17.5805  -52.4310 C.2       21 UNK         0.5000 
    118 O         -3.6366  -17.0410  -53.3433 O.2       21 UNK        -0.5000 
    119 N         -4.2038  -18.8913  -52.1447 N.am      22 UNK        -0.5000 
    120 CA        -3.4250  -19.9413  -52.8189 C.3       22 UNK         0.1400 
    121 C         -3.6686  -20.0638  -54.3518 C.2       22 UNK         0.5000 
    122 N         -4.9076  -19.9198  -54.8078 N.am      22 UNK        -0.7600 
    123 O         -2.7551  -20.3223  -55.1306 O.2       22 UNK        -0.5000 
    124 C124       -1.9398  -20.0474  -52.3530 C.3       23 UNK        -0.0398 
    125 S125       -0.8574  -18.6142  -52.7077 S.3       23 UNK        -0.2404 
    126 C126       -0.7086  -17.8256  -51.0683 C.3       23 UNK        -0.0205 
    127 H127        7.8198   -9.3494  -45.5719 H         1 UNK         0.0600 
    128 H128        8.5413  -10.5619  -46.6338 H         1 UNK         0.0600 
    129 H129        8.5554  -10.8013  -44.8846 H         1 UNK         0.0600 
    130 H130        7.0066  -11.8148  -47.6536 H         1 UNK         0.3000 
    131 H131        4.8106  -13.0043  -46.1961 H         1 UNK         0.0600 
    132 H132        5.2224  -13.2920  -49.1983 H         1 UNK         0.0800 
    133 H133        6.3065  -14.0696  -48.0872 H         1 UNK         0.0800 
    134 H134        4.0749  -15.0242  -50.3374 H         1 UNK         0.0800 
    135 H135        2.6307  -14.3529  -49.6082 H         1 UNK         0.0800 
    136 H136        0.8030  -15.6370  -50.4366 H         1 UNK         0.1150 
    137 H137        0.9744  -19.9113  -50.6027 H         1 UNK         0.1150 
    138 H138        4.3656  -17.6861  -49.2193 H         1 UNK         0.1150 
    139 H139        3.3485  -20.9307  -50.4520 H         1 UNK         0.0800 
    140 H140        4.5988  -20.0299  -49.6441 H         1 UNK         0.0800 
    141 H141        1.4639  -21.9594  -49.4733 H         1 UNK         0.0800 
    142 H142        0.7518  -20.7949  -48.3829 H         1 UNK         0.0800 
    143 H143        1.7511  -23.5263  -47.4348 H         1 UNK         0.0600 
    144 H144        0.6737  -21.3426  -45.9939 H         1 UNK         0.3000 
    145 H145       -1.0291  -23.1717  -43.4112 H         1 UNK         0.0600 
    146 H146        0.3525  -21.6269  -42.0594 H         1 UNK         0.0600 
    147 H147        1.3459  -22.9164  -42.7197 H         1 UNK         0.0600 
    148 H148        1.4054  -21.3132  -43.4368 H         1 UNK         0.0600 
    149 H149       -0.9008  -20.3838  -43.9173 H         1 UNK         0.3000 
    150 H150       -3.8001  -20.2129  -46.0550 H         1 UNK         0.0600 
    151 H151       -4.6257  -20.3145  -43.6983 H         1 UNK         0.0600 
    152 H152       -4.5176  -18.6608  -44.2783 H         1 UNK         0.0600 
    153 H153       -3.2906  -19.2907  -43.1815 H         1 UNK         0.0600 
    154 H154       -2.1111  -18.1625  -45.0536 H         1 UNK         0.3000 
    155 H155        0.3219  -18.2326  -47.7068 H         1 UNK         0.0600 
    156 H156       -1.8699  -16.2598  -46.8720 H         1 UNK         0.0600 
    157 H157       -0.3123  -15.7854  -47.5520 H         1 UNK         0.0600 
    158 H158       -1.4325  -16.7302  -48.5081 H         1 UNK         0.0600 
    159 H159        0.2202  -16.6415  -45.3807 H         1 UNK         0.3000 
    160 H160        1.9977  -18.8259  -43.1798 H         1 UNK         0.0600 
    161 H161        2.6734  -16.1934  -44.6027 H         1 UNK         0.0600 
    162 H162        3.6872  -17.6254  -44.5352 H         1 UNK         0.0600 
    163 H163        3.3485  -16.7271  -43.0631 H         1 UNK         0.0600 
    164 H164        0.7590  -16.2119  -42.9805 H         1 UNK         0.3000 
    165 H165       -2.3033  -17.3810  -41.5533 H         1 UNK         0.0600 
    166 H166       -1.5842  -15.8708  -39.7276 H         1 UNK         0.0600 
    167 H167       -0.6620  -17.3643  -39.6693 H         1 UNK         0.0600 
    168 H168        0.0799  -15.9037  -40.3114 H         1 UNK         0.0600 
    169 H169       -1.2748  -14.7562  -42.0469 H         1 UNK         0.3000 
    170 H170       -2.4658  -14.4186  -45.3815 H         1 UNK         0.0600 
    171 H171       -4.5180  -14.0867  -43.9896 H         1 UNK         0.0600 
    172 H172       -3.5693  -13.2194  -42.7870 H         1 UNK         0.0600 
    173 H173       -3.7660  -12.5557  -44.4092 H         1 UNK         0.0600 
    174 H174       -1.3730  -12.4147  -43.8259 H         1 UNK         0.3000 
    175 H175        0.9863  -12.1462  -43.2801 H         1 UNK         0.0600 
    176 H176        2.7164  -13.5994  -45.3399 H         1 UNK         0.0600 
    177 H177        3.2702  -12.2768  -44.3082 H         1 UNK         0.0600 
    178 H178        2.7634  -13.8009  -43.5956 H         1 UNK         0.0600 
    179 H179        1.4256  -11.5912  -46.1343 H         1 UNK         0.3000 
    180 H180       -1.0155   -9.9621  -46.9401 H         1 UNK         0.0600 
    181 H181        0.1441   -7.6951  -45.2418 H         1 UNK         0.0600 
    182 H182       -1.5462   -8.1519  -45.3788 H         1 UNK         0.0600 
    183 H183       -0.7130   -7.4762  -46.7673 H         1 UNK         0.0600 
    184 H184        0.7949   -9.9417  -48.1730 H         1 UNK         0.3000 
    185 H185        2.7049   -9.5781  -49.0453 H         1 UNK         0.0600 
    186 H186        3.2870   -7.1683  -48.6759 H         1 UNK         0.0600 
    187 H187        4.5761   -7.6446  -47.5772 H         1 UNK         0.0600 
    188 H188        4.6552   -8.0883  -49.2821 H         1 UNK         0.0600 
    189 H189        5.1595  -10.0346  -47.7249 H         1 UNK         0.3000 
    190 H190       -1.4306  -21.8645  -47.8320 H         1 UNK         0.3000 
    191 H191       -2.3705  -23.4682  -49.9233 H         1 UNK         0.0600 
    192 H192       -3.9296  -21.8989  -47.8054 H         1 UNK         0.0600 
    193 H193       -4.6094  -22.5368  -49.2941 H         1 UNK         0.0600 
    194 H194       -3.3703  -21.2884  -49.3622 H         1 UNK         0.0600 
    195 H195       -2.7973  -23.9142  -46.3950 H         1 UNK         0.3000 
    196 H196       -4.4872  -26.1887  -46.5124 H         1 UNK         0.0600 
    197 H197       -3.7610  -26.4987  -44.1332 H         1 UNK         0.0600 
    198 H198       -4.1899  -24.8277  -44.4680 H         1 UNK         0.0600 
    199 H199       -2.4948  -25.2963  -44.3595 H         1 UNK         0.0600 
    200 H200       -0.9113  -25.9174  -46.4813 H         1 UNK         0.3000 
    201 H201       -0.4058  -28.7461  -46.3714 H         1 UNK         0.0600 
    202 H202        1.2589  -27.0764  -45.6220 H         1 UNK         0.0600 
    203 H203        1.3792  -26.4145  -47.2495 H         1 UNK         0.0600 
    204 H204        1.9292  -28.0535  -46.9201 H         1 UNK         0.0600 
    205 H205       -0.5292  -26.3671  -49.0545 H         1 UNK         0.3000 
    206 H206        0.1435  -28.2686  -51.1124 H         1 UNK         0.0600 
    207 H207        0.6697  -25.8491  -51.2760 H         1 UNK         0.0600 
    208 H208       -0.3692  -26.3288  -52.6098 H         1 UNK         0.0600 
    209 H209       -1.0454  -25.4469  -51.2446 H         1 UNK         0.0600 
    210 H210       -2.8552  -27.3776  -49.6126 H         1 UNK         0.3000 
    211 H211       -5.0016  -27.7968  -49.8784 H         1 UNK         0.0600 
    212 H212       -4.3154  -29.9511  -51.9492 H         1 UNK         0.0600 
    213 H213       -5.8499  -29.7380  -51.1221 H         1 UNK         0.0600 
    214 H214       -4.4262  -30.2125  -50.2090 H         1 UNK         0.0600 
    215 H215       -4.0430  -25.6150  -50.9314 H         1 UNK         0.3000 
    216 H216       -4.6804  -25.2621  -53.7750 H         1 UNK         0.0600 
    217 H217       -3.6857  -23.0618  -53.4664 H         1 UNK         0.0600 
    218 H218       -2.6631  -24.2022  -52.6170 H         1 UNK         0.0600 
    219 H219       -3.7870  -23.1809  -51.7150 H         1 UNK         0.0600 
    220 H220       -5.8975  -23.2280  -54.3778 H         1 UNK         0.3000 
    221 H221       -8.6005  -23.2850  -53.3446 H         1 UNK         0.0600 
    222 H222       -7.2412  -21.5854  -55.5003 H         1 UNK         0.0600 
    223 H223       -8.1748  -23.0582  -55.7533 H         1 UNK         0.0600 
    224 H224       -8.9676  -21.6057  -55.1642 H         1 UNK         0.0600 
    225 H225       -8.3467  -22.6503  -51.2083 H         1 UNK         0.3000 
    226 H226       -8.6127  -21.3428  -49.4561 H         1 UNK         0.0600 
    227 H227      -10.1535  -19.9972  -50.9526 H         1 UNK         0.0600 
    228 H228       -9.4150  -19.0247  -49.6974 H         1 UNK         0.0600 
    229 H229       -8.8102  -18.9281  -51.3449 H         1 UNK         0.0600 
    230 H230       -7.7000  -19.1463  -48.3525 H         1 UNK         0.3000 
    231 H231       -4.8853  -19.4664  -48.0653 H         1 UNK         0.0600 
    232 H232       -5.0917  -17.4887  -46.5608 H         1 UNK         0.0600 
    233 H233       -6.3553  -18.6630  -46.2346 H         1 UNK         0.0600 
    234 H234       -6.7269  -17.1962  -47.1435 H         1 UNK         0.0600 
    235 H235       -6.6445  -17.7404  -50.4294 H         1 UNK         0.3000 
    236 H236       -4.6205  -15.8334  -51.2400 H         1 UNK         0.0600 
    237 H237       -7.0361  -15.5545  -51.8027 H         1 UNK         0.0600 
    238 H238       -6.0724  -15.6637  -53.2664 H         1 UNK         0.0600 
    239 H239       -7.0090  -17.0543  -52.7329 H         1 UNK         0.0600 
    240 H240       -4.8132  -19.2457  -51.4139 H         1 UNK         0.3000 
    241 H241       -3.8878  -20.8528  -52.4422 H         1 UNK         0.0600 
    242 H242       -5.6840  -19.7842  -54.1683 H         1 UNK         0.3800 
    243 H243       -5.0806  -19.9900  -55.7973 H         1 UNK         0.3800 
    244 H244       -1.9182  -20.2590  -51.2837 H         1 UNK         0.0800 
    245 H245       -1.4774  -20.9225  -52.8121 H         1 UNK         0.0800 
    246 H246       -1.3227  -18.3410  -50.3290 H         1 UNK         0.0800 
    247 H247       -1.1197  -16.8177  -51.1412 H         1 UNK         0.0800 
@<TRIPOS>BOND
     1    1    2 1    
     2    1  127 1    
     3    1  128 1    
     4    1  129 1    
     5    2    3 2    
     6    2    4 am   BACKBONE|DICT|INTERRES
     7    4    5 1    
     8    4  130 1    
     9    5    6 1    
    10    5   65 1    
    11    5  131 1    
    12    6    7 1    
    13    6  132 1    
    14    6  133 1    
    15    7    8 1    
    16    8    9 1    
    17    8  134 1    
    18    8  135 1    
    19    9   10 ar   
    20    9   14 ar   
    21   10   11 ar   
    22   10  136 1    
    23   11   12 ar   
    24   11  126 1    
    25   12   13 ar   
    26   12  137 1    
    27   13   14 ar   
    28   13   15 1    
    29   14  138 1    
    30   15   16 1    
    31   15  139 1    
    32   15  140 1    
    33   16   17 1    
    34   17   18 1    
    35   17  141 1    
    36   17  142 1    
    37   18   19 1    
    38   18   67 1    
    39   18  143 1    
    40   19   20 am   BACKBONE|DICT|INTERRES
    41   19  144 1    
    42   20   21 2    
    43   20   22 1    
    44   22   23 1    
    45   22   24 1    
    46   22  145 1    
    47   23  146 1    
    48   23  147 1    
    49   23  148 1    
    50   24   25 am   BACKBONE|DICT|INTERRES
    51   24  149 1    
    52   25   26 2    
    53   25   27 1    
    54   27   28 1    
    55   27   29 1    
    56   27  150 1    
    57   28  151 1    
    58   28  152 1    
    59   28  153 1    
    60   29   30 am   BACKBONE|DICT|INTERRES
    61   29  154 1    
    62   30   31 2    
    63   30   32 1    
    64   32   33 1    
    65   32   34 1    
    66   32  155 1    
    67   33  156 1    
    68   33  157 1    
    69   33  158 1    
    70   34   35 am   BACKBONE|DICT|INTERRES
    71   34  159 1    
    72   35   36 2    
    73   35   37 1    
    74   37   38 1    
    75   37   39 1    
    76   37  160 1    
    77   38  161 1    
    78   38  162 1    
    79   38  163 1    
    80   39   40 am   BACKBONE|DICT|INTERRES
    81   39  164 1    
    82   40   41 2    
    83   40   42 1    
    84   42   43 1    
    85   42   44 1    
    86   42  165 1    
    87   43  166 1    
    88   43  167 1    
    89   43  168 1    
    90   44   45 am   BACKBONE|DICT|INTERRES
    91   44  169 1    
    92   45   46 2    
    93   45   47 1    
    94   47   48 1    
    95   47   49 1    
    96   47  170 1    
    97   48  171 1    
    98   48  172 1    
    99   48  173 1    
   100   49   50 am   BACKBONE|DICT|INTERRES
   101   49  174 1    
   102   50   51 2    
   103   50   52 1    
   104   52   53 1    
   105   52   54 1    
   106   52  175 1    
   107   53  176 1    
   108   53  177 1    
   109   53  178 1    
   110   54   55 am   BACKBONE|DICT|INTERRES
   111   54  179 1    
   112   55   56 2    
   113   55   57 1    
   114   57   58 1    
   115   57   59 1    
   116   57  180 1    
   117   58  181 1    
   118   58  182 1    
   119   58  183 1    
   120   59   60 am   BACKBONE|DICT|INTERRES
   121   59  184 1    
   122   60   61 2    
   123   60   62 1    
   124   62   63 1    
   125   62   64 1    
   126   62  185 1    
   127   63  186 1    
   128   63  187 1    
   129   63  188 1    
   130   64   65 am   BACKBONE|DICT|INTERRES
   131   64  189 1    
   132   65   66 2    
   133   67   68 2    
   134   67   69 am   BACKBONE|DICT|INTERRES
   135   69   70 1    
   136   69  190 1    
   137   70   71 1    
   138   70   72 1    
   139   70  191 1    
   140   71  192 1    
   141   71  193 1    
   142   71  194 1    
   143   72   73 2    
   144   72   74 am   BACKBONE|DICT|INTERRES
   145   74   75 1    
   146   74  195 1    
   147   75   76 1    
   148   75   77 1    
   149   75  196 1    
   150   76  197 1    
   151   76  198 1    
   152   76  199 1    
   153   77   78 2    
   154   77   79 am   BACKBONE|DICT|INTERRES
   155   79   80 1    
   156   79  200 1    
   157   80   81 1    
   158   80   82 1    
   159   80  201 1    
   160   81  202 1    
   161   81  203 1    
   162   81  204 1    
   163   82   83 2    
   164   82   84 am   BACKBONE|DICT|INTERRES
   165   84   85 1    
   166   84  205 1    
   167   85   86 1    
   168   85   87 1    
   169   85  206 1    
   170   86  207 1    
   171   86  208 1    
   172   86  209 1    
   173   87   88 2    
   174   87   89 am   BACKBONE|DICT|INTERRES
   175   89   90 1    
   176   89  210 1    
   177   90   91 1    
   178   90   92 1    
   179   90  211 1    
   180   91  212 1    
   181   91  213 1    
   182   91  214 1    
   183   92   93 2    
   184   92   94 am   BACKBONE|DICT|INTERRES
   185   94   95 1    
   186   94  215 1    
   187   95   96 1    
   188   95   97 1    
   189   95  216 1    
   190   96  217 1    
   191   96  218 1    
   192   96  219 1    
   193   97   98 2    
   194   97   99 am   BACKBONE|DICT|INTERRES
   195   99  100 1    
   196   99  220 1    
   197  100  101 1    
   198  100  102 1    
   199  100  221 1    
   200  101  222 1    
   201  101  223 1    
   202  101  224 1    
   203  102  103 2    
   204  102  104 am   BACKBONE|DICT|INTERRES
   205  104  105 1    
   206  104  225 1    
   207  105  106 1    
   208  105  107 1    
   209  105  226 1    
   210  106  227 1    
   211  106  228 1    
   212  106  229 1    
   213  107  108 2    
   214  107  109 am   BACKBONE|DICT|INTERRES
   215  109  110 1    
   216  109  230 1    
   217  110  111 1    
   218  110  112 1    
   219  110  231 1    
   220  111  232 1    
   221  111  233 1    
   222  111  234 1    
   223  112  113 2    
   224  112  114 am   BACKBONE|DICT|INTERRES
   225  114  115 1    
   226  114  235 1    
   227  115  116 1    
   228  115  117 1    
   229  115  236 1    
   230  116  237 1    
   231  116  238 1    
   232  116  239 1    
   233  117  118 2    
   234  117  119 am   BACKBONE|DICT|INTERRES
   235  119  120 1    
   236  119  240 1    
   237  120  121 1    
   238  120  124 1    
   239  120  241 1    
   240  121  122 am   BACKBONE|DICT|INTERRES
   241  121  123 2    
   242  122  242 1    
   243  122  243 1    
   244  124  125 1    
   245  124  244 1    
   246  124  245 1    
   247  125  126 1    
   248  126  246 1    
   249  126  247 1    
@<TRIPOS>SUBSTRUCTURE
     1 UNK         1 GROUP             0       ****    0 ROOT    
